MODEL 1
REMARK VINA RESULT:      -6.8      0.000      0.000
REMARK  Name = 
REMARK  23 active torsions:
REMARK  status: ('A' for Active; 'I' for Inactive)
REMARK    1  A    between atoms: C_1  and  C_2
REMARK    2  A    between atoms: C_3  and  O_62
REMARK    3  A    between atoms: C_5  and  O_61
REMARK    4  A    between atoms: C_7  and  O_60
REMARK    5  A    between atoms: C_8  and  O_11
REMARK    6  A    between atoms: O_11  and  C_12
REMARK    7  A    between atoms: C_12  and  C_13
REMARK    8  A    between atoms: C_14  and  O_59
REMARK    9  A    between atoms: C_16  and  O_58
REMARK   10  A    between atoms: C_17  and  O_57
REMARK   11  A    between atoms: C_18  and  O_21
REMARK   12  A    between atoms: O_21  and  C_22
REMARK   13  A    between atoms: C_23  and  C_49
REMARK   14  A    between atoms: C_27  and  O_34
REMARK   15  A    between atoms: C_29  and  O_33
REMARK   16  A    between atoms: O_34  and  C_35
REMARK   17  A    between atoms: C_37  and  O_48
REMARK   18  A    between atoms: C_38  and  O_47
REMARK   19  A    between atoms: C_40  and  O_46
REMARK   20  A    between atoms: C_42  and  C_44
REMARK   21  A    between atoms: C_44  and  O_45
REMARK   22  A    between atoms: C_51  and  O_56
REMARK   23  A    between atoms: C_52  and  O_55
REMARK                            x       y       z     vdW  Elec       q    Type
REMARK                         _______ _______ _______ _____ _____    ______ ____
ROOT
ATOM      1  C   UNL     1       5.844   2.337  25.831  0.00  0.00    +0.214 A 
ATOM      2  C   UNL     1       6.645   1.367  26.644  0.00  0.00    +0.238 A 
ATOM      3  O   UNL     1       7.567   1.768  27.346  0.00  0.00    -0.283 OA
ATOM      4  C   UNL     1       6.216  -0.065  26.556  0.00  0.00    +0.109 A 
ATOM      5  C   UNL     1       4.890  -0.303  26.218  0.00  0.00    +0.147 A 
ATOM      6  C   UNL     1       4.372  -1.602  26.071  0.00  0.00    +0.093 A 
ATOM      7  C   UNL     1       5.195  -2.717  26.205  0.00  0.00    +0.131 A 
ATOM      8  C   UNL     1       6.531  -2.490  26.569  0.00  0.00    +0.092 A 
ATOM      9  O   UNL     1       4.033   0.723  25.982  0.00  0.00    -0.451 OA
ATOM     10  C   UNL     1       7.022  -1.175  26.769  0.00  0.00    +0.135 A 
ATOM     11  C   UNL     1       4.570   1.914  25.526  0.00  0.00    +0.181 A 
ENDROOT
BRANCH  11  12
ATOM     12  C   UNL     1       3.585   2.622  24.663  0.00  0.00    +0.025 A 
ATOM     13  C   UNL     1       2.396   3.104  25.216  0.00  0.00    +0.015 A 
ATOM     14  C   UNL     1       1.441   3.746  24.431  0.00  0.00    +0.050 A 
ATOM     15  C   UNL     1       1.761   4.097  23.133  0.00  0.00    +0.158 A 
ATOM     16  C   UNL     1       3.020   3.805  22.615  0.00  0.00    +0.159 A 
ATOM     17  C   UNL     1       3.901   3.004  23.344  0.00  0.00    +0.060 A 
BRANCH  16  18
ATOM     18  O   UNL     1       3.464   4.433  21.499  0.00  0.00    -0.503 OA
ATOM     19  H   UNL     1       3.159   3.918  20.738  0.00  0.00    +0.292 HD
ENDBRANCH  16  18
BRANCH  15  20
ATOM     20  O   UNL     1       0.862   4.823  22.415  0.00  0.00    -0.503 OA
ATOM     21  H   UNL     1       1.394   5.524  21.999  0.00  0.00    +0.292 HD
ENDBRANCH  15  20
ENDBRANCH  11  12
BRANCH  10  22
ATOM     22  O   UNL     1       8.329  -1.017  27.118  0.00  0.00    -0.506 OA
ATOM     23  H   UNL     1       8.422  -0.192  27.620  0.00  0.00    +0.292 HD
ENDBRANCH  10  22
BRANCH   7  24
ATOM     24  O   UNL     1       4.821  -4.030  25.964  0.00  0.00    -0.461 OA
BRANCH  24  25
ATOM     25  C   UNL     1       5.855  -4.915  25.472  0.00  0.00    +0.339 C 
ATOM     26  O   UNL     1       6.384  -4.433  24.237  0.00  0.00    -0.331 OA
ATOM     27  C   UNL     1       5.424  -4.483  23.168  0.00  0.00    +0.179 C 
ATOM     28  C   UNL     1       5.013  -5.936  22.844  0.00  0.00    +0.177 C 
ATOM     29  C   UNL     1       4.478  -6.639  24.108  0.00  0.00    +0.180 C 
ATOM     30  C   UNL     1       5.413  -6.396  25.305  0.00  0.00    +0.214 C 
BRANCH  29  31
ATOM     31  O   UNL     1       3.127  -6.266  24.404  0.00  0.00    -0.386 OA
ATOM     32  H   UNL     1       2.566  -7.055  24.477  0.00  0.00    +0.210 HD
ENDBRANCH  29  31
BRANCH  30  33
ATOM     33  O   UNL     1       4.899  -6.957  26.517  0.00  0.00    -0.383 OA
ATOM     34  H   UNL     1       4.296  -7.680  26.268  0.00  0.00    +0.210 HD
ENDBRANCH  30  33
BRANCH  28  35
ATOM     35  O   UNL     1       6.140  -6.651  22.328  0.00  0.00    -0.386 OA
ATOM     36  H   UNL     1       6.929  -6.085  22.410  0.00  0.00    +0.210 HD
ENDBRANCH  28  35
BRANCH  27  37
ATOM     37  C   UNL     1       6.036  -3.773  21.952  0.00  0.00    +0.190 C 
BRANCH  37  38
ATOM     38  O   UNL     1       5.683  -4.423  20.726  0.00  0.00    -0.392 OA
ATOM     39  H   UNL     1       6.376  -5.065  20.501  0.00  0.00    +0.210 HD
ENDBRANCH  37  38
ENDBRANCH  27  37
ENDBRANCH  24  25
ENDBRANCH   7  24
BRANCH   1  40
ATOM     40  O   UNL     1       6.298   3.610  25.521  0.00  0.00    -0.453 OA
BRANCH  40  43
ATOM     41  C   UNL     1       9.731   4.788  24.292  0.00  0.00    +0.179 C 
ATOM     42  O   UNL     1       8.686   4.165  25.116  0.00  0.00    -0.331 OA
ATOM     43  C   UNL     1       7.346   4.012  24.587  0.00  0.00    +0.340 C 
ATOM     44  C   UNL     1       6.840   5.174  23.698  0.00  0.00    +0.214 C 
ATOM     45  C   UNL     1       7.914   5.489  22.654  0.00  0.00    +0.180 C 
ATOM     46  C   UNL     1       9.227   5.893  23.344  0.00  0.00    +0.177 C 
BRANCH  46  47
ATOM     47  O   UNL     1       9.042   7.107  24.091  0.00  0.00    -0.386 OA
ATOM     48  H   UNL     1       9.915   7.377  24.445  0.00  0.00    +0.210 HD
ENDBRANCH  46  47
BRANCH  45  49
ATOM     49  O   UNL     1       7.473   6.539  21.786  0.00  0.00    -0.386 OA
ATOM     50  H   UNL     1       8.292   6.898  21.384  0.00  0.00    +0.210 HD
ENDBRANCH  45  49
BRANCH  44  51
ATOM     51  O   UNL     1       6.532   6.381  24.422  0.00  0.00    -0.383 OA
ATOM     52  H   UNL     1       7.200   7.052  24.186  0.00  0.00    +0.210 HD
ENDBRANCH  44  51
BRANCH  41  53
ATOM     53  C   UNL     1      10.685   3.788  23.547  0.00  0.00    +0.197 C 
BRANCH  53  54
ATOM     54  O   UNL     1      10.583   2.378  23.898  0.00  0.00    -0.346 OA
BRANCH  54  58
ATOM     55  C   UNL     1       6.775   0.998  22.218  0.00  0.00    +0.041 C 
ATOM     56  C   UNL     1       7.625   0.292  23.272  0.00  0.00    +0.149 C 
ATOM     57  O   UNL     1       8.557   1.212  23.865  0.00  0.00    -0.343 OA
ATOM     58  C   UNL     1       9.705   1.558  23.082  0.00  0.00    +0.282 C 
ATOM     59  C   UNL     1      10.451   0.244  22.646  0.00  0.00    +0.201 C 
ATOM     60  C   UNL     1       9.483  -0.657  21.846  0.00  0.00    +0.179 C 
ATOM     61  C   UNL     1       8.256  -0.993  22.701  0.00  0.00    +0.174 C 
BRANCH  61  62
ATOM     62  O   UNL     1       8.639  -1.892  23.755  0.00  0.00    -0.387 OA
ATOM     63  H   UNL     1       7.888  -2.515  23.884  0.00  0.00    +0.210 HD
ENDBRANCH  61  62
BRANCH  60  64
ATOM     64  O   UNL     1      10.111  -1.872  21.404  0.00  0.00    -0.386 OA
ATOM     65  H   UNL     1      10.814  -1.611  20.773  0.00  0.00    +0.210 HD
ENDBRANCH  60  64
BRANCH  59  66
ATOM     66  O   UNL     1      10.892  -0.490  23.809  0.00  0.00    -0.384 OA
ATOM     67  H   UNL     1      11.748  -0.889  23.557  0.00  0.00    +0.210 HD
ENDBRANCH  59  66
ENDBRANCH  54  58
ENDBRANCH  53  54
ENDBRANCH  41  53
ENDBRANCH  40  43
ENDBRANCH   1  40
TORSDOF 22
ENDMDL
MODEL 2
REMARK VINA RESULT:      -6.7      2.354      9.498
REMARK  Name = 
REMARK  23 active torsions:
REMARK  status: ('A' for Active; 'I' for Inactive)
REMARK    1  A    between atoms: C_1  and  C_2
REMARK    2  A    between atoms: C_3  and  O_62
REMARK    3  A    between atoms: C_5  and  O_61
REMARK    4  A    between atoms: C_7  and  O_60
REMARK    5  A    between atoms: C_8  and  O_11
REMARK    6  A    between atoms: O_11  and  C_12
REMARK    7  A    between atoms: C_12  and  C_13
REMARK    8  A    between atoms: C_14  and  O_59
REMARK    9  A    between atoms: C_16  and  O_58
REMARK   10  A    between atoms: C_17  and  O_57
REMARK   11  A    between atoms: C_18  and  O_21
REMARK   12  A    between atoms: O_21  and  C_22
REMARK   13  A    between atoms: C_23  and  C_49
REMARK   14  A    between atoms: C_27  and  O_34
REMARK   15  A    between atoms: C_29  and  O_33
REMARK   16  A    between atoms: O_34  and  C_35
REMARK   17  A    between atoms: C_37  and  O_48
REMARK   18  A    between atoms: C_38  and  O_47
REMARK   19  A    between atoms: C_40  and  O_46
REMARK   20  A    between atoms: C_42  and  C_44
REMARK   21  A    between atoms: C_44  and  O_45
REMARK   22  A    between atoms: C_51  and  O_56
REMARK   23  A    between atoms: C_52  and  O_55
REMARK                            x       y       z     vdW  Elec       q    Type
REMARK                         _______ _______ _______ _____ _____    ______ ____
ROOT
ATOM      1  C   UNL     1       5.273  -2.076  27.585  0.00  0.00    +0.214 A 
ATOM      2  C   UNL     1       4.477  -0.836  27.845  0.00  0.00    +0.238 A 
ATOM      3  O   UNL     1       3.607  -0.834  28.710  0.00  0.00    -0.283 OA
ATOM      4  C   UNL     1       4.845   0.359  27.020  0.00  0.00    +0.109 A 
ATOM      5  C   UNL     1       6.143   0.405  26.526  0.00  0.00    +0.147 A 
ATOM      6  C   UNL     1       6.602   1.455  25.713  0.00  0.00    +0.093 A 
ATOM      7  C   UNL     1       5.744   2.478  25.316  0.00  0.00    +0.131 A 
ATOM      8  C   UNL     1       4.438   2.455  25.828  0.00  0.00    +0.092 A 
ATOM      9  O   UNL     1       7.026  -0.593  26.788  0.00  0.00    -0.451 OA
ATOM     10  C   UNL     1       4.009   1.418  26.694  0.00  0.00    +0.135 A 
ATOM     11  C   UNL     1       6.513  -1.855  27.029  0.00  0.00    +0.181 A 
ENDROOT
BRANCH  11  12
ATOM     12  C   UNL     1       7.482  -2.894  26.582  0.00  0.00    +0.025 A 
ATOM     13  C   UNL     1       7.256  -4.236  26.896  0.00  0.00    +0.015 A 
ATOM     14  C   UNL     1       8.157  -5.229  26.517  0.00  0.00    +0.050 A 
ATOM     15  C   UNL     1       9.178  -4.913  25.640  0.00  0.00    +0.158 A 
ATOM     16  C   UNL     1       9.309  -3.616  25.149  0.00  0.00    +0.159 A 
ATOM     17  C   UNL     1       8.517  -2.594  25.674  0.00  0.00    +0.060 A 
BRANCH  16  18
ATOM     18  O   UNL     1      10.065  -3.374  24.050  0.00  0.00    -0.503 OA
ATOM     19  H   UNL     1      10.969  -3.647  24.257  0.00  0.00    +0.292 HD
ENDBRANCH  16  18
BRANCH  15  20
ATOM     20  O   UNL     1       9.981  -5.915  25.189  0.00  0.00    -0.503 OA
ATOM     21  H   UNL     1       9.375  -6.519  24.723  0.00  0.00    +0.292 HD
ENDBRANCH  15  20
ENDBRANCH  11  12
BRANCH  10  22
ATOM     22  O   UNL     1       2.727   1.447  27.156  0.00  0.00    -0.506 OA
ATOM     23  H   UNL     1       2.744   1.524  28.123  0.00  0.00    +0.292 HD
ENDBRANCH  10  22
BRANCH   7  24
ATOM     24  O   UNL     1       6.055   3.491  24.424  0.00  0.00    -0.461 OA
BRANCH  24  25
ATOM     25  C   UNL     1       7.384   3.459  23.849  0.00  0.00    +0.339 C 
ATOM     26  O   UNL     1       8.300   4.198  24.656  0.00  0.00    -0.331 OA
ATOM     27  C   UNL     1       8.018   5.608  24.660  0.00  0.00    +0.179 C 
ATOM     28  C   UNL     1       8.194   6.223  23.255  0.00  0.00    +0.177 C 
ATOM     29  C   UNL     1       7.314   5.482  22.228  0.00  0.00    +0.180 C 
ATOM     30  C   UNL     1       7.464   3.959  22.379  0.00  0.00    +0.214 C 
BRANCH  29  31
ATOM     31  O   UNL     1       5.943   5.891  22.294  0.00  0.00    -0.386 OA
ATOM     32  H   UNL     1       5.510   5.768  21.435  0.00  0.00    +0.210 HD
ENDBRANCH  29  31
BRANCH  30  33
ATOM     33  O   UNL     1       6.591   3.238  21.504  0.00  0.00    -0.383 OA
ATOM     34  H   UNL     1       6.285   2.449  21.985  0.00  0.00    +0.210 HD
ENDBRANCH  30  33
BRANCH  28  35
ATOM     35  O   UNL     1       9.568   6.148  22.864  0.00  0.00    -0.386 OA
ATOM     36  H   UNL     1      10.118   6.156  23.669  0.00  0.00    +0.210 HD
ENDBRANCH  28  35
BRANCH  27  37
ATOM     37  C   UNL     1       8.938   6.268  25.697  0.00  0.00    +0.190 C 
BRANCH  37  38
ATOM     38  O   UNL     1       8.574   5.908  27.034  0.00  0.00    -0.392 OA
ATOM     39  H   UNL     1       7.649   6.161  27.184  0.00  0.00    +0.210 HD
ENDBRANCH  37  38
ENDBRANCH  27  37
ENDBRANCH  24  25
ENDBRANCH   7  24
BRANCH   1  40
ATOM     40  O   UNL     1       4.854  -3.335  27.988  0.00  0.00    -0.453 OA
BRANCH  40  43
ATOM     41  C   UNL     1       1.928  -4.684  25.915  0.00  0.00    +0.179 C 
ATOM     42  O   UNL     1       2.942  -3.773  26.463  0.00  0.00    -0.331 OA
ATOM     43  C   UNL     1       4.018  -4.299  27.278  0.00  0.00    +0.340 C 
ATOM     44  C   UNL     1       3.635  -5.461  28.226  0.00  0.00    +0.214 C 
ATOM     45  C   UNL     1       2.863  -6.509  27.420  0.00  0.00    +0.180 C 
ATOM     46  C   UNL     1       1.594  -5.890  26.814  0.00  0.00    +0.177 C 
BRANCH  46  47
ATOM     47  O   UNL     1       0.702  -5.466  27.859  0.00  0.00    -0.386 OA
ATOM     48  H   UNL     1      -0.170  -5.281  27.451  0.00  0.00    +0.210 HD
ENDBRANCH  46  47
BRANCH  45  49
ATOM     49  O   UNL     1       2.516  -7.622  28.253  0.00  0.00    -0.386 OA
ATOM     50  H   UNL     1       2.466  -7.254  29.159  0.00  0.00    +0.210 HD
ENDBRANCH  45  49
BRANCH  44  51
ATOM     51  O   UNL     1       2.832  -5.063  29.353  0.00  0.00    -0.383 OA
ATOM     52  H   UNL     1       2.176  -5.765  29.518  0.00  0.00    +0.210 HD
ENDBRANCH  44  51
BRANCH  41  53
ATOM     53  C   UNL     1       2.157  -5.129  24.426  0.00  0.00    +0.197 C 
BRANCH  53  54
ATOM     54  O   UNL     1       3.371  -5.878  24.131  0.00  0.00    -0.346 OA
BRANCH  54  58
ATOM     55  C   UNL     1       5.777  -2.270  23.480  0.00  0.00    +0.041 C 
ATOM     56  C   UNL     1       5.300  -3.260  22.421  0.00  0.00    +0.149 C 
ATOM     57  O   UNL     1       4.218  -4.059  22.930  0.00  0.00    -0.343 OA
ATOM     58  C   UNL     1       4.567  -5.108  23.841  0.00  0.00    +0.282 C 
ATOM     59  C   UNL     1       5.652  -6.033  23.176  0.00  0.00    +0.201 C 
ATOM     60  C   UNL     1       6.890  -5.187  22.801  0.00  0.00    +0.179 C 
ATOM     61  C   UNL     1       6.482  -4.062  21.843  0.00  0.00    +0.174 C 
BRANCH  61  62
ATOM     62  O   UNL     1       6.149  -4.622  20.561  0.00  0.00    -0.387 OA
ATOM     63  H   UNL     1       5.454  -5.301  20.721  0.00  0.00    +0.210 HD
ENDBRANCH  61  62
BRANCH  60  64
ATOM     64  O   UNL     1       7.928  -5.979  22.201  0.00  0.00    -0.386 OA
ATOM     65  H   UNL     1       7.550  -6.366  21.384  0.00  0.00    +0.210 HD
ENDBRANCH  60  64
BRANCH  59  66
ATOM     66  O   UNL     1       5.130  -6.628  21.969  0.00  0.00    -0.384 OA
ATOM     67  H   UNL     1       4.730  -5.891  21.466  0.00  0.00    +0.210 HD
ENDBRANCH  59  66
ENDBRANCH  54  58
ENDBRANCH  53  54
ENDBRANCH  41  53
ENDBRANCH  40  43
ENDBRANCH   1  40
TORSDOF 22
ENDMDL
MODEL 3
REMARK VINA RESULT:      -6.6      2.503      9.724
REMARK  Name = 
REMARK  23 active torsions:
REMARK  status: ('A' for Active; 'I' for Inactive)
REMARK    1  A    between atoms: C_1  and  C_2
REMARK    2  A    between atoms: C_3  and  O_62
REMARK    3  A    between atoms: C_5  and  O_61
REMARK    4  A    between atoms: C_7  and  O_60
REMARK    5  A    between atoms: C_8  and  O_11
REMARK    6  A    between atoms: O_11  and  C_12
REMARK    7  A    between atoms: C_12  and  C_13
REMARK    8  A    between atoms: C_14  and  O_59
REMARK    9  A    between atoms: C_16  and  O_58
REMARK   10  A    between atoms: C_17  and  O_57
REMARK   11  A    between atoms: C_18  and  O_21
REMARK   12  A    between atoms: O_21  and  C_22
REMARK   13  A    between atoms: C_23  and  C_49
REMARK   14  A    between atoms: C_27  and  O_34
REMARK   15  A    between atoms: C_29  and  O_33
REMARK   16  A    between atoms: O_34  and  C_35
REMARK   17  A    between atoms: C_37  and  O_48
REMARK   18  A    between atoms: C_38  and  O_47
REMARK   19  A    between atoms: C_40  and  O_46
REMARK   20  A    between atoms: C_42  and  C_44
REMARK   21  A    between atoms: C_44  and  O_45
REMARK   22  A    between atoms: C_51  and  O_56
REMARK   23  A    between atoms: C_52  and  O_55
REMARK                            x       y       z     vdW  Elec       q    Type
REMARK                         _______ _______ _______ _____ _____    ______ ____
ROOT
ATOM      1  C   UNL     1       7.477  -2.445  25.433  0.00  0.00    +0.214 A 
ATOM      2  C   UNL     1       7.862  -1.182  26.137  0.00  0.00    +0.238 A 
ATOM      3  O   UNL     1       8.446  -1.233  27.215  0.00  0.00    -0.283 OA
ATOM      4  C   UNL     1       7.521   0.091  25.425  0.00  0.00    +0.109 A 
ATOM      5  C   UNL     1       7.402   0.023  24.042  0.00  0.00    +0.147 A 
ATOM      6  C   UNL     1       7.054   1.138  23.261  0.00  0.00    +0.093 A 
ATOM      7  C   UNL     1       6.755   2.361  23.857  0.00  0.00    +0.131 A 
ATOM      8  C   UNL     1       6.894   2.447  25.250  0.00  0.00    +0.092 A 
ATOM      9  O   UNL     1       7.590  -1.148  23.381  0.00  0.00    -0.451 OA
ATOM     10  C   UNL     1       7.302   1.327  26.017  0.00  0.00    +0.135 A 
ATOM     11  C   UNL     1       7.335  -2.320  24.069  0.00  0.00    +0.181 A 
ENDROOT
BRANCH  11  12
ATOM     12  C   UNL     1       6.875  -3.377  23.126  0.00  0.00    +0.025 A 
ATOM     13  C   UNL     1       6.093  -3.031  22.022  0.00  0.00    +0.015 A 
ATOM     14  C   UNL     1       5.624  -3.999  21.136  0.00  0.00    +0.050 A 
ATOM     15  C   UNL     1       6.108  -5.290  21.230  0.00  0.00    +0.158 A 
ATOM     16  C   UNL     1       7.049  -5.620  22.203  0.00  0.00    +0.159 A 
ATOM     17  C   UNL     1       7.374  -4.694  23.195  0.00  0.00    +0.060 A 
BRANCH  16  18
ATOM     18  O   UNL     1       7.778  -6.757  22.093  0.00  0.00    -0.503 OA
ATOM     19  H   UNL     1       8.049  -7.013  22.985  0.00  0.00    +0.292 HD
ENDBRANCH  16  18
BRANCH  15  20
ATOM     20  O   UNL     1       5.729  -6.197  20.289  0.00  0.00    -0.503 OA
ATOM     21  H   UNL     1       4.788  -6.362  20.478  0.00  0.00    +0.292 HD
ENDBRANCH  15  20
ENDBRANCH  11  12
BRANCH  10  22
ATOM     22  O   UNL     1       7.416   1.471  27.367  0.00  0.00    -0.506 OA
ATOM     23  H   UNL     1       6.533   1.602  27.744  0.00  0.00    +0.292 HD
ENDBRANCH  10  22
BRANCH   7  24
ATOM     24  O   UNL     1       6.287   3.487  23.198  0.00  0.00    -0.461 OA
BRANCH  24  25
ATOM     25  C   UNL     1       7.188   4.097  22.244  0.00  0.00    +0.339 C 
ATOM     26  O   UNL     1       8.530   3.669  22.475  0.00  0.00    -0.331 OA
ATOM     27  C   UNL     1       9.056   4.153  23.723  0.00  0.00    +0.179 C 
ATOM     28  C   UNL     1       9.158   5.694  23.734  0.00  0.00    +0.177 C 
ATOM     29  C   UNL     1       7.787   6.327  23.424  0.00  0.00    +0.180 C 
ATOM     30  C   UNL     1       7.136   5.650  22.206  0.00  0.00    +0.214 C 
BRANCH  29  31
ATOM     31  O   UNL     1       6.918   6.323  24.562  0.00  0.00    -0.386 OA
ATOM     32  H   UNL     1       6.149   6.893  24.404  0.00  0.00    +0.210 HD
ENDBRANCH  29  31
BRANCH  30  33
ATOM     33  O   UNL     1       5.821   6.150  21.946  0.00  0.00    -0.383 OA
ATOM     34  H   UNL     1       5.868   7.123  21.985  0.00  0.00    +0.210 HD
ENDBRANCH  30  33
BRANCH  28  35
ATOM     35  O   UNL     1      10.123   6.120  22.767  0.00  0.00    -0.386 OA
ATOM     36  H   UNL     1      10.283   7.073  22.890  0.00  0.00    +0.210 HD
ENDBRANCH  28  35
BRANCH  27  37
ATOM     37  C   UNL     1      10.419   3.484  23.950  0.00  0.00    +0.190 C 
BRANCH  37  38
ATOM     38  O   UNL     1      11.263   3.599  22.800  0.00  0.00    -0.392 OA
ATOM     39  H   UNL     1      11.312   4.533  22.540  0.00  0.00    +0.210 HD
ENDBRANCH  37  38
ENDBRANCH  27  37
ENDBRANCH  24  25
ENDBRANCH   7  24
BRANCH   1  40
ATOM     40  O   UNL     1       7.396  -3.670  26.078  0.00  0.00    -0.453 OA
BRANCH  40  43
ATOM     41  C   UNL     1       4.524  -4.120  28.575  0.00  0.00    +0.179 C 
ATOM     42  O   UNL     1       5.531  -3.489  27.710  0.00  0.00    -0.331 OA
ATOM     43  C   UNL     1       6.251  -4.289  26.740  0.00  0.00    +0.340 C 
ATOM     44  C   UNL     1       6.618  -5.722  27.194  0.00  0.00    +0.214 C 
ATOM     45  C   UNL     1       5.364  -6.383  27.773  0.00  0.00    +0.180 C 
ATOM     46  C   UNL     1       4.838  -5.575  28.970  0.00  0.00    +0.177 C 
BRANCH  46  47
ATOM     47  O   UNL     1       5.807  -5.577  30.033  0.00  0.00    -0.386 OA
ATOM     48  H   UNL     1       6.432  -4.841  29.869  0.00  0.00    +0.210 HD
ENDBRANCH  46  47
BRANCH  45  49
ATOM     49  O   UNL     1       5.650  -7.727  28.176  0.00  0.00    -0.386 OA
ATOM     50  H   UNL     1       6.618  -7.746  28.327  0.00  0.00    +0.210 HD
ENDBRANCH  45  49
BRANCH  44  51
ATOM     51  O   UNL     1       7.667  -5.780  28.180  0.00  0.00    -0.383 OA
ATOM     52  H   UNL     1       8.521  -5.769  27.710  0.00  0.00    +0.210 HD
ENDBRANCH  44  51
BRANCH  41  53
ATOM     53  C   UNL     1       3.036  -3.966  28.098  0.00  0.00    +0.197 C 
BRANCH  53  54
ATOM     54  O   UNL     1       2.805  -3.790  26.671  0.00  0.00    -0.346 OA
BRANCH  54  58
ATOM     55  C   UNL     1       0.445  -7.466  26.290  0.00  0.00    +0.041 C 
ATOM     56  C   UNL     1       1.929  -7.290  25.978  0.00  0.00    +0.149 C 
ATOM     57  O   UNL     1       2.436  -6.098  26.603  0.00  0.00    -0.343 OA
ATOM     58  C   UNL     1       2.095  -4.852  25.982  0.00  0.00    +0.282 C 
ATOM     59  C   UNL     1       2.525  -4.891  24.470  0.00  0.00    +0.201 C 
ATOM     60  C   UNL     1       1.823  -6.074  23.765  0.00  0.00    +0.179 C 
ATOM     61  C   UNL     1       2.189  -7.389  24.463  0.00  0.00    +0.174 C 
BRANCH  61  62
ATOM     62  O   UNL     1       3.566  -7.705  24.195  0.00  0.00    -0.387 OA
ATOM     63  H   UNL     1       4.058  -6.852  24.198  0.00  0.00    +0.210 HD
ENDBRANCH  61  62
BRANCH  60  64
ATOM     64  O   UNL     1       2.163  -6.156  22.371  0.00  0.00    -0.386 OA
ATOM     65  H   UNL     1       1.816  -5.343  21.949  0.00  0.00    +0.210 HD
ENDBRANCH  60  64
BRANCH  59  66
ATOM     66  O   UNL     1       3.951  -5.084  24.360  0.00  0.00    -0.384 OA
ATOM     67  H   UNL     1       4.245  -4.469  23.658  0.00  0.00    +0.210 HD
ENDBRANCH  59  66
ENDBRANCH  54  58
ENDBRANCH  53  54
ENDBRANCH  41  53
ENDBRANCH  40  43
ENDBRANCH   1  40
TORSDOF 22
ENDMDL
MODEL 4
REMARK VINA RESULT:      -6.6      1.277      2.107
REMARK  Name = 
REMARK  23 active torsions:
REMARK  status: ('A' for Active; 'I' for Inactive)
REMARK    1  A    between atoms: C_1  and  C_2
REMARK    2  A    between atoms: C_3  and  O_62
REMARK    3  A    between atoms: C_5  and  O_61
REMARK    4  A    between atoms: C_7  and  O_60
REMARK    5  A    between atoms: C_8  and  O_11
REMARK    6  A    between atoms: O_11  and  C_12
REMARK    7  A    between atoms: C_12  and  C_13
REMARK    8  A    between atoms: C_14  and  O_59
REMARK    9  A    between atoms: C_16  and  O_58
REMARK   10  A    between atoms: C_17  and  O_57
REMARK   11  A    between atoms: C_18  and  O_21
REMARK   12  A    between atoms: O_21  and  C_22
REMARK   13  A    between atoms: C_23  and  C_49
REMARK   14  A    between atoms: C_27  and  O_34
REMARK   15  A    between atoms: C_29  and  O_33
REMARK   16  A    between atoms: O_34  and  C_35
REMARK   17  A    between atoms: C_37  and  O_48
REMARK   18  A    between atoms: C_38  and  O_47
REMARK   19  A    between atoms: C_40  and  O_46
REMARK   20  A    between atoms: C_42  and  C_44
REMARK   21  A    between atoms: C_44  and  O_45
REMARK   22  A    between atoms: C_51  and  O_56
REMARK   23  A    between atoms: C_52  and  O_55
REMARK                            x       y       z     vdW  Elec       q    Type
REMARK                         _______ _______ _______ _____ _____    ______ ____
ROOT
ATOM      1  C   UNL     1       5.660   2.695  25.980  0.00  0.00    +0.214 A 
ATOM      2  C   UNL     1       6.350   1.716  26.878  0.00  0.00    +0.238 A 
ATOM      3  O   UNL     1       7.266   2.088  27.604  0.00  0.00    -0.283 OA
ATOM      4  C   UNL     1       5.823   0.314  26.840  0.00  0.00    +0.109 A 
ATOM      5  C   UNL     1       4.500   0.153  26.449  0.00  0.00    +0.147 A 
ATOM      6  C   UNL     1       3.896  -1.112  26.341  0.00  0.00    +0.093 A 
ATOM      7  C   UNL     1       4.629  -2.274  26.570  0.00  0.00    +0.131 A 
ATOM      8  C   UNL     1       5.960  -2.122  26.988  0.00  0.00    +0.092 A 
ATOM      9  O   UNL     1       3.732   1.223  26.121  0.00  0.00    -0.451 OA
ATOM     10  C   UNL     1       6.535  -0.837  27.147  0.00  0.00    +0.135 A 
ATOM     11  C   UNL     1       4.374   2.347  25.634  0.00  0.00    +0.181 A 
ENDROOT
BRANCH  11  12
ATOM     12  C   UNL     1       3.483   3.076  24.689  0.00  0.00    +0.025 A 
ATOM     13  C   UNL     1       2.511   3.948  25.183  0.00  0.00    +0.015 A 
ATOM     14  C   UNL     1       1.643   4.624  24.328  0.00  0.00    +0.050 A 
ATOM     15  C   UNL     1       1.880   4.594  22.967  0.00  0.00    +0.158 A 
ATOM     16  C   UNL     1       2.968   3.890  22.457  0.00  0.00    +0.159 A 
ATOM     17  C   UNL     1       3.721   3.072  23.300  0.00  0.00    +0.060 A 
BRANCH  16  18
ATOM     18  O   UNL     1       3.409   4.130  21.197  0.00  0.00    -0.503 OA
ATOM     19  H   UNL     1       3.349   5.084  21.048  0.00  0.00    +0.292 HD
ENDBRANCH  16  18
BRANCH  15  20
ATOM     20  O   UNL     1       1.093   5.350  22.153  0.00  0.00    -0.503 OA
ATOM     21  H   UNL     1       1.012   4.823  21.338  0.00  0.00    +0.292 HD
ENDBRANCH  15  20
ENDBRANCH  11  12
BRANCH  10  22
ATOM     22  O   UNL     1       7.834  -0.752  27.552  0.00  0.00    -0.506 OA
ATOM     23  H   UNL     1       8.296  -0.110  26.992  0.00  0.00    +0.292 HD
ENDBRANCH  10  22
BRANCH   7  24
ATOM     24  O   UNL     1       4.171  -3.568  26.377  0.00  0.00    -0.461 OA
BRANCH  24  25
ATOM     25  C   UNL     1       3.505  -3.835  25.119  0.00  0.00    +0.339 C 
ATOM     26  O   UNL     1       2.669  -4.987  25.227  0.00  0.00    -0.331 OA
ATOM     27  C   UNL     1       3.421  -6.197  25.422  0.00  0.00    +0.179 C 
ATOM     28  C   UNL     1       4.315  -6.510  24.203  0.00  0.00    +0.177 C 
ATOM     29  C   UNL     1       5.246  -5.319  23.897  0.00  0.00    +0.180 C 
ATOM     30  C   UNL     1       4.460  -3.997  23.904  0.00  0.00    +0.214 C 
BRANCH  29  31
ATOM     31  O   UNL     1       6.373  -5.273  24.780  0.00  0.00    -0.386 OA
ATOM     32  H   UNL     1       6.897  -4.473  24.618  0.00  0.00    +0.210 HD
ENDBRANCH  29  31
BRANCH  30  33
ATOM     33  O   UNL     1       5.310  -2.861  23.715  0.00  0.00    -0.383 OA
ATOM     34  H   UNL     1       4.850  -2.253  23.109  0.00  0.00    +0.210 HD
ENDBRANCH  30  33
BRANCH  28  35
ATOM     35  O   UNL     1       3.495  -6.794  23.065  0.00  0.00    -0.386 OA
ATOM     36  H   UNL     1       2.580  -6.928  23.370  0.00  0.00    +0.210 HD
ENDBRANCH  28  35
BRANCH  27  37
ATOM     37  C   UNL     1       2.423  -7.329  25.710  0.00  0.00    +0.190 C 
BRANCH  37  38
ATOM     38  O   UNL     1       2.938  -8.603  25.311  0.00  0.00    -0.392 OA
ATOM     39  H   UNL     1       2.200  -9.159  25.012  0.00  0.00    +0.210 HD
ENDBRANCH  37  38
ENDBRANCH  27  37
ENDBRANCH  24  25
ENDBRANCH   7  24
BRANCH   1  40
ATOM     40  O   UNL     1       6.219   3.915  25.630  0.00  0.00    -0.453 OA
BRANCH  40  43
ATOM     41  C   UNL     1       9.662   4.729  24.159  0.00  0.00    +0.179 C 
ATOM     42  O   UNL     1       8.618   4.217  25.057  0.00  0.00    -0.331 OA
ATOM     43  C   UNL     1       7.236   4.207  24.623  0.00  0.00    +0.340 C 
ATOM     44  C   UNL     1       6.794   5.419  23.767  0.00  0.00    +0.214 C 
ATOM     45  C   UNL     1       7.820   5.622  22.649  0.00  0.00    +0.180 C 
ATOM     46  C   UNL     1       9.213   5.883  23.244  0.00  0.00    +0.177 C 
BRANCH  46  47
ATOM     47  O   UNL     1       9.209   7.108  23.997  0.00  0.00    -0.386 OA
ATOM     48  H   UNL     1       8.290   7.273  24.295  0.00  0.00    +0.210 HD
ENDBRANCH  46  47
BRANCH  45  49
ATOM     49  O   UNL     1       7.432   6.715  21.809  0.00  0.00    -0.386 OA
ATOM     50  H   UNL     1       8.041   7.445  22.045  0.00  0.00    +0.210 HD
ENDBRANCH  45  49
BRANCH  44  51
ATOM     51  O   UNL     1       6.666   6.649  24.505  0.00  0.00    -0.383 OA
ATOM     52  H   UNL     1       7.301   6.622  25.245  0.00  0.00    +0.210 HD
ENDBRANCH  44  51
BRANCH  41  53
ATOM     53  C   UNL     1      10.452   3.636  23.354  0.00  0.00    +0.197 C 
BRANCH  53  54
ATOM     54  O   UNL     1      10.871   2.443  24.078  0.00  0.00    -0.346 OA
BRANCH  54  58
ATOM     55  C   UNL     1       9.432  -0.375  21.042  0.00  0.00    +0.041 C 
ATOM     56  C   UNL     1       8.632   0.216  22.200  0.00  0.00    +0.149 C 
ATOM     57  O   UNL     1       9.288   1.385  22.719  0.00  0.00    -0.343 OA
ATOM     58  C   UNL     1      10.438   1.164  23.545  0.00  0.00    +0.282 C 
ATOM     59  C   UNL     1      10.051   0.196  24.724  0.00  0.00    +0.201 C 
ATOM     60  C   UNL     1       9.518  -1.133  24.145  0.00  0.00    +0.179 C 
ATOM     61  C   UNL     1       8.303  -0.863  23.250  0.00  0.00    +0.174 C 
BRANCH  61  62
ATOM     62  O   UNL     1       7.187  -0.467  24.066  0.00  0.00    -0.387 OA
ATOM     63  H   UNL     1       6.388  -0.511  23.494  0.00  0.00    +0.210 HD
ENDBRANCH  61  62
BRANCH  60  64
ATOM     64  O   UNL     1       9.161  -2.070  25.175  0.00  0.00    -0.386 OA
ATOM     65  H   UNL     1       8.542  -2.712  24.768  0.00  0.00    +0.210 HD
ENDBRANCH  60  64
BRANCH  59  66
ATOM     66  O   UNL     1       9.011   0.784  25.533  0.00  0.00    -0.384 OA
ATOM     67  H   UNL     1       9.458   1.106  26.341  0.00  0.00    +0.210 HD
ENDBRANCH  59  66
ENDBRANCH  54  58
ENDBRANCH  53  54
ENDBRANCH  41  53
ENDBRANCH  40  43
ENDBRANCH   1  40
TORSDOF 22
ENDMDL
MODEL 5
REMARK VINA RESULT:      -6.5      2.371      9.481
REMARK  Name = 
REMARK  23 active torsions:
REMARK  status: ('A' for Active; 'I' for Inactive)
REMARK    1  A    between atoms: C_1  and  C_2
REMARK    2  A    between atoms: C_3  and  O_62
REMARK    3  A    between atoms: C_5  and  O_61
REMARK    4  A    between atoms: C_7  and  O_60
REMARK    5  A    between atoms: C_8  and  O_11
REMARK    6  A    between atoms: O_11  and  C_12
REMARK    7  A    between atoms: C_12  and  C_13
REMARK    8  A    between atoms: C_14  and  O_59
REMARK    9  A    between atoms: C_16  and  O_58
REMARK   10  A    between atoms: C_17  and  O_57
REMARK   11  A    between atoms: C_18  and  O_21
REMARK   12  A    between atoms: O_21  and  C_22
REMARK   13  A    between atoms: C_23  and  C_49
REMARK   14  A    between atoms: C_27  and  O_34
REMARK   15  A    between atoms: C_29  and  O_33
REMARK   16  A    between atoms: O_34  and  C_35
REMARK   17  A    between atoms: C_37  and  O_48
REMARK   18  A    between atoms: C_38  and  O_47
REMARK   19  A    between atoms: C_40  and  O_46
REMARK   20  A    between atoms: C_42  and  C_44
REMARK   21  A    between atoms: C_44  and  O_45
REMARK   22  A    between atoms: C_51  and  O_56
REMARK   23  A    between atoms: C_52  and  O_55
REMARK                            x       y       z     vdW  Elec       q    Type
REMARK                         _______ _______ _______ _____ _____    ______ ____
ROOT
ATOM      1  C   UNL     1       7.414  -2.223  25.751  0.00  0.00    +0.214 A 
ATOM      2  C   UNL     1       7.844  -0.949  26.408  0.00  0.00    +0.238 A 
ATOM      3  O   UNL     1       8.452  -0.981  27.474  0.00  0.00    -0.283 OA
ATOM      4  C   UNL     1       7.515   0.310  25.666  0.00  0.00    +0.109 A 
ATOM      5  C   UNL     1       7.362   0.204  24.289  0.00  0.00    +0.147 A 
ATOM      6  C   UNL     1       7.021   1.304  23.483  0.00  0.00    +0.093 A 
ATOM      7  C   UNL     1       6.763   2.551  24.049  0.00  0.00    +0.131 A 
ATOM      8  C   UNL     1       6.938   2.674  25.436  0.00  0.00    +0.092 A 
ATOM      9  O   UNL     1       7.508  -0.989  23.659  0.00  0.00    -0.451 OA
ATOM     10  C   UNL     1       7.338   1.568  26.226  0.00  0.00    +0.135 A 
ATOM     11  C   UNL     1       7.243  -2.135  24.387  0.00  0.00    +0.181 A 
ENDROOT
BRANCH  11  12
ATOM     12  C   UNL     1       6.738  -3.208  23.487  0.00  0.00    +0.025 A 
ATOM     13  C   UNL     1       7.629  -4.130  22.936  0.00  0.00    +0.015 A 
ATOM     14  C   UNL     1       7.193  -5.129  22.068  0.00  0.00    +0.050 A 
ATOM     15  C   UNL     1       5.836  -5.341  21.913  0.00  0.00    +0.158 A 
ATOM     16  C   UNL     1       4.917  -4.560  22.610  0.00  0.00    +0.159 A 
ATOM     17  C   UNL     1       5.358  -3.450  23.332  0.00  0.00    +0.060 A 
BRANCH  16  18
ATOM     18  O   UNL     1       3.631  -4.969  22.740  0.00  0.00    -0.503 OA
ATOM     19  H   UNL     1       3.596  -5.572  23.496  0.00  0.00    +0.292 HD
ENDBRANCH  16  18
BRANCH  15  20
ATOM     20  O   UNL     1       5.425  -6.392  21.152  0.00  0.00    -0.503 OA
ATOM     21  H   UNL     1       4.456  -6.394  21.246  0.00  0.00    +0.292 HD
ENDBRANCH  15  20
ENDBRANCH  11  12
BRANCH  10  22
ATOM     22  O   UNL     1       7.487   1.748  27.568  0.00  0.00    -0.506 OA
ATOM     23  H   UNL     1       8.434   1.771  27.778  0.00  0.00    +0.292 HD
ENDBRANCH  10  22
BRANCH   7  24
ATOM     24  O   UNL     1       6.305   3.667  23.368  0.00  0.00    -0.461 OA
BRANCH  24  25
ATOM     25  C   UNL     1       7.193   4.221  22.368  0.00  0.00    +0.339 C 
ATOM     26  O   UNL     1       8.540   3.815  22.610  0.00  0.00    -0.331 OA
ATOM     27  C   UNL     1       9.076   4.378  23.820  0.00  0.00    +0.179 C 
ATOM     28  C   UNL     1       9.170   5.917  23.735  0.00  0.00    +0.177 C 
ATOM     29  C   UNL     1       7.792   6.523  23.401  0.00  0.00    +0.180 C 
ATOM     30  C   UNL     1       7.131   5.769  22.235  0.00  0.00    +0.214 C 
BRANCH  29  31
ATOM     31  O   UNL     1       6.936   6.585  24.548  0.00  0.00    -0.386 OA
ATOM     32  H   UNL     1       6.187   7.179  24.380  0.00  0.00    +0.210 HD
ENDBRANCH  29  31
BRANCH  30  33
ATOM     33  O   UNL     1       5.811   6.246  21.959  0.00  0.00    -0.383 OA
ATOM     34  H   UNL     1       5.248   5.466  21.805  0.00  0.00    +0.210 HD
ENDBRANCH  30  33
BRANCH  28  35
ATOM     35  O   UNL     1      10.122   6.287  22.733  0.00  0.00    -0.386 OA
ATOM     36  H   UNL     1      10.275   7.247  22.792  0.00  0.00    +0.210 HD
ENDBRANCH  28  35
BRANCH  27  37
ATOM     37  C   UNL     1      10.445   3.731  24.073  0.00  0.00    +0.190 C 
BRANCH  37  38
ATOM     38  O   UNL     1      11.258   3.733  22.894  0.00  0.00    -0.392 OA
ATOM     39  H   UNL     1      11.180   2.868  22.460  0.00  0.00    +0.210 HD
ENDBRANCH  37  38
ENDBRANCH  27  37
ENDBRANCH  24  25
ENDBRANCH   7  24
BRANCH   1  40
ATOM     40  O   UNL     1       7.321  -3.426  26.434  0.00  0.00    -0.453 OA
BRANCH  40  43
ATOM     41  C   UNL     1       4.989  -4.946  29.068  0.00  0.00    +0.179 C 
ATOM     42  O   UNL     1       6.020  -4.109  28.438  0.00  0.00    -0.331 OA
ATOM     43  C   UNL     1       6.141  -4.078  26.995  0.00  0.00    +0.340 C 
ATOM     44  C   UNL     1       5.892  -5.424  26.272  0.00  0.00    +0.214 C 
ATOM     45  C   UNL     1       4.584  -6.022  26.798  0.00  0.00    +0.180 C 
ATOM     46  C   UNL     1       4.674  -6.252  28.315  0.00  0.00    +0.177 C 
BRANCH  46  47
ATOM     47  O   UNL     1       5.693  -7.223  28.610  0.00  0.00    -0.386 OA
ATOM     48  H   UNL     1       5.251  -8.022  28.966  0.00  0.00    +0.210 HD
ENDBRANCH  46  47
BRANCH  45  49
ATOM     49  O   UNL     1       4.296  -7.256  26.131  0.00  0.00    -0.386 OA
ATOM     50  H   UNL     1       3.328  -7.374  26.222  0.00  0.00    +0.210 HD
ENDBRANCH  45  49
BRANCH  44  51
ATOM     51  O   UNL     1       6.945  -6.392  26.447  0.00  0.00    -0.383 OA
ATOM     52  H   UNL     1       7.583  -6.277  25.719  0.00  0.00    +0.210 HD
ENDBRANCH  44  51
BRANCH  41  53
ATOM     53  C   UNL     1       3.674  -4.194  29.481  0.00  0.00    +0.197 C 
BRANCH  53  54
ATOM     54  O   UNL     1       3.818  -2.888  30.109  0.00  0.00    -0.346 OA
BRANCH  54  58
ATOM     55  C   UNL     1       0.754  -0.806  27.762  0.00  0.00    +0.041 C 
ATOM     56  C   UNL     1       2.155  -1.198  27.302  0.00  0.00    +0.149 C 
ATOM     57  O   UNL     1       2.706  -2.205  28.168  0.00  0.00    -0.343 OA
ATOM     58  C   UNL     1       3.182  -1.763  29.445  0.00  0.00    +0.282 C 
ATOM     59  C   UNL     1       4.225  -0.604  29.237  0.00  0.00    +0.201 C 
ATOM     60  C   UNL     1       3.560   0.554  28.461  0.00  0.00    +0.179 C 
ATOM     61  C   UNL     1       3.042   0.048  27.110  0.00  0.00    +0.174 C 
BRANCH  61  62
ATOM     62  O   UNL     1       4.156  -0.239  26.248  0.00  0.00    -0.387 OA
ATOM     63  H   UNL     1       3.993   0.243  25.405  0.00  0.00    +0.210 HD
ENDBRANCH  61  62
BRANCH  60  64
ATOM     64  O   UNL     1       4.459   1.656  28.251  0.00  0.00    -0.386 OA
ATOM     65  H   UNL     1       5.102   1.638  28.990  0.00  0.00    +0.210 HD
ENDBRANCH  60  64
BRANCH  59  66
ATOM     66  O   UNL     1       5.350  -1.076  28.465  0.00  0.00    -0.384 OA
ATOM     67  H   UNL     1       4.993  -1.776  27.883  0.00  0.00    +0.210 HD
ENDBRANCH  59  66
ENDBRANCH  54  58
ENDBRANCH  53  54
ENDBRANCH  41  53
ENDBRANCH  40  43
ENDBRANCH   1  40
TORSDOF 22
ENDMDL
MODEL 6
REMARK VINA RESULT:      -6.4      2.268      5.083
REMARK  Name = 
REMARK  23 active torsions:
REMARK  status: ('A' for Active; 'I' for Inactive)
REMARK    1  A    between atoms: C_1  and  C_2
REMARK    2  A    between atoms: C_3  and  O_62
REMARK    3  A    between atoms: C_5  and  O_61
REMARK    4  A    between atoms: C_7  and  O_60
REMARK    5  A    between atoms: C_8  and  O_11
REMARK    6  A    between atoms: O_11  and  C_12
REMARK    7  A    between atoms: C_12  and  C_13
REMARK    8  A    between atoms: C_14  and  O_59
REMARK    9  A    between atoms: C_16  and  O_58
REMARK   10  A    between atoms: C_17  and  O_57
REMARK   11  A    between atoms: C_18  and  O_21
REMARK   12  A    between atoms: O_21  and  C_22
REMARK   13  A    between atoms: C_23  and  C_49
REMARK   14  A    between atoms: C_27  and  O_34
REMARK   15  A    between atoms: C_29  and  O_33
REMARK   16  A    between atoms: O_34  and  C_35
REMARK   17  A    between atoms: C_37  and  O_48
REMARK   18  A    between atoms: C_38  and  O_47
REMARK   19  A    between atoms: C_40  and  O_46
REMARK   20  A    between atoms: C_42  and  C_44
REMARK   21  A    between atoms: C_44  and  O_45
REMARK   22  A    between atoms: C_51  and  O_56
REMARK   23  A    between atoms: C_52  and  O_55
REMARK                            x       y       z     vdW  Elec       q    Type
REMARK                         _______ _______ _______ _____ _____    ______ ____
ROOT
ATOM      1  C   UNL     1       6.479   1.147  26.972  0.00  0.00    +0.214 A 
ATOM      2  C   UNL     1       5.381   0.333  27.581  0.00  0.00    +0.238 A 
ATOM      3  O   UNL     1       4.785   0.747  28.571  0.00  0.00    -0.283 OA
ATOM      4  C   UNL     1       5.062  -0.955  26.886  0.00  0.00    +0.109 A 
ATOM      5  C   UNL     1       5.377  -1.032  25.534  0.00  0.00    +0.147 A 
ATOM      6  C   UNL     1       5.158  -2.196  24.776  0.00  0.00    +0.093 A 
ATOM      7  C   UNL     1       4.663  -3.353  25.373  0.00  0.00    +0.131 A 
ATOM      8  C   UNL     1       4.320  -3.279  26.731  0.00  0.00    +0.092 A 
ATOM      9  O   UNL     1       5.944   0.018  24.887  0.00  0.00    -0.451 OA
ATOM     10  C   UNL     1       4.494  -2.080  27.467  0.00  0.00    +0.135 A 
ATOM     11  C   UNL     1       6.705   0.897  25.637  0.00  0.00    +0.181 A 
ENDROOT
BRANCH  11  12
ATOM     12  C   UNL     1       7.783   1.485  24.795  0.00  0.00    +0.025 A 
ATOM     13  C   UNL     1       9.089   1.002  24.900  0.00  0.00    +0.015 A 
ATOM     14  C   UNL     1      10.126   1.550  24.148  0.00  0.00    +0.050 A 
ATOM     15  C   UNL     1       9.825   2.439  23.133  0.00  0.00    +0.158 A 
ATOM     16  C   UNL     1       8.502   2.788  22.872  0.00  0.00    +0.159 A 
ATOM     17  C   UNL     1       7.492   2.378  23.743  0.00  0.00    +0.060 A 
BRANCH  16  18
ATOM     18  O   UNL     1       8.167   3.365  21.692  0.00  0.00    -0.503 OA
ATOM     19  H   UNL     1       8.987   3.521  21.204  0.00  0.00    +0.292 HD
ENDBRANCH  16  18
BRANCH  15  20
ATOM     20  O   UNL     1      10.834   2.878  22.332  0.00  0.00    -0.503 OA
ATOM     21  H   UNL     1      10.381   3.321  21.593  0.00  0.00    +0.292 HD
ENDBRANCH  15  20
ENDBRANCH  11  12
BRANCH  10  22
ATOM     22  O   UNL     1       4.147  -2.070  28.784  0.00  0.00    -0.506 OA
ATOM     23  H   UNL     1       3.679  -2.894  28.992  0.00  0.00    +0.292 HD
ENDBRANCH  10  22
BRANCH   7  24
ATOM     24  O   UNL     1       4.523  -4.584  24.752  0.00  0.00    -0.461 OA
BRANCH  24  25
ATOM     25  C   UNL     1       5.614  -5.520  24.925  0.00  0.00    +0.339 C 
ATOM     26  O   UNL     1       6.871  -4.853  24.821  0.00  0.00    -0.331 OA
ATOM     27  C   UNL     1       7.123  -4.352  23.496  0.00  0.00    +0.179 C 
ATOM     28  C   UNL     1       7.235  -5.501  22.470  0.00  0.00    +0.177 C 
ATOM     29  C   UNL     1       5.968  -6.379  22.503  0.00  0.00    +0.180 C 
ATOM     30  C   UNL     1       5.586  -6.732  23.951  0.00  0.00    +0.214 C 
BRANCH  29  31
ATOM     31  O   UNL     1       4.877  -5.782  21.795  0.00  0.00    -0.386 OA
ATOM     32  H   UNL     1       5.144  -5.554  20.890  0.00  0.00    +0.210 HD
ENDBRANCH  29  31
BRANCH  30  33
ATOM     33  O   UNL     1       4.362  -7.469  24.024  0.00  0.00    -0.383 OA
ATOM     34  H   UNL     1       4.516  -8.330  23.595  0.00  0.00    +0.210 HD
ENDBRANCH  30  33
BRANCH  28  35
ATOM     35  O   UNL     1       8.389  -6.296  22.762  0.00  0.00    -0.386 OA
ATOM     36  H   UNL     1       8.155  -6.934  23.461  0.00  0.00    +0.210 HD
ENDBRANCH  28  35
BRANCH  27  37
ATOM     37  C   UNL     1       8.400  -3.501  23.550  0.00  0.00    +0.190 C 
BRANCH  37  38
ATOM     38  O   UNL     1       9.410  -4.112  24.360  0.00  0.00    -0.392 OA
ATOM     39  H   UNL     1       9.108  -4.998  24.620  0.00  0.00    +0.210 HD
ENDBRANCH  37  38
ENDBRANCH  27  37
ENDBRANCH  24  25
ENDBRANCH   7  24
BRANCH   1  40
ATOM     40  O   UNL     1       7.129   2.163  27.656  0.00  0.00    -0.453 OA
BRANCH  40  43
ATOM     41  C   UNL     1       7.598   5.925  27.099  0.00  0.00    +0.179 C 
ATOM     42  O   UNL     1       7.698   4.469  26.926  0.00  0.00    -0.331 OA
ATOM     43  C   UNL     1       6.830   3.592  27.686  0.00  0.00    +0.340 C 
ATOM     44  C   UNL     1       6.533   4.036  29.138  0.00  0.00    +0.214 C 
ATOM     45  C   UNL     1       6.107   5.507  29.118  0.00  0.00    +0.180 C 
ATOM     46  C   UNL     1       7.224   6.379  28.522  0.00  0.00    +0.177 C 
BRANCH  46  47
ATOM     47  O   UNL     1       8.394   6.323  29.357  0.00  0.00    -0.386 OA
ATOM     48  H   UNL     1       8.511   5.395  29.648  0.00  0.00    +0.210 HD
ENDBRANCH  46  47
BRANCH  45  49
ATOM     49  O   UNL     1       5.789   5.952  30.441  0.00  0.00    -0.386 OA
ATOM     50  H   UNL     1       6.640   6.259  30.817  0.00  0.00    +0.210 HD
ENDBRANCH  45  49
BRANCH  44  51
ATOM     51  O   UNL     1       7.647   3.892  30.040  0.00  0.00    -0.383 OA
ATOM     52  H   UNL     1       7.523   3.065  30.542  0.00  0.00    +0.210 HD
ENDBRANCH  44  51
BRANCH  41  53
ATOM     53  C   UNL     1       6.739   6.673  26.018  0.00  0.00    +0.197 C 
BRANCH  53  54
ATOM     54  O   UNL     1       6.483   5.974  24.765  0.00  0.00    -0.346 OA
BRANCH  54  58
ATOM     55  C   UNL     1       2.670   3.981  25.613  0.00  0.00    +0.041 C 
ATOM     56  C   UNL     1       3.743   3.530  24.625  0.00  0.00    +0.149 C 
ATOM     57  O   UNL     1       4.995   4.176  24.913  0.00  0.00    -0.343 OA
ATOM     58  C   UNL     1       5.118   5.547  24.517  0.00  0.00    +0.282 C 
ATOM     59  C   UNL     1       4.787   5.676  22.984  0.00  0.00    +0.201 C 
ATOM     60  C   UNL     1       3.360   5.145  22.719  0.00  0.00    +0.179 C 
ATOM     61  C   UNL     1       3.253   3.685  23.172  0.00  0.00    +0.174 C 
BRANCH  61  62
ATOM     62  O   UNL     1       4.013   2.851  22.280  0.00  0.00    -0.387 OA
ATOM     63  H   UNL     1       4.194   2.012  22.762  0.00  0.00    +0.210 HD
ENDBRANCH  61  62
BRANCH  60  64
ATOM     64  O   UNL     1       2.990   5.249  21.334  0.00  0.00    -0.386 OA
ATOM     65  H   UNL     1       2.033   5.045  21.283  0.00  0.00    +0.210 HD
ENDBRANCH  60  64
BRANCH  59  66
ATOM     66  O   UNL     1       5.712   4.888  22.205  0.00  0.00    -0.384 OA
ATOM     67  H   UNL     1       6.139   4.280  22.841  0.00  0.00    +0.210 HD
ENDBRANCH  59  66
ENDBRANCH  54  58
ENDBRANCH  53  54
ENDBRANCH  41  53
ENDBRANCH  40  43
ENDBRANCH   1  40
TORSDOF 22
ENDMDL
MODEL 7
REMARK VINA RESULT:      -6.1      2.262      5.813
REMARK  Name = 
REMARK  23 active torsions:
REMARK  status: ('A' for Active; 'I' for Inactive)
REMARK    1  A    between atoms: C_1  and  C_2
REMARK    2  A    between atoms: C_3  and  O_62
REMARK    3  A    between atoms: C_5  and  O_61
REMARK    4  A    between atoms: C_7  and  O_60
REMARK    5  A    between atoms: C_8  and  O_11
REMARK    6  A    between atoms: O_11  and  C_12
REMARK    7  A    between atoms: C_12  and  C_13
REMARK    8  A    between atoms: C_14  and  O_59
REMARK    9  A    between atoms: C_16  and  O_58
REMARK   10  A    between atoms: C_17  and  O_57
REMARK   11  A    between atoms: C_18  and  O_21
REMARK   12  A    between atoms: O_21  and  C_22
REMARK   13  A    between atoms: C_23  and  C_49
REMARK   14  A    between atoms: C_27  and  O_34
REMARK   15  A    between atoms: C_29  and  O_33
REMARK   16  A    between atoms: O_34  and  C_35
REMARK   17  A    between atoms: C_37  and  O_48
REMARK   18  A    between atoms: C_38  and  O_47
REMARK   19  A    between atoms: C_40  and  O_46
REMARK   20  A    between atoms: C_42  and  C_44
REMARK   21  A    between atoms: C_44  and  O_45
REMARK   22  A    between atoms: C_51  and  O_56
REMARK   23  A    between atoms: C_52  and  O_55
REMARK                            x       y       z     vdW  Elec       q    Type
REMARK                         _______ _______ _______ _____ _____    ______ ____
ROOT
ATOM      1  C   UNL     1       8.263  -1.182  25.687  0.00  0.00    +0.214 A 
ATOM      2  C   UNL     1       8.694  -2.430  24.984  0.00  0.00    +0.238 A 
ATOM      3  O   UNL     1       9.784  -2.475  24.422  0.00  0.00    -0.283 OA
ATOM      4  C   UNL     1       7.738  -3.581  25.056  0.00  0.00    +0.109 A 
ATOM      5  C   UNL     1       6.867  -3.606  26.138  0.00  0.00    +0.147 A 
ATOM      6  C   UNL     1       5.900  -4.613  26.303  0.00  0.00    +0.093 A 
ATOM      7  C   UNL     1       5.737  -5.610  25.344  0.00  0.00    +0.131 A 
ATOM      8  C   UNL     1       6.627  -5.608  24.259  0.00  0.00    +0.092 A 
ATOM      9  O   UNL     1       6.893  -2.628  27.079  0.00  0.00    -0.451 OA
ATOM     10  C   UNL     1       7.633  -4.617  24.138  0.00  0.00    +0.135 A 
ATOM     11  C   UNL     1       7.342  -1.378  26.692  0.00  0.00    +0.181 A 
ENDROOT
BRANCH  11  12
ATOM     12  C   UNL     1       6.670  -0.321  27.497  0.00  0.00    +0.025 A 
ATOM     13  C   UNL     1       5.383  -0.538  27.994  0.00  0.00    +0.015 A 
ATOM     14  C   UNL     1       4.716   0.441  28.728  0.00  0.00    +0.050 A 
ATOM     15  C   UNL     1       5.412   1.559  29.148  0.00  0.00    +0.158 A 
ATOM     16  C   UNL     1       6.761   1.708  28.834  0.00  0.00    +0.159 A 
ATOM     17  C   UNL     1       7.369   0.816  27.950  0.00  0.00    +0.060 A 
BRANCH  16  18
ATOM     18  O   UNL     1       7.527   2.596  29.513  0.00  0.00    -0.503 OA
ATOM     19  H   UNL     1       8.059   3.075  28.862  0.00  0.00    +0.292 HD
ENDBRANCH  16  18
BRANCH  15  20
ATOM     20  O   UNL     1       4.780   2.451  29.958  0.00  0.00    -0.503 OA
ATOM     21  H   UNL     1       5.494   3.029  30.284  0.00  0.00    +0.292 HD
ENDBRANCH  15  20
ENDBRANCH  11  12
BRANCH  10  22
ATOM     22  O   UNL     1       8.465  -4.665  23.060  0.00  0.00    -0.506 OA
ATOM     23  H   UNL     1       8.204  -3.974  22.431  0.00  0.00    +0.292 HD
ENDBRANCH  10  22
BRANCH   7  24
ATOM     24  O   UNL     1       4.744  -6.575  25.345  0.00  0.00    -0.461 OA
BRANCH  24  25
ATOM     25  C   UNL     1       3.383  -6.100  25.476  0.00  0.00    +0.339 C 
ATOM     26  O   UNL     1       2.479  -7.194  25.629  0.00  0.00    -0.331 OA
ATOM     27  C   UNL     1       2.391  -8.006  24.446  0.00  0.00    +0.179 C 
ATOM     28  C   UNL     1       1.803  -7.213  23.258  0.00  0.00    +0.177 C 
ATOM     29  C   UNL     1       2.631  -5.938  22.999  0.00  0.00    +0.180 C 
ATOM     30  C   UNL     1       2.902  -5.186  24.314  0.00  0.00    +0.214 C 
BRANCH  29  31
ATOM     31  O   UNL     1       3.841  -6.214  22.285  0.00  0.00    -0.386 OA
ATOM     32  H   UNL     1       4.366  -5.404  22.183  0.00  0.00    +0.210 HD
ENDBRANCH  29  31
BRANCH  30  33
ATOM     33  O   UNL     1       3.746  -4.047  24.123  0.00  0.00    -0.383 OA
ATOM     34  H   UNL     1       3.332  -3.299  24.590  0.00  0.00    +0.210 HD
ENDBRANCH  30  33
BRANCH  28  35
ATOM     35  O   UNL     1       0.444  -6.864  23.538  0.00  0.00    -0.386 OA
ATOM     36  H   UNL     1      -0.066  -6.923  22.710  0.00  0.00    +0.210 HD
ENDBRANCH  28  35
BRANCH  27  37
ATOM     37  C   UNL     1       1.548  -9.243  24.786  0.00  0.00    +0.190 C 
BRANCH  37  38
ATOM     38  O   UNL     1       2.329 -10.258  25.425  0.00  0.00    -0.392 OA
ATOM     39  H   UNL     1       2.170 -10.218  26.382  0.00  0.00    +0.210 HD
ENDBRANCH  37  38
ENDBRANCH  27  37
ENDBRANCH  24  25
ENDBRANCH   7  24
BRANCH   1  40
ATOM     40  O   UNL     1       8.837   0.056  25.439  0.00  0.00    -0.453 OA
BRANCH  40  43
ATOM     41  C   UNL     1       7.184   1.522  22.308  0.00  0.00    +0.179 C 
ATOM     42  O   UNL     1       7.386   0.762  23.550  0.00  0.00    -0.331 OA
ATOM     43  C   UNL     1       8.568   0.995  24.353  0.00  0.00    +0.340 C 
ATOM     44  C   UNL     1       9.871   1.272  23.564  0.00  0.00    +0.214 C 
ATOM     45  C   UNL     1       9.581   2.348  22.514  0.00  0.00    +0.180 C 
ATOM     46  C   UNL     1       8.479   1.874  21.553  0.00  0.00    +0.177 C 
BRANCH  46  47
ATOM     47  O   UNL     1       8.924   0.721  20.818  0.00  0.00    -0.386 OA
ATOM     48  H   UNL     1       9.835   0.901  20.503  0.00  0.00    +0.210 HD
ENDBRANCH  46  47
BRANCH  45  49
ATOM     49  O   UNL     1      10.771   2.662  21.780  0.00  0.00    -0.386 OA
ATOM     50  H   UNL     1      11.305   3.214  22.388  0.00  0.00    +0.210 HD
ENDBRANCH  45  49
BRANCH  44  51
ATOM     51  O   UNL     1      10.417   0.116  22.902  0.00  0.00    -0.383 OA
ATOM     52  H   UNL     1      11.318  -0.030  23.246  0.00  0.00    +0.210 HD
ENDBRANCH  44  51
BRANCH  41  53
ATOM     53  C   UNL     1       6.237   2.769  22.430  0.00  0.00    +0.197 C 
BRANCH  53  54
ATOM     54  O   UNL     1       5.037   2.622  23.243  0.00  0.00    -0.346 OA
BRANCH  54  58
ATOM     55  C   UNL     1       5.111   6.791  24.603  0.00  0.00    +0.041 C 
ATOM     56  C   UNL     1       5.429   5.549  25.430  0.00  0.00    +0.149 C 
ATOM     57  O   UNL     1       5.704   4.428  24.571  0.00  0.00    -0.343 OA
ATOM     58  C   UNL     1       4.574   3.802  23.952  0.00  0.00    +0.282 C 
ATOM     59  C   UNL     1       3.538   3.388  25.061  0.00  0.00    +0.201 C 
ATOM     60  C   UNL     1       3.111   4.640  25.860  0.00  0.00    +0.179 C 
ATOM     61  C   UNL     1       4.341   5.300  26.493  0.00  0.00    +0.174 C 
BRANCH  61  62
ATOM     62  O   UNL     1       4.837   4.467  27.555  0.00  0.00    -0.387 OA
ATOM     63  H   UNL     1       4.554   3.547  27.349  0.00  0.00    +0.210 HD
ENDBRANCH  61  62
BRANCH  60  64
ATOM     64  O   UNL     1       2.149   4.330  26.883  0.00  0.00    -0.386 OA
ATOM     65  H   UNL     1       2.644   4.282  27.727  0.00  0.00    +0.210 HD
ENDBRANCH  60  64
BRANCH  59  66
ATOM     66  O   UNL     1       4.137   2.450  25.980  0.00  0.00    -0.384 OA
ATOM     67  H   UNL     1       5.101   2.518  25.832  0.00  0.00    +0.210 HD
ENDBRANCH  59  66
ENDBRANCH  54  58
ENDBRANCH  53  54
ENDBRANCH  41  53
ENDBRANCH  40  43
ENDBRANCH   1  40
TORSDOF 22
ENDMDL
MODEL 8
REMARK VINA RESULT:      -6.1      2.607      9.801
REMARK  Name = 
REMARK  23 active torsions:
REMARK  status: ('A' for Active; 'I' for Inactive)
REMARK    1  A    between atoms: C_1  and  C_2
REMARK    2  A    between atoms: C_3  and  O_62
REMARK    3  A    between atoms: C_5  and  O_61
REMARK    4  A    between atoms: C_7  and  O_60
REMARK    5  A    between atoms: C_8  and  O_11
REMARK    6  A    between atoms: O_11  and  C_12
REMARK    7  A    between atoms: C_12  and  C_13
REMARK    8  A    between atoms: C_14  and  O_59
REMARK    9  A    between atoms: C_16  and  O_58
REMARK   10  A    between atoms: C_17  and  O_57
REMARK   11  A    between atoms: C_18  and  O_21
REMARK   12  A    between atoms: O_21  and  C_22
REMARK   13  A    between atoms: C_23  and  C_49
REMARK   14  A    between atoms: C_27  and  O_34
REMARK   15  A    between atoms: C_29  and  O_33
REMARK   16  A    between atoms: O_34  and  C_35
REMARK   17  A    between atoms: C_37  and  O_48
REMARK   18  A    between atoms: C_38  and  O_47
REMARK   19  A    between atoms: C_40  and  O_46
REMARK   20  A    between atoms: C_42  and  C_44
REMARK   21  A    between atoms: C_44  and  O_45
REMARK   22  A    between atoms: C_51  and  O_56
REMARK   23  A    between atoms: C_52  and  O_55
REMARK                            x       y       z     vdW  Elec       q    Type
REMARK                         _______ _______ _______ _____ _____    ______ ____
ROOT
ATOM      1  C   UNL     1       5.371  -2.132  27.284  0.00  0.00    +0.214 A 
ATOM      2  C   UNL     1       4.672  -0.882  27.717  0.00  0.00    +0.238 A 
ATOM      3  O   UNL     1       3.883  -0.912  28.657  0.00  0.00    -0.283 OA
ATOM      4  C   UNL     1       5.030   0.360  26.960  0.00  0.00    +0.109 A 
ATOM      5  C   UNL     1       6.280   0.385  26.353  0.00  0.00    +0.147 A 
ATOM      6  C   UNL     1       6.722   1.478  25.587  0.00  0.00    +0.093 A 
ATOM      7  C   UNL     1       5.891   2.571  25.356  0.00  0.00    +0.131 A 
ATOM      8  C   UNL     1       4.636   2.567  25.984  0.00  0.00    +0.092 A 
ATOM      9  O   UNL     1       7.126  -0.672  26.449  0.00  0.00    -0.451 OA
ATOM     10  C   UNL     1       4.229   1.482  26.800  0.00  0.00    +0.135 A 
ATOM     11  C   UNL     1       6.567  -1.924  26.635  0.00  0.00    +0.181 A 
ENDROOT
BRANCH  11  12
ATOM     12  C   UNL     1       7.433  -2.966  26.017  0.00  0.00    +0.025 A 
ATOM     13  C   UNL     1       8.368  -3.647  26.799  0.00  0.00    +0.015 A 
ATOM     14  C   UNL     1       9.212  -4.608  26.245  0.00  0.00    +0.050 A 
ATOM     15  C   UNL     1       8.982  -5.043  24.954  0.00  0.00    +0.158 A 
ATOM     16  C   UNL     1       7.924  -4.521  24.213  0.00  0.00    +0.159 A 
ATOM     17  C   UNL     1       7.201  -3.435  24.708  0.00  0.00    +0.060 A 
BRANCH  16  18
ATOM     18  O   UNL     1       7.479  -5.167  23.107  0.00  0.00    -0.503 OA
ATOM     19  H   UNL     1       6.792  -4.614  22.708  0.00  0.00    +0.292 HD
ENDBRANCH  16  18
BRANCH  15  20
ATOM     20  O   UNL     1       9.741  -6.062  24.466  0.00  0.00    -0.503 OA
ATOM     21  H   UNL     1       9.208  -6.860  24.631  0.00  0.00    +0.292 HD
ENDBRANCH  15  20
ENDBRANCH  11  12
BRANCH  10  22
ATOM     22  O   UNL     1       2.997   1.533  27.380  0.00  0.00    -0.506 OA
ATOM     23  H   UNL     1       2.381   0.995  26.858  0.00  0.00    +0.292 HD
ENDBRANCH  10  22
BRANCH   7  24
ATOM     24  O   UNL     1       6.177   3.641  24.524  0.00  0.00    -0.461 OA
BRANCH  24  25
ATOM     25  C   UNL     1       7.471   3.624  23.874  0.00  0.00    +0.339 C 
ATOM     26  O   UNL     1       8.405   4.429  24.593  0.00  0.00    -0.331 OA
ATOM     27  C   UNL     1       8.076   5.828  24.551  0.00  0.00    +0.179 C 
ATOM     28  C   UNL     1       8.150   6.383  23.112  0.00  0.00    +0.177 C 
ATOM     29  C   UNL     1       7.239   5.567  22.172  0.00  0.00    +0.180 C 
ATOM     30  C   UNL     1       7.451   4.058  22.382  0.00  0.00    +0.214 C 
BRANCH  29  31
ATOM     31  O   UNL     1       5.861   5.935  22.300  0.00  0.00    -0.386 OA
ATOM     32  H   UNL     1       5.779   6.790  22.751  0.00  0.00    +0.210 HD
ENDBRANCH  29  31
BRANCH  30  33
ATOM     33  O   UNL     1       6.555   3.271  21.591  0.00  0.00    -0.383 OA
ATOM     34  H   UNL     1       5.744   3.140  22.115  0.00  0.00    +0.210 HD
ENDBRANCH  30  33
BRANCH  28  35
ATOM     35  O   UNL     1       9.502   6.335  22.646  0.00  0.00    -0.386 OA
ATOM     36  H   UNL     1       9.662   5.456  22.255  0.00  0.00    +0.210 HD
ENDBRANCH  28  35
BRANCH  27  37
ATOM     37  C   UNL     1       9.029   6.565  25.502  0.00  0.00    +0.190 C 
BRANCH  37  38
ATOM     38  O   UNL     1      10.399   6.264  25.217  0.00  0.00    -0.392 OA
ATOM     39  H   UNL     1      10.927   7.071  25.330  0.00  0.00    +0.210 HD
ENDBRANCH  37  38
ENDBRANCH  27  37
ENDBRANCH  24  25
ENDBRANCH   7  24
BRANCH   1  40
ATOM     40  O   UNL     1       4.921  -3.399  27.622  0.00  0.00    -0.453 OA
BRANCH  40  43
ATOM     41  C   UNL     1       1.109  -3.455  27.231  0.00  0.00    +0.179 C 
ATOM     42  O   UNL     1       2.527  -3.140  27.007  0.00  0.00    -0.331 OA
ATOM     43  C   UNL     1       3.551  -3.902  27.692  0.00  0.00    +0.340 C 
ATOM     44  C   UNL     1       3.219  -4.317  29.145  0.00  0.00    +0.214 C 
ATOM     45  C   UNL     1       1.824  -4.949  29.162  0.00  0.00    +0.180 C 
ATOM     46  C   UNL     1       0.777  -3.946  28.652  0.00  0.00    +0.177 C 
BRANCH  46  47
ATOM     47  O   UNL     1       0.703  -2.815  29.537  0.00  0.00    -0.386 OA
ATOM     48  H   UNL     1       0.443  -2.035  29.004  0.00  0.00    +0.210 HD
ENDBRANCH  46  47
BRANCH  45  49
ATOM     49  O   UNL     1       1.487  -5.381  30.485  0.00  0.00    -0.386 OA
ATOM     50  H   UNL     1       1.510  -4.567  31.030  0.00  0.00    +0.210 HD
ENDBRANCH  45  49
BRANCH  44  51
ATOM     51  O   UNL     1       3.243  -3.231  30.091  0.00  0.00    -0.383 OA
ATOM     52  H   UNL     1       2.748  -2.485  29.704  0.00  0.00    +0.210 HD
ENDBRANCH  44  51
BRANCH  41  53
ATOM     53  C   UNL     1       0.443  -4.368  26.141  0.00  0.00    +0.197 C 
BRANCH  53  54
ATOM     54  O   UNL     1       0.963  -4.278  24.783  0.00  0.00    -0.346 OA
BRANCH  54  58
ATOM     55  C   UNL     1       2.144  -8.493  24.524  0.00  0.00    +0.041 C 
ATOM     56  C   UNL     1       2.966  -7.342  25.098  0.00  0.00    +0.149 C 
ATOM     57  O   UNL     1       2.120  -6.217  25.392  0.00  0.00    -0.343 OA
ATOM     58  C   UNL     1       1.684  -5.432  24.276  0.00  0.00    +0.282 C 
ATOM     59  C   UNL     1       2.938  -4.960  23.452  0.00  0.00    +0.201 C 
ATOM     60  C   UNL     1       3.741  -6.194  22.984  0.00  0.00    +0.179 C 
ATOM     61  C   UNL     1       4.175  -7.025  24.196  0.00  0.00    +0.174 C 
BRANCH  61  62
ATOM     62  O   UNL     1       5.190  -6.314  24.925  0.00  0.00    -0.387 OA
ATOM     63  H   UNL     1       5.250  -6.735  25.812  0.00  0.00    +0.210 HD
ENDBRANCH  61  62
BRANCH  60  64
ATOM     64  O   UNL     1       4.896  -5.830  22.209  0.00  0.00    -0.386 OA
ATOM     65  H   UNL     1       4.817  -6.296  21.351  0.00  0.00    +0.210 HD
ENDBRANCH  60  64
BRANCH  59  66
ATOM     66  O   UNL     1       3.802  -4.148  24.276  0.00  0.00    -0.384 OA
ATOM     67  H   UNL     1       4.247  -4.772  24.883  0.00  0.00    +0.210 HD
ENDBRANCH  59  66
ENDBRANCH  54  58
ENDBRANCH  53  54
ENDBRANCH  41  53
ENDBRANCH  40  43
ENDBRANCH   1  40
TORSDOF 22
ENDMDL
MODEL 9
REMARK VINA RESULT:      -6.1      2.417      5.403
REMARK  Name = 
REMARK  23 active torsions:
REMARK  status: ('A' for Active; 'I' for Inactive)
REMARK    1  A    between atoms: C_1  and  C_2
REMARK    2  A    between atoms: C_3  and  O_62
REMARK    3  A    between atoms: C_5  and  O_61
REMARK    4  A    between atoms: C_7  and  O_60
REMARK    5  A    between atoms: C_8  and  O_11
REMARK    6  A    between atoms: O_11  and  C_12
REMARK    7  A    between atoms: C_12  and  C_13
REMARK    8  A    between atoms: C_14  and  O_59
REMARK    9  A    between atoms: C_16  and  O_58
REMARK   10  A    between atoms: C_17  and  O_57
REMARK   11  A    between atoms: C_18  and  O_21
REMARK   12  A    between atoms: O_21  and  C_22
REMARK   13  A    between atoms: C_23  and  C_49
REMARK   14  A    between atoms: C_27  and  O_34
REMARK   15  A    between atoms: C_29  and  O_33
REMARK   16  A    between atoms: O_34  and  C_35
REMARK   17  A    between atoms: C_37  and  O_48
REMARK   18  A    between atoms: C_38  and  O_47
REMARK   19  A    between atoms: C_40  and  O_46
REMARK   20  A    between atoms: C_42  and  C_44
REMARK   21  A    between atoms: C_44  and  O_45
REMARK   22  A    between atoms: C_51  and  O_56
REMARK   23  A    between atoms: C_52  and  O_55
REMARK                            x       y       z     vdW  Elec       q    Type
REMARK                         _______ _______ _______ _____ _____    ______ ____
ROOT
ATOM      1  C   UNL     1       6.391   1.082  26.867  0.00  0.00    +0.214 A 
ATOM      2  C   UNL     1       5.334   0.423  27.697  0.00  0.00    +0.238 A 
ATOM      3  O   UNL     1       4.875   0.999  28.678  0.00  0.00    -0.283 OA
ATOM      4  C   UNL     1       4.882  -0.924  27.224  0.00  0.00    +0.109 A 
ATOM      5  C   UNL     1       5.036  -1.198  25.871  0.00  0.00    +0.147 A 
ATOM      6  C   UNL     1       4.681  -2.436  25.308  0.00  0.00    +0.093 A 
ATOM      7  C   UNL     1       4.206  -3.473  26.108  0.00  0.00    +0.131 A 
ATOM      8  C   UNL     1       4.024  -3.200  27.472  0.00  0.00    +0.092 A 
ATOM      9  O   UNL     1       5.572  -0.279  25.028  0.00  0.00    -0.451 OA
ATOM     10  C   UNL     1       4.333  -1.927  28.012  0.00  0.00    +0.135 A 
ATOM     11  C   UNL     1       6.452   0.644  25.563  0.00  0.00    +0.181 A 
ENDROOT
BRANCH  11  12
ATOM     12  C   UNL     1       7.453   1.051  24.538  0.00  0.00    +0.025 A 
ATOM     13  C   UNL     1       8.278   0.089  23.952  0.00  0.00    +0.015 A 
ATOM     14  C   UNL     1       9.243   0.440  23.010  0.00  0.00    +0.050 A 
ATOM     15  C   UNL     1       9.246   1.723  22.495  0.00  0.00    +0.158 A 
ATOM     16  C   UNL     1       8.300   2.654  22.918  0.00  0.00    +0.159 A 
ATOM     17  C   UNL     1       7.458   2.349  23.988  0.00  0.00    +0.060 A 
BRANCH  16  18
ATOM     18  O   UNL     1       8.070   3.775  22.191  0.00  0.00    -0.503 OA
ATOM     19  H   UNL     1       7.675   3.498  21.352  0.00  0.00    +0.292 HD
ENDBRANCH  16  18
BRANCH  15  20
ATOM     20  O   UNL     1      10.119   2.019  21.494  0.00  0.00    -0.503 OA
ATOM     21  H   UNL     1      10.461   2.902  21.725  0.00  0.00    +0.292 HD
ENDBRANCH  15  20
ENDBRANCH  11  12
BRANCH  10  22
ATOM     22  O   UNL     1       4.139  -1.722  29.345  0.00  0.00    -0.506 OA
ATOM     23  H   UNL     1       3.305  -2.142  29.609  0.00  0.00    +0.292 HD
ENDBRANCH  10  22
BRANCH   7  24
ATOM     24  O   UNL     1       3.941  -4.765  25.682  0.00  0.00    -0.461 OA
BRANCH  24  25
ATOM     25  C   UNL     1       2.637  -4.996  25.098  0.00  0.00    +0.339 C 
ATOM     26  O   UNL     1       1.779  -5.655  26.029  0.00  0.00    -0.331 OA
ATOM     27  C   UNL     1       2.209  -6.995  26.323  0.00  0.00    +0.179 C 
ATOM     28  C   UNL     1       2.147  -7.897  25.071  0.00  0.00    +0.177 C 
ATOM     29  C   UNL     1       2.976  -7.284  23.924  0.00  0.00    +0.180 C 
ATOM     30  C   UNL     1       2.659  -5.788  23.760  0.00  0.00    +0.214 C 
BRANCH  29  31
ATOM     31  O   UNL     1       4.379  -7.516  24.087  0.00  0.00    -0.386 OA
ATOM     32  H   UNL     1       4.773  -7.815  23.252  0.00  0.00    +0.210 HD
ENDBRANCH  29  31
BRANCH  30  33
ATOM     33  O   UNL     1       3.478  -5.166  22.766  0.00  0.00    -0.383 OA
ATOM     34  H   UNL     1       2.903  -4.954  22.008  0.00  0.00    +0.210 HD
ENDBRANCH  30  33
BRANCH  28  35
ATOM     35  O   UNL     1       0.786  -8.055  24.659  0.00  0.00    -0.386 OA
ATOM     36  H   UNL     1       0.628  -7.482  23.887  0.00  0.00    +0.210 HD
ENDBRANCH  28  35
BRANCH  27  37
ATOM     37  C   UNL     1       1.331  -7.532  27.463  0.00  0.00    +0.190 C 
BRANCH  37  38
ATOM     38  O   UNL     1       1.253  -8.961  27.443  0.00  0.00    -0.392 OA
ATOM     39  H   UNL     1       1.137  -9.280  28.353  0.00  0.00    +0.210 HD
ENDBRANCH  37  38
ENDBRANCH  27  37
ENDBRANCH  24  25
ENDBRANCH   7  24
BRANCH   1  40
ATOM     40  O   UNL     1       7.160   2.139  27.332  0.00  0.00    -0.453 OA
BRANCH  40  43
ATOM     41  C   UNL     1       7.788   5.851  26.620  0.00  0.00    +0.179 C 
ATOM     42  O   UNL     1       7.866   4.386  26.540  0.00  0.00    -0.331 OA
ATOM     43  C   UNL     1       6.899   3.574  27.250  0.00  0.00    +0.340 C 
ATOM     44  C   UNL     1       6.464   4.108  28.636  0.00  0.00    +0.214 C 
ATOM     45  C   UNL     1       6.083   5.584  28.488  0.00  0.00    +0.180 C 
ATOM     46  C   UNL     1       7.280   6.395  27.968  0.00  0.00    +0.177 C 
BRANCH  46  47
ATOM     47  O   UNL     1       8.354   6.363  28.924  0.00  0.00    -0.386 OA
ATOM     48  H   UNL     1       9.195   6.461  28.433  0.00  0.00    +0.210 HD
ENDBRANCH  46  47
BRANCH  45  49
ATOM     49  O   UNL     1       5.640   6.112  29.744  0.00  0.00    -0.386 OA
ATOM     50  H   UNL     1       6.224   6.880  29.916  0.00  0.00    +0.210 HD
ENDBRANCH  45  49
BRANCH  44  51
ATOM     51  O   UNL     1       7.473   3.992  29.657  0.00  0.00    -0.383 OA
ATOM     52  H   UNL     1       7.107   4.359  30.484  0.00  0.00    +0.210 HD
ENDBRANCH  44  51
BRANCH  41  53
ATOM     53  C   UNL     1       7.069   6.554  25.414  0.00  0.00    +0.197 C 
BRANCH  53  54
ATOM     54  O   UNL     1       6.587   5.703  24.334  0.00  0.00    -0.346 OA
BRANCH  54  58
ATOM     55  C   UNL     1       2.478   4.794  25.568  0.00  0.00    +0.041 C 
ATOM     56  C   UNL     1       3.359   3.973  24.630  0.00  0.00    +0.149 C 
ATOM     57  O   UNL     1       4.740   4.341  24.786  0.00  0.00    -0.343 OA
ATOM     58  C   UNL     1       5.148   5.577  24.187  0.00  0.00    +0.282 C 
ATOM     59  C   UNL     1       4.764   5.566  22.662  0.00  0.00    +0.201 C 
ATOM     60  C   UNL     1       3.240   5.353  22.516  0.00  0.00    +0.179 C 
ATOM     61  C   UNL     1       2.831   4.035  23.183  0.00  0.00    +0.174 C 
BRANCH  61  62
ATOM     62  O   UNL     1       3.326   2.931  22.405  0.00  0.00    -0.387 OA
ATOM     63  H   UNL     1       2.664   2.207  22.489  0.00  0.00    +0.210 HD
ENDBRANCH  61  62
BRANCH  60  64
ATOM     64  O   UNL     1       2.821   5.348  21.141  0.00  0.00    -0.386 OA
ATOM     65  H   UNL     1       2.953   6.258  20.804  0.00  0.00    +0.210 HD
ENDBRANCH  60  64
BRANCH  59  66
ATOM     66  O   UNL     1       5.437   4.483  21.985  0.00  0.00    -0.384 OA
ATOM     67  H   UNL     1       5.581   3.797  22.667  0.00  0.00    +0.210 HD
ENDBRANCH  59  66
ENDBRANCH  54  58
ENDBRANCH  53  54
ENDBRANCH  41  53
ENDBRANCH  40  43
ENDBRANCH   1  40
TORSDOF 22
ENDMDL
