MODEL 1
REMARK VINA RESULT:      -7.4      0.000      0.000
REMARK  Name = 
REMARK  17 active torsions:
REMARK  status: ('A' for Active; 'I' for Inactive)
REMARK    1  A    between atoms: C_1  and  O_2
REMARK    2  A    between atoms: O_2  and  C_3
REMARK    3  A    between atoms: C_4  and  O_48
REMARK    4  A    between atoms: C_7  and  C_9
REMARK    5  A    between atoms: C_10  and  O_22
REMARK    6  A    between atoms: C_14  and  O_21
REMARK    7  A    between atoms: C_16  and  O_20
REMARK    8  A    between atoms: O_22  and  C_23
REMARK    9  A    between atoms: C_25  and  O_47
REMARK   10  A    between atoms: C_26  and  O_46
REMARK   11  A    between atoms: C_27  and  O_45
REMARK   12  A    between atoms: C_29  and  C_31
REMARK   13  A    between atoms: C_31  and  O_32
REMARK   14  A    between atoms: O_32  and  C_33
REMARK   15  A    between atoms: C_35  and  O_44
REMARK   16  A    between atoms: C_36  and  O_43
REMARK   17  A    between atoms: C_38  and  O_42
REMARK                            x       y       z     vdW  Elec       q    Type
REMARK                         _______ _______ _______ _____ _____    ______ ____
ROOT
ATOM      1  O   UNL     1       7.054   1.636  24.954  0.00  0.00    -0.453 OA
ENDROOT
BRANCH   1  12
ATOM      2  C   UNL     1       9.177   1.554  23.837  0.00  0.00    +0.181 A 
ATOM      3  O   UNL     1      10.377   2.065  23.358  0.00  0.00    -0.451 OA
ATOM      4  C   UNL     1      10.669   3.383  23.572  0.00  0.00    +0.147 A 
ATOM      5  C   UNL     1       9.713   4.291  23.994  0.00  0.00    +0.109 A 
ATOM      6  C   UNL     1      10.054   5.651  24.055  0.00  0.00    +0.135 A 
ATOM      7  C   UNL     1      11.352   6.079  23.762  0.00  0.00    +0.091 A 
ATOM      8  C   UNL     1      12.314   5.139  23.413  0.00  0.00    +0.124 A 
ATOM      9  C   UNL     1       8.381   3.771  24.376  0.00  0.00    +0.238 A 
ATOM     10  O   UNL     1       7.500   4.586  24.624  0.00  0.00    -0.283 OA
ATOM     11  C   UNL     1      11.980   3.794  23.304  0.00  0.00    +0.092 A 
ATOM     12  C   UNL     1       8.183   2.282  24.429  0.00  0.00    +0.214 A 
BRANCH   2  15
ATOM     13  C   UNL     1       8.113  -1.890  22.766  0.00  0.00    +0.162 A 
ATOM     14  C   UNL     1       8.284  -0.510  22.808  0.00  0.00    +0.061 A 
ATOM     15  C   UNL     1       9.187   0.077  23.698  0.00  0.00    +0.025 A 
ATOM     16  C   UNL     1       9.940  -0.750  24.553  0.00  0.00    +0.015 A 
ATOM     17  C   UNL     1       9.802  -2.140  24.497  0.00  0.00    +0.050 A 
ATOM     18  C   UNL     1       8.885  -2.692  23.611  0.00  0.00    +0.158 A 
BRANCH  18  19
ATOM     19  O   UNL     1       8.725  -4.051  23.597  0.00  0.00    -0.503 OA
ATOM     20  H   UNL     1       7.996  -4.214  22.967  0.00  0.00    +0.292 HD
ENDBRANCH  18  19
BRANCH  13  22
ATOM     21  C   UNL     1       5.871  -2.656  22.530  0.00  0.00    +0.277 C 
ATOM     22  O   UNL     1       7.188  -2.552  22.004  0.00  0.00    -0.491 OA
ENDBRANCH  13  22
ENDBRANCH   2  15
BRANCH   8  23
ATOM     23  O   UNL     1      13.605   5.496  23.158  0.00  0.00    -0.507 OA
ATOM     24  H   UNL     1      13.675   6.466  23.159  0.00  0.00    +0.292 HD
ENDBRANCH   8  23
BRANCH   6  25
ATOM     25  O   UNL     1       9.161   6.631  24.394  0.00  0.00    -0.506 OA
ATOM     26  H   UNL     1       8.470   6.228  24.967  0.00  0.00    +0.292 HD
ENDBRANCH   6  25
ENDBRANCH   1  12
BRANCH   1  27
ATOM     27  C   UNL     1       6.892   1.388  26.379  0.00  0.00    +0.340 C 
ATOM     28  O   UNL     1       7.281   0.055  26.792  0.00  0.00    -0.331 OA
ATOM     29  C   UNL     1       6.495  -1.029  26.272  0.00  0.00    +0.179 C 
ATOM     30  C   UNL     1       4.973  -0.832  26.394  0.00  0.00    +0.177 C 
ATOM     31  C   UNL     1       4.492   0.610  26.146  0.00  0.00    +0.180 C 
ATOM     32  C   UNL     1       5.426   1.631  26.809  0.00  0.00    +0.214 C 
BRANCH  32  33
ATOM     33  O   UNL     1       5.010   2.976  26.537  0.00  0.00    -0.383 OA
ATOM     34  H   UNL     1       4.868   3.066  25.580  0.00  0.00    +0.210 HD
ENDBRANCH  32  33
BRANCH  31  35
ATOM     35  O   UNL     1       3.160   0.779  26.678  0.00  0.00    -0.386 OA
ATOM     36  H   UNL     1       2.992   0.128  27.381  0.00  0.00    +0.210 HD
ENDBRANCH  31  35
BRANCH  30  37
ATOM     37  O   UNL     1       4.306  -1.737  25.497  0.00  0.00    -0.386 OA
ATOM     38  H   UNL     1       4.663  -1.633  24.598  0.00  0.00    +0.210 HD
ENDBRANCH  30  37
BRANCH  29  39
ATOM     39  C   UNL     1       7.076  -2.414  26.798  0.00  0.00    +0.197 C 
BRANCH  39  40
ATOM     40  O   UNL     1       6.206  -3.535  27.130  0.00  0.00    -0.346 OA
BRANCH  40  41
ATOM     41  C   UNL     1       6.896  -4.803  27.134  0.00  0.00    +0.281 C 
ATOM     42  O   UNL     1       6.892  -5.307  25.802  0.00  0.00    -0.346 OA
ATOM     43  C   UNL     1       5.549  -5.542  25.363  0.00  0.00    +0.197 C 
ATOM     44  C   UNL     1       4.970  -6.756  26.060  0.00  0.00    +0.171 C 
ATOM     45  C   UNL     1       5.024  -6.584  27.582  0.00  0.00    +0.178 C 
ATOM     46  C   UNL     1       6.337  -5.936  28.066  0.00  0.00    +0.201 C 
BRANCH  46  47
ATOM     47  O   UNL     1       6.239  -5.544  29.437  0.00  0.00    -0.384 OA
ATOM     48  H   UNL     1       6.742  -4.712  29.535  0.00  0.00    +0.210 HD
ENDBRANCH  46  47
BRANCH  45  49
ATOM     49  O   UNL     1       3.882  -5.833  28.043  0.00  0.00    -0.386 OA
ATOM     50  H   UNL     1       4.091  -4.881  27.906  0.00  0.00    +0.210 HD
ENDBRANCH  45  49
BRANCH  44  51
ATOM     51  O   UNL     1       3.631  -6.972  25.617  0.00  0.00    -0.387 OA
ATOM     52  H   UNL     1       3.142  -7.345  26.377  0.00  0.00    +0.210 HD
ENDBRANCH  44  51
ENDBRANCH  40  41
ENDBRANCH  39  40
ENDBRANCH  29  39
ENDBRANCH   1  27
TORSDOF 16
ENDMDL
MODEL 2
REMARK VINA RESULT:      -7.2      2.420      7.169
REMARK  Name = 
REMARK  17 active torsions:
REMARK  status: ('A' for Active; 'I' for Inactive)
REMARK    1  A    between atoms: C_1  and  O_2
REMARK    2  A    between atoms: O_2  and  C_3
REMARK    3  A    between atoms: C_4  and  O_48
REMARK    4  A    between atoms: C_7  and  C_9
REMARK    5  A    between atoms: C_10  and  O_22
REMARK    6  A    between atoms: C_14  and  O_21
REMARK    7  A    between atoms: C_16  and  O_20
REMARK    8  A    between atoms: O_22  and  C_23
REMARK    9  A    between atoms: C_25  and  O_47
REMARK   10  A    between atoms: C_26  and  O_46
REMARK   11  A    between atoms: C_27  and  O_45
REMARK   12  A    between atoms: C_29  and  C_31
REMARK   13  A    between atoms: C_31  and  O_32
REMARK   14  A    between atoms: O_32  and  C_33
REMARK   15  A    between atoms: C_35  and  O_44
REMARK   16  A    between atoms: C_36  and  O_43
REMARK   17  A    between atoms: C_38  and  O_42
REMARK                            x       y       z     vdW  Elec       q    Type
REMARK                         _______ _______ _______ _____ _____    ______ ____
ROOT
ATOM      1  O   UNL     1       7.160  -2.538  26.569  0.00  0.00    -0.453 OA
ENDROOT
BRANCH   1  12
ATOM      2  C   UNL     1       5.155  -1.346  26.000  0.00  0.00    +0.181 A 
ATOM      3  O   UNL     1       4.342  -0.228  25.863  0.00  0.00    -0.451 OA
ATOM      4  C   UNL     1       4.831   0.996  26.224  0.00  0.00    +0.147 A 
ATOM      5  C   UNL     1       5.986   1.137  26.972  0.00  0.00    +0.109 A 
ATOM      6  C   UNL     1       6.347   2.416  27.423  0.00  0.00    +0.135 A 
ATOM      7  C   UNL     1       5.596   3.540  27.069  0.00  0.00    +0.091 A 
ATOM      8  C   UNL     1       4.480   3.381  26.254  0.00  0.00    +0.124 A 
ATOM      9  C   UNL     1       6.792  -0.075  27.243  0.00  0.00    +0.238 A 
ATOM     10  O   UNL     1       7.741   0.030  28.011  0.00  0.00    -0.283 OA
ATOM     11  C   UNL     1       4.085   2.115  25.837  0.00  0.00    +0.092 A 
ATOM     12  C   UNL     1       6.397  -1.361  26.571  0.00  0.00    +0.214 A 
BRANCH   2  15
ATOM     13  C   UNL     1       4.456  -3.984  23.413  0.00  0.00    +0.162 A 
ATOM     14  C   UNL     1       5.105  -3.026  24.185  0.00  0.00    +0.061 A 
ATOM     15  C   UNL     1       4.508  -2.504  25.335  0.00  0.00    +0.025 A 
ATOM     16  C   UNL     1       3.234  -2.969  25.715  0.00  0.00    +0.015 A 
ATOM     17  C   UNL     1       2.587  -3.956  24.966  0.00  0.00    +0.050 A 
ATOM     18  C   UNL     1       3.201  -4.444  23.820  0.00  0.00    +0.158 A 
BRANCH  18  19
ATOM     19  O   UNL     1       2.538  -5.376  23.069  0.00  0.00    -0.503 OA
ATOM     20  H   UNL     1       1.618  -5.050  23.015  0.00  0.00    +0.292 HD
ENDBRANCH  18  19
BRANCH  13  22
ATOM     21  C   UNL     1       5.600  -5.728  22.262  0.00  0.00    +0.277 C 
ATOM     22  O   UNL     1       4.911  -4.484  22.221  0.00  0.00    -0.491 OA
ENDBRANCH  13  22
ENDBRANCH   2  15
BRANCH   8  23
ATOM     23  O   UNL     1       3.736   4.447  25.845  0.00  0.00    -0.507 OA
ATOM     24  H   UNL     1       4.280   5.252  25.884  0.00  0.00    +0.292 HD
ENDBRANCH   8  23
BRANCH   6  25
ATOM     25  O   UNL     1       7.433   2.648  28.224  0.00  0.00    -0.506 OA
ATOM     26  H   UNL     1       7.532   1.881  28.831  0.00  0.00    +0.292 HD
ENDBRANCH   6  25
ENDBRANCH   1  12
BRANCH   1  27
ATOM     27  C   UNL     1       8.597  -2.532  26.340  0.00  0.00    +0.340 C 
ATOM     28  O   UNL     1       9.027  -1.599  25.319  0.00  0.00    -0.331 OA
ATOM     29  C   UNL     1       8.574  -1.864  23.981  0.00  0.00    +0.179 C 
ATOM     30  C   UNL     1       8.765  -3.320  23.518  0.00  0.00    +0.177 C 
ATOM     31  C   UNL     1       8.502  -4.377  24.606  0.00  0.00    +0.180 C 
ATOM     32  C   UNL     1       9.091  -3.948  25.956  0.00  0.00    +0.214 C 
BRANCH  32  33
ATOM     33  O   UNL     1       8.804  -4.906  26.983  0.00  0.00    -0.383 OA
ATOM     34  H   UNL     1       9.507  -4.860  27.652  0.00  0.00    +0.210 HD
ENDBRANCH  32  33
BRANCH  31  35
ATOM     35  O   UNL     1       9.093  -5.637  24.216  0.00  0.00    -0.386 OA
ATOM     36  H   UNL     1       9.601  -6.014  24.955  0.00  0.00    +0.210 HD
ENDBRANCH  31  35
BRANCH  30  37
ATOM     37  O   UNL     1       7.926  -3.566  22.376  0.00  0.00    -0.386 OA
ATOM     38  H   UNL     1       7.003  -3.677  22.663  0.00  0.00    +0.210 HD
ENDBRANCH  30  37
BRANCH  29  39
ATOM     39  C   UNL     1       9.108  -0.731  22.999  0.00  0.00    +0.197 C 
BRANCH  39  40
ATOM     40  O   UNL     1       8.256   0.366  22.558  0.00  0.00    -0.346 OA
BRANCH  40  41
ATOM     41  C   UNL     1       7.559   1.010  23.645  0.00  0.00    +0.281 C 
ATOM     42  O   UNL     1       6.419   1.671  23.103  0.00  0.00    -0.346 OA
ATOM     43  C   UNL     1       6.826   2.688  22.181  0.00  0.00    +0.197 C 
ATOM     44  C   UNL     1       7.429   3.862  22.922  0.00  0.00    +0.171 C 
ATOM     45  C   UNL     1       8.609   3.408  23.789  0.00  0.00    +0.178 C 
ATOM     46  C   UNL     1       8.350   2.065  24.498  0.00  0.00    +0.201 C 
BRANCH  46  47
ATOM     47  O   UNL     1       9.555   1.545  25.066  0.00  0.00    -0.384 OA
ATOM     48  H   UNL     1       9.503   1.687  26.031  0.00  0.00    +0.210 HD
ENDBRANCH  46  47
BRANCH  45  49
ATOM     49  O   UNL     1       9.816   3.347  23.000  0.00  0.00    -0.386 OA
ATOM     50  H   UNL     1       9.596   3.708  22.111  0.00  0.00    +0.210 HD
ENDBRANCH  45  49
BRANCH  44  51
ATOM     51  O   UNL     1       7.835   4.864  21.990  0.00  0.00    -0.387 OA
ATOM     52  H   UNL     1       7.260   4.764  21.205  0.00  0.00    +0.210 HD
ENDBRANCH  44  51
ENDBRANCH  40  41
ENDBRANCH  39  40
ENDBRANCH  29  39
ENDBRANCH   1  27
TORSDOF 16
ENDMDL
MODEL 3
REMARK VINA RESULT:      -7.2      2.649      9.605
REMARK  Name = 
REMARK  17 active torsions:
REMARK  status: ('A' for Active; 'I' for Inactive)
REMARK    1  A    between atoms: C_1  and  O_2
REMARK    2  A    between atoms: O_2  and  C_3
REMARK    3  A    between atoms: C_4  and  O_48
REMARK    4  A    between atoms: C_7  and  C_9
REMARK    5  A    between atoms: C_10  and  O_22
REMARK    6  A    between atoms: C_14  and  O_21
REMARK    7  A    between atoms: C_16  and  O_20
REMARK    8  A    between atoms: O_22  and  C_23
REMARK    9  A    between atoms: C_25  and  O_47
REMARK   10  A    between atoms: C_26  and  O_46
REMARK   11  A    between atoms: C_27  and  O_45
REMARK   12  A    between atoms: C_29  and  C_31
REMARK   13  A    between atoms: C_31  and  O_32
REMARK   14  A    between atoms: O_32  and  C_33
REMARK   15  A    between atoms: C_35  and  O_44
REMARK   16  A    between atoms: C_36  and  O_43
REMARK   17  A    between atoms: C_38  and  O_42
REMARK                            x       y       z     vdW  Elec       q    Type
REMARK                         _______ _______ _______ _____ _____    ______ ____
ROOT
ATOM      1  O   UNL     1       4.233  -3.884  26.642  0.00  0.00    -0.453 OA
ENDROOT
BRANCH   1  12
ATOM      2  C   UNL     1       4.182  -5.745  25.126  0.00  0.00    +0.181 A 
ATOM      3  O   UNL     1       3.710  -6.945  24.608  0.00  0.00    -0.451 OA
ATOM      4  C   UNL     1       2.641  -7.550  25.207  0.00  0.00    +0.147 A 
ATOM      5  C   UNL     1       2.187  -7.175  26.459  0.00  0.00    +0.109 A 
ATOM      6  C   UNL     1       1.176  -7.935  27.067  0.00  0.00    +0.135 A 
ATOM      7  C   UNL     1       0.588  -9.013  26.398  0.00  0.00    +0.091 A 
ATOM      8  C   UNL     1       1.011  -9.324  25.111  0.00  0.00    +0.124 A 
ATOM      9  C   UNL     1       2.784  -5.973  27.083  0.00  0.00    +0.238 A 
ATOM     10  O   UNL     1       2.474  -5.718  28.242  0.00  0.00    -0.283 OA
ATOM     11  C   UNL     1       2.041  -8.608  24.513  0.00  0.00    +0.092 A 
ATOM     12  C   UNL     1       3.738  -5.143  26.270  0.00  0.00    +0.214 A 
BRANCH   2  15
ATOM     13  C   UNL     1       7.499  -4.602  23.772  0.00  0.00    +0.162 A 
ATOM     14  C   UNL     1       6.531  -5.278  24.507  0.00  0.00    +0.061 A 
ATOM     15  C   UNL     1       5.176  -5.167  24.187  0.00  0.00    +0.025 A 
ATOM     16  C   UNL     1       4.794  -4.365  23.095  0.00  0.00    +0.015 A 
ATOM     17  C   UNL     1       5.760  -3.708  22.327  0.00  0.00    +0.050 A 
ATOM     18  C   UNL     1       7.098  -3.827  22.679  0.00  0.00    +0.158 A 
BRANCH  18  19
ATOM     19  O   UNL     1       8.031  -3.141  21.949  0.00  0.00    -0.503 OA
ATOM     20  H   UNL     1       8.375  -2.456  22.556  0.00  0.00    +0.292 HD
ENDBRANCH  18  19
BRANCH  13  22
ATOM     21  C   UNL     1       9.266  -5.271  25.221  0.00  0.00    +0.277 C 
ATOM     22  O   UNL     1       8.836  -4.566  24.063  0.00  0.00    -0.491 OA
ENDBRANCH  13  22
ENDBRANCH   2  15
BRANCH   8  23
ATOM     23  O   UNL     1       0.443 -10.337  24.397  0.00  0.00    -0.507 OA
ATOM     24  H   UNL     1       0.114 -11.017  25.011  0.00  0.00    +0.292 HD
ENDBRANCH   8  23
BRANCH   6  25
ATOM     25  O   UNL     1       0.708  -7.684  28.329  0.00  0.00    -0.506 OA
ATOM     26  H   UNL     1      -0.256  -7.874  28.338  0.00  0.00    +0.292 HD
ENDBRANCH   6  25
ENDBRANCH   1  12
BRANCH   1  27
ATOM     27  C   UNL     1       3.532  -2.649  26.325  0.00  0.00    +0.340 C 
ATOM     28  O   UNL     1       4.187  -1.844  25.315  0.00  0.00    -0.331 OA
ATOM     29  C   UNL     1       5.474  -1.306  25.661  0.00  0.00    +0.179 C 
ATOM     30  C   UNL     1       5.529  -0.620  27.039  0.00  0.00    +0.177 C 
ATOM     31  C   UNL     1       4.704  -1.319  28.135  0.00  0.00    +0.180 C 
ATOM     32  C   UNL     1       3.346  -1.789  27.598  0.00  0.00    +0.214 C 
BRANCH  32  33
ATOM     33  O   UNL     1       2.596  -2.485  28.602  0.00  0.00    -0.383 OA
ATOM     34  H   UNL     1       1.667  -2.524  28.321  0.00  0.00    +0.210 HD
ENDBRANCH  32  33
BRANCH  31  35
ATOM     35  O   UNL     1       4.483  -0.408  29.235  0.00  0.00    -0.386 OA
ATOM     36  H   UNL     1       4.746  -0.823  30.074  0.00  0.00    +0.210 HD
ENDBRANCH  31  35
BRANCH  30  37
ATOM     37  O   UNL     1       6.901  -0.502  27.452  0.00  0.00    -0.386 OA
ATOM     38  H   UNL     1       6.950  -0.032  28.303  0.00  0.00    +0.210 HD
ENDBRANCH  30  37
BRANCH  29  39
ATOM     39  C   UNL     1       6.059  -0.481  24.434  0.00  0.00    +0.197 C 
BRANCH  39  40
ATOM     40  O   UNL     1       7.303  -0.862  23.777  0.00  0.00    -0.346 OA
BRANCH  40  41
ATOM     41  C   UNL     1       8.477  -0.418  24.491  0.00  0.00    +0.281 C 
ATOM     42  O   UNL     1       8.414   1.001  24.597  0.00  0.00    -0.346 OA
ATOM     43  C   UNL     1       8.443   1.599  23.296  0.00  0.00    +0.197 C 
ATOM     44  C   UNL     1       9.826   1.485  22.692  0.00  0.00    +0.171 C 
ATOM     45  C   UNL     1      10.270   0.019  22.629  0.00  0.00    +0.178 C 
ATOM     46  C   UNL     1       9.881  -0.781  23.887  0.00  0.00    +0.201 C 
BRANCH  46  47
ATOM     47  O   UNL     1      10.062  -2.184  23.679  0.00  0.00    -0.384 OA
ATOM     48  H   UNL     1      10.277  -2.578  24.547  0.00  0.00    +0.210 HD
ENDBRANCH  46  47
BRANCH  45  49
ATOM     49  O   UNL     1       9.751  -0.612  21.440  0.00  0.00    -0.386 OA
ATOM     50  H   UNL     1      10.475  -0.605  20.773  0.00  0.00    +0.210 HD
ENDBRANCH  45  49
BRANCH  44  51
ATOM     51  O   UNL     1       9.836   2.078  21.395  0.00  0.00    -0.387 OA
ATOM     52  H   UNL     1      10.632   2.645  21.352  0.00  0.00    +0.210 HD
ENDBRANCH  44  51
ENDBRANCH  40  41
ENDBRANCH  39  40
ENDBRANCH  29  39
ENDBRANCH   1  27
TORSDOF 16
ENDMDL
MODEL 4
REMARK VINA RESULT:      -7.1      2.848      5.775
REMARK  Name = 
REMARK  17 active torsions:
REMARK  status: ('A' for Active; 'I' for Inactive)
REMARK    1  A    between atoms: C_1  and  O_2
REMARK    2  A    between atoms: O_2  and  C_3
REMARK    3  A    between atoms: C_4  and  O_48
REMARK    4  A    between atoms: C_7  and  C_9
REMARK    5  A    between atoms: C_10  and  O_22
REMARK    6  A    between atoms: C_14  and  O_21
REMARK    7  A    between atoms: C_16  and  O_20
REMARK    8  A    between atoms: O_22  and  C_23
REMARK    9  A    between atoms: C_25  and  O_47
REMARK   10  A    between atoms: C_26  and  O_46
REMARK   11  A    between atoms: C_27  and  O_45
REMARK   12  A    between atoms: C_29  and  C_31
REMARK   13  A    between atoms: C_31  and  O_32
REMARK   14  A    between atoms: O_32  and  C_33
REMARK   15  A    between atoms: C_35  and  O_44
REMARK   16  A    between atoms: C_36  and  O_43
REMARK   17  A    between atoms: C_38  and  O_42
REMARK                            x       y       z     vdW  Elec       q    Type
REMARK                         _______ _______ _______ _____ _____    ______ ____
ROOT
ATOM      1  O   UNL     1       7.479  -2.156  25.257  0.00  0.00    -0.453 OA
ENDROOT
BRANCH   1  12
ATOM      2  C   UNL     1       6.180  -0.154  25.513  0.00  0.00    +0.181 A 
ATOM      3  O   UNL     1       5.709   1.105  25.159  0.00  0.00    -0.451 OA
ATOM      4  C   UNL     1       6.158   1.680  24.003  0.00  0.00    +0.147 A 
ATOM      5  C   UNL     1       7.258   1.196  23.318  0.00  0.00    +0.109 A 
ATOM      6  C   UNL     1       7.743   1.922  22.220  0.00  0.00    +0.135 A 
ATOM      7  C   UNL     1       7.090   3.078  21.779  0.00  0.00    +0.091 A 
ATOM      8  C   UNL     1       5.943   3.502  22.439  0.00  0.00    +0.124 A 
ATOM      9  C   UNL     1       7.856  -0.079  23.774  0.00  0.00    +0.238 A 
ATOM     10  O   UNL     1       8.904  -0.438  23.249  0.00  0.00    -0.283 OA
ATOM     11  C   UNL     1       5.477   2.818  23.556  0.00  0.00    +0.092 A 
ATOM     12  C   UNL     1       7.153  -0.852  24.855  0.00  0.00    +0.214 A 
BRANCH   2  15
ATOM     13  C   UNL     1       3.535  -2.047  27.400  0.00  0.00    +0.162 A 
ATOM     14  C   UNL     1       4.434  -1.657  26.414  0.00  0.00    +0.061 A 
ATOM     15  C   UNL     1       5.387  -0.665  26.658  0.00  0.00    +0.025 A 
ATOM     16  C   UNL     1       5.437  -0.064  27.931  0.00  0.00    +0.015 A 
ATOM     17  C   UNL     1       4.561  -0.471  28.941  0.00  0.00    +0.050 A 
ATOM     18  C   UNL     1       3.616  -1.449  28.662  0.00  0.00    +0.158 A 
BRANCH  18  19
ATOM     19  O   UNL     1       2.733  -1.806  29.644  0.00  0.00    -0.503 OA
ATOM     20  H   UNL     1       1.881  -1.940  29.184  0.00  0.00    +0.292 HD
ENDBRANCH  18  19
BRANCH  13  22
ATOM     21  C   UNL     1       1.337  -2.453  26.578  0.00  0.00    +0.277 C 
ATOM     22  O   UNL     1       2.506  -2.934  27.231  0.00  0.00    -0.491 OA
ENDBRANCH  13  22
ENDBRANCH   2  15
BRANCH   8  23
ATOM     23  O   UNL     1       5.244   4.598  22.027  0.00  0.00    -0.507 OA
ATOM     24  H   UNL     1       5.342   5.307  22.685  0.00  0.00    +0.292 HD
ENDBRANCH   8  23
BRANCH   6  25
ATOM     25  O   UNL     1       8.863   1.562  21.520  0.00  0.00    -0.506 OA
ATOM     26  H   UNL     1       9.447   1.051  22.124  0.00  0.00    +0.292 HD
ENDBRANCH   6  25
ENDBRANCH   1  12
BRANCH   1  27
ATOM     27  C   UNL     1       7.217  -3.317  24.419  0.00  0.00    +0.340 C 
ATOM     28  O   UNL     1       6.194  -4.200  24.940  0.00  0.00    -0.331 OA
ATOM     29  C   UNL     1       6.493  -4.864  26.179  0.00  0.00    +0.179 C 
ATOM     30  C   UNL     1       7.880  -5.531  26.228  0.00  0.00    +0.177 C 
ATOM     31  C   UNL     1       8.999  -4.734  25.530  0.00  0.00    +0.180 C 
ATOM     32  C   UNL     1       8.514  -4.134  24.205  0.00  0.00    +0.214 C 
BRANCH  32  33
ATOM     33  O   UNL     1       9.537  -3.349  23.578  0.00  0.00    -0.383 OA
ATOM     34  H   UNL     1      10.308  -3.920  23.420  0.00  0.00    +0.210 HD
ENDBRANCH  32  33
BRANCH  31  35
ATOM     35  O   UNL     1      10.125  -5.601  25.268  0.00  0.00    -0.386 OA
ATOM     36  H   UNL     1      10.772  -5.150  24.701  0.00  0.00    +0.210 HD
ENDBRANCH  31  35
BRANCH  30  37
ATOM     37  O   UNL     1       8.234  -5.785  27.598  0.00  0.00    -0.386 OA
ATOM     38  H   UNL     1       7.990  -6.696  27.839  0.00  0.00    +0.210 HD
ENDBRANCH  30  37
BRANCH  29  39
ATOM     39  C   UNL     1       5.257  -5.763  26.619  0.00  0.00    +0.197 C 
BRANCH  39  40
ATOM     40  O   UNL     1       4.417  -6.443  25.642  0.00  0.00    -0.346 OA
BRANCH  40  41
ATOM     41  C   UNL     1       3.078  -5.907  25.580  0.00  0.00    +0.281 C 
ATOM     42  O   UNL     1       2.166  -6.987  25.744  0.00  0.00    -0.346 OA
ATOM     43  C   UNL     1       2.309  -7.927  24.673  0.00  0.00    +0.197 C 
ATOM     44  C   UNL     1       1.745  -7.356  23.390  0.00  0.00    +0.171 C 
ATOM     45  C   UNL     1       2.425  -6.026  23.043  0.00  0.00    +0.178 C 
ATOM     46  C   UNL     1       2.660  -5.134  24.278  0.00  0.00    +0.201 C 
BRANCH  46  47
ATOM     47  O   UNL     1       3.529  -4.043  23.963  0.00  0.00    -0.384 OA
ATOM     48  H   UNL     1       4.291  -4.097  24.574  0.00  0.00    +0.210 HD
ENDBRANCH  46  47
BRANCH  45  49
ATOM     49  O   UNL     1       3.661  -6.263  22.339  0.00  0.00    -0.386 OA
ATOM     50  H   UNL     1       4.391  -6.010  22.949  0.00  0.00    +0.210 HD
ENDBRANCH  45  49
BRANCH  44  51
ATOM     51  O   UNL     1       1.903  -8.301  22.332  0.00  0.00    -0.387 OA
ATOM     52  H   UNL     1       2.396  -7.846  21.621  0.00  0.00    +0.210 HD
ENDBRANCH  44  51
ENDBRANCH  40  41
ENDBRANCH  39  40
ENDBRANCH  29  39
ENDBRANCH   1  27
TORSDOF 16
ENDMDL
MODEL 5
REMARK VINA RESULT:      -7.0      2.114      8.569
REMARK  Name = 
REMARK  17 active torsions:
REMARK  status: ('A' for Active; 'I' for Inactive)
REMARK    1  A    between atoms: C_1  and  O_2
REMARK    2  A    between atoms: O_2  and  C_3
REMARK    3  A    between atoms: C_4  and  O_48
REMARK    4  A    between atoms: C_7  and  C_9
REMARK    5  A    between atoms: C_10  and  O_22
REMARK    6  A    between atoms: C_14  and  O_21
REMARK    7  A    between atoms: C_16  and  O_20
REMARK    8  A    between atoms: O_22  and  C_23
REMARK    9  A    between atoms: C_25  and  O_47
REMARK   10  A    between atoms: C_26  and  O_46
REMARK   11  A    between atoms: C_27  and  O_45
REMARK   12  A    between atoms: C_29  and  C_31
REMARK   13  A    between atoms: C_31  and  O_32
REMARK   14  A    between atoms: O_32  and  C_33
REMARK   15  A    between atoms: C_35  and  O_44
REMARK   16  A    between atoms: C_36  and  O_43
REMARK   17  A    between atoms: C_38  and  O_42
REMARK                            x       y       z     vdW  Elec       q    Type
REMARK                         _______ _______ _______ _____ _____    ______ ____
ROOT
ATOM      1  O   UNL     1       6.831  -0.534  26.698  0.00  0.00    -0.453 OA
ENDROOT
BRANCH   1  12
ATOM      2  C   UNL     1       7.923  -1.400  24.744  0.00  0.00    +0.181 A 
ATOM      3  O   UNL     1       8.141  -2.301  23.708  0.00  0.00    -0.451 OA
ATOM      4  C   UNL     1       7.334  -3.399  23.605  0.00  0.00    +0.147 A 
ATOM      5  C   UNL     1       6.499  -3.800  24.632  0.00  0.00    +0.109 A 
ATOM      6  C   UNL     1       5.808  -5.015  24.507  0.00  0.00    +0.135 A 
ATOM      7  C   UNL     1       5.905  -5.778  23.339  0.00  0.00    +0.091 A 
ATOM      8  C   UNL     1       6.693  -5.317  22.291  0.00  0.00    +0.124 A 
ATOM      9  C   UNL     1       6.366  -2.910  25.807  0.00  0.00    +0.238 A 
ATOM     10  O   UNL     1       5.729  -3.326  26.769  0.00  0.00    -0.283 OA
ATOM     11  C   UNL     1       7.418  -4.138  22.419  0.00  0.00    +0.092 A 
ATOM     12  C   UNL     1       7.023  -1.558  25.760  0.00  0.00    +0.214 A 
BRANCH   2  15
ATOM     13  C   UNL     1       8.969   1.948  23.387  0.00  0.00    +0.162 A 
ATOM     14  C   UNL     1       8.192   0.867  23.793  0.00  0.00    +0.061 A 
ATOM     15  C   UNL     1       8.750  -0.189  24.517  0.00  0.00    +0.025 A 
ATOM     16  C   UNL     1      10.119  -0.145  24.846  0.00  0.00    +0.015 A 
ATOM     17  C   UNL     1      10.902   0.952  24.474  0.00  0.00    +0.050 A 
ATOM     18  C   UNL     1      10.321   1.979  23.742  0.00  0.00    +0.158 A 
BRANCH  18  19
ATOM     19  O   UNL     1      11.108   3.024  23.343  0.00  0.00    -0.503 OA
ATOM     20  H   UNL     1      11.745   2.636  22.711  0.00  0.00    +0.292 HD
ENDBRANCH  18  19
BRANCH  13  22
ATOM     21  C   UNL     1       7.307   2.802  21.911  0.00  0.00    +0.277 C 
ATOM     22  O   UNL     1       8.543   2.979  22.594  0.00  0.00    -0.491 OA
ENDBRANCH  13  22
ENDBRANCH   2  15
BRANCH   8  23
ATOM     23  O   UNL     1       6.791  -5.999  21.115  0.00  0.00    -0.507 OA
ATOM     24  H   UNL     1       6.648  -5.384  20.375  0.00  0.00    +0.292 HD
ENDBRANCH   8  23
BRANCH   6  25
ATOM     25  O   UNL     1       5.012  -5.529  25.495  0.00  0.00    -0.506 OA
ATOM     26  H   UNL     1       4.403  -4.818  25.795  0.00  0.00    +0.292 HD
ENDBRANCH   6  25
ENDBRANCH   1  12
BRANCH   1  27
ATOM     27  C   UNL     1       5.593   0.228  26.775  0.00  0.00    +0.340 C 
ATOM     28  O   UNL     1       5.694   1.569  26.236  0.00  0.00    -0.331 OA
ATOM     29  C   UNL     1       6.573   2.472  26.927  0.00  0.00    +0.179 C 
ATOM     30  C   UNL     1       6.386   2.501  28.456  0.00  0.00    +0.177 C 
ATOM     31  C   UNL     1       6.092   1.129  29.090  0.00  0.00    +0.180 C 
ATOM     32  C   UNL     1       5.103   0.320  28.240  0.00  0.00    +0.214 C 
BRANCH  32  33
ATOM     33  O   UNL     1       4.867  -0.978  28.802  0.00  0.00    -0.383 OA
ATOM     34  H   UNL     1       4.013  -1.303  28.474  0.00  0.00    +0.210 HD
ENDBRANCH  32  33
BRANCH  31  35
ATOM     35  O   UNL     1       5.534   1.312  30.411  0.00  0.00    -0.386 OA
ATOM     36  H   UNL     1       5.100   2.179  30.476  0.00  0.00    +0.210 HD
ENDBRANCH  31  35
BRANCH  30  37
ATOM     37  O   UNL     1       7.550   3.087  29.062  0.00  0.00    -0.386 OA
ATOM     38  H   UNL     1       8.183   2.389  29.307  0.00  0.00    +0.210 HD
ENDBRANCH  30  37
BRANCH  29  39
ATOM     39  C   UNL     1       6.588   3.880  26.187  0.00  0.00    +0.197 C 
BRANCH  39  40
ATOM     40  O   UNL     1       7.828   4.496  25.735  0.00  0.00    -0.346 OA
BRANCH  40  41
ATOM     41  C   UNL     1       7.770   5.938  25.725  0.00  0.00    +0.281 C 
ATOM     42  O   UNL     1       6.601   6.324  25.008  0.00  0.00    -0.346 OA
ATOM     43  C   UNL     1       6.682   5.881  23.649  0.00  0.00    +0.197 C 
ATOM     44  C   UNL     1       7.692   6.707  22.883  0.00  0.00    +0.171 C 
ATOM     45  C   UNL     1       9.067   6.647  23.559  0.00  0.00    +0.178 C 
ATOM     46  C   UNL     1       8.982   6.714  25.096  0.00  0.00    +0.201 C 
BRANCH  46  47
ATOM     47  O   UNL     1      10.238   6.382  25.693  0.00  0.00    -0.384 OA
ATOM     48  H   UNL     1      10.717   5.814  25.058  0.00  0.00    +0.210 HD
ENDBRANCH  46  47
BRANCH  45  49
ATOM     49  O   UNL     1       9.782   5.467  23.136  0.00  0.00    -0.386 OA
ATOM     50  H   UNL     1       9.666   5.395  22.161  0.00  0.00    +0.210 HD
ENDBRANCH  45  49
BRANCH  44  51
ATOM     51  O   UNL     1       7.766   6.249  21.533  0.00  0.00    -0.387 OA
ATOM     52  H   UNL     1       7.752   7.045  20.966  0.00  0.00    +0.210 HD
ENDBRANCH  44  51
ENDBRANCH  40  41
ENDBRANCH  39  40
ENDBRANCH  29  39
ENDBRANCH   1  27
TORSDOF 16
ENDMDL
MODEL 6
REMARK VINA RESULT:      -7.0      2.423      7.020
REMARK  Name = 
REMARK  17 active torsions:
REMARK  status: ('A' for Active; 'I' for Inactive)
REMARK    1  A    between atoms: C_1  and  O_2
REMARK    2  A    between atoms: O_2  and  C_3
REMARK    3  A    between atoms: C_4  and  O_48
REMARK    4  A    between atoms: C_7  and  C_9
REMARK    5  A    between atoms: C_10  and  O_22
REMARK    6  A    between atoms: C_14  and  O_21
REMARK    7  A    between atoms: C_16  and  O_20
REMARK    8  A    between atoms: O_22  and  C_23
REMARK    9  A    between atoms: C_25  and  O_47
REMARK   10  A    between atoms: C_26  and  O_46
REMARK   11  A    between atoms: C_27  and  O_45
REMARK   12  A    between atoms: C_29  and  C_31
REMARK   13  A    between atoms: C_31  and  O_32
REMARK   14  A    between atoms: O_32  and  C_33
REMARK   15  A    between atoms: C_35  and  O_44
REMARK   16  A    between atoms: C_36  and  O_43
REMARK   17  A    between atoms: C_38  and  O_42
REMARK                            x       y       z     vdW  Elec       q    Type
REMARK                         _______ _______ _______ _____ _____    ______ ____
ROOT
ATOM      1  O   UNL     1       7.187  -2.666  26.876  0.00  0.00    -0.453 OA
ENDROOT
BRANCH   1  12
ATOM      2  C   UNL     1       5.489  -1.409  25.736  0.00  0.00    +0.181 A 
ATOM      3  O   UNL     1       4.833  -0.259  25.312  0.00  0.00    -0.451 OA
ATOM      4  C   UNL     1       5.328   0.960  25.681  0.00  0.00    +0.147 A 
ATOM      5  C   UNL     1       6.279   1.100  26.676  0.00  0.00    +0.109 A 
ATOM      6  C   UNL     1       6.632   2.392  27.095  0.00  0.00    +0.135 A 
ATOM      7  C   UNL     1       6.089   3.521  26.476  0.00  0.00    +0.091 A 
ATOM      8  C   UNL     1       5.191   3.354  25.428  0.00  0.00    +0.124 A 
ATOM      9  C   UNL     1       6.886  -0.128  27.235  0.00  0.00    +0.238 A 
ATOM     10  O   UNL     1       7.630  -0.009  28.202  0.00  0.00    -0.283 OA
ATOM     11  C   UNL     1       4.797   2.081  25.032  0.00  0.00    +0.092 A 
ATOM     12  C   UNL     1       6.551  -1.447  26.595  0.00  0.00    +0.214 A 
BRANCH   2  15
ATOM     13  C   UNL     1       4.837  -3.890  22.987  0.00  0.00    +0.162 A 
ATOM     14  C   UNL     1       5.444  -2.923  23.781  0.00  0.00    +0.061 A 
ATOM     15  C   UNL     1       4.919  -2.582  25.030  0.00  0.00    +0.025 A 
ATOM     16  C   UNL     1       3.763  -3.243  25.488  0.00  0.00    +0.015 A 
ATOM     17  C   UNL     1       3.163  -4.242  24.714  0.00  0.00    +0.050 A 
ATOM     18  C   UNL     1       3.702  -4.546  23.471  0.00  0.00    +0.158 A 
BRANCH  18  19
ATOM     19  O   UNL     1       3.079  -5.492  22.702  0.00  0.00    -0.503 OA
ATOM     20  H   UNL     1       3.795  -5.909  22.183  0.00  0.00    +0.292 HD
ENDBRANCH  18  19
BRANCH  13  22
ATOM     21  C   UNL     1       6.281  -5.155  21.577  0.00  0.00    +0.277 C 
ATOM     22  O   UNL     1       5.215  -4.223  21.713  0.00  0.00    -0.491 OA
ENDBRANCH  13  22
ENDBRANCH   2  15
BRANCH   8  23
ATOM     23  O   UNL     1       4.663   4.420  24.762  0.00  0.00    -0.507 OA
ATOM     24  H   UNL     1       3.818   4.670  25.176  0.00  0.00    +0.292 HD
ENDBRANCH   8  23
BRANCH   6  25
ATOM     25  O   UNL     1       7.512   2.632  28.117  0.00  0.00    -0.506 OA
ATOM     26  H   UNL     1       8.196   3.257  27.788  0.00  0.00    +0.292 HD
ENDBRANCH   6  25
ENDBRANCH   1  12
BRANCH   1  27
ATOM     27  C   UNL     1       8.635  -2.790  26.942  0.00  0.00    +0.340 C 
ATOM     28  O   UNL     1       9.348  -1.738  26.249  0.00  0.00    -0.331 OA
ATOM     29  C   UNL     1       9.179  -1.683  24.823  0.00  0.00    +0.179 C 
ATOM     30  C   UNL     1       9.351  -3.035  24.106  0.00  0.00    +0.177 C 
ATOM     31  C   UNL     1       8.776  -4.242  24.870  0.00  0.00    +0.180 C 
ATOM     32  C   UNL     1       9.089  -4.155  26.370  0.00  0.00    +0.214 C 
BRANCH  32  33
ATOM     33  O   UNL     1       8.510  -5.251  27.091  0.00  0.00    -0.383 OA
ATOM     34  H   UNL     1       9.176  -5.599  27.706  0.00  0.00    +0.210 HD
ENDBRANCH  32  33
BRANCH  31  35
ATOM     35  O   UNL     1       9.338  -5.465  24.345  0.00  0.00    -0.386 OA
ATOM     36  H   UNL     1       9.956  -5.855  24.986  0.00  0.00    +0.210 HD
ENDBRANCH  31  35
BRANCH  30  37
ATOM     37  O   UNL     1       8.765  -2.953  22.797  0.00  0.00    -0.386 OA
ATOM     38  H   UNL     1       8.700  -2.021  22.521  0.00  0.00    +0.210 HD
ENDBRANCH  30  37
BRANCH  29  39
ATOM     39  C   UNL     1      10.001  -0.456  24.231  0.00  0.00    +0.197 C 
BRANCH  39  40
ATOM     40  O   UNL     1       9.424   0.879  24.135  0.00  0.00    -0.346 OA
BRANCH  40  41
ATOM     41  C   UNL     1       9.938   1.637  23.019  0.00  0.00    +0.281 C 
ATOM     42  O   UNL     1       9.912   3.015  23.377  0.00  0.00    -0.346 OA
ATOM     43  C   UNL     1       8.565   3.442  23.610  0.00  0.00    +0.197 C 
ATOM     44  C   UNL     1       7.807   3.539  22.303  0.00  0.00    +0.171 C 
ATOM     45  C   UNL     1       7.832   2.197  21.561  0.00  0.00    +0.178 C 
ATOM     46  C   UNL     1       9.202   1.496  21.639  0.00  0.00    +0.201 C 
BRANCH  46  47
ATOM     47  O   UNL     1       9.112   0.144  21.181  0.00  0.00    -0.384 OA
ATOM     48  H   UNL     1       8.617  -0.357  21.859  0.00  0.00    +0.210 HD
ENDBRANCH  46  47
BRANCH  45  49
ATOM     49  O   UNL     1       6.786   1.334  22.050  0.00  0.00    -0.386 OA
ATOM     50  H   UNL     1       6.817   1.374  23.033  0.00  0.00    +0.210 HD
ENDBRANCH  45  49
BRANCH  44  51
ATOM     51  O   UNL     1       6.466   3.958  22.554  0.00  0.00    -0.387 OA
ATOM     52  H   UNL     1       6.226   3.615  23.438  0.00  0.00    +0.210 HD
ENDBRANCH  44  51
ENDBRANCH  40  41
ENDBRANCH  39  40
ENDBRANCH  29  39
ENDBRANCH   1  27
TORSDOF 16
ENDMDL
MODEL 7
REMARK VINA RESULT:      -6.9      2.125      6.426
REMARK  Name = 
REMARK  17 active torsions:
REMARK  status: ('A' for Active; 'I' for Inactive)
REMARK    1  A    between atoms: C_1  and  O_2
REMARK    2  A    between atoms: O_2  and  C_3
REMARK    3  A    between atoms: C_4  and  O_48
REMARK    4  A    between atoms: C_7  and  C_9
REMARK    5  A    between atoms: C_10  and  O_22
REMARK    6  A    between atoms: C_14  and  O_21
REMARK    7  A    between atoms: C_16  and  O_20
REMARK    8  A    between atoms: O_22  and  C_23
REMARK    9  A    between atoms: C_25  and  O_47
REMARK   10  A    between atoms: C_26  and  O_46
REMARK   11  A    between atoms: C_27  and  O_45
REMARK   12  A    between atoms: C_29  and  C_31
REMARK   13  A    between atoms: C_31  and  O_32
REMARK   14  A    between atoms: O_32  and  C_33
REMARK   15  A    between atoms: C_35  and  O_44
REMARK   16  A    between atoms: C_36  and  O_43
REMARK   17  A    between atoms: C_38  and  O_42
REMARK                            x       y       z     vdW  Elec       q    Type
REMARK                         _______ _______ _______ _____ _____    ______ ____
ROOT
ATOM      1  O   UNL     1       7.160  -1.930  25.440  0.00  0.00    -0.453 OA
ENDROOT
BRANCH   1  12
ATOM      2  C   UNL     1       6.329   0.284  25.025  0.00  0.00    +0.181 A 
ATOM      3  O   UNL     1       5.499   1.382  25.215  0.00  0.00    -0.451 OA
ATOM      4  C   UNL     1       4.527   1.320  26.174  0.00  0.00    +0.147 A 
ATOM      5  C   UNL     1       4.151   0.128  26.767  0.00  0.00    +0.109 A 
ATOM      6  C   UNL     1       3.050   0.124  27.637  0.00  0.00    +0.135 A 
ATOM      7  C   UNL     1       2.383   1.310  27.956  0.00  0.00    +0.091 A 
ATOM      8  C   UNL     1       2.826   2.506  27.405  0.00  0.00    +0.124 A 
ATOM      9  C   UNL     1       4.947  -1.082  26.462  0.00  0.00    +0.238 A 
ATOM     10  O   UNL     1       4.537  -2.157  26.884  0.00  0.00    -0.283 OA
ATOM     11  C   UNL     1       3.887   2.520  26.506  0.00  0.00    +0.092 A 
ATOM     12  C   UNL     1       6.202  -0.926  25.648  0.00  0.00    +0.214 A 
BRANCH   2  15
ATOM     13  C   UNL     1       9.281   2.178  23.670  0.00  0.00    +0.162 A 
ATOM     14  C   UNL     1       8.336   1.646  24.541  0.00  0.00    +0.061 A 
ATOM     15  C   UNL     1       7.438   0.664  24.116  0.00  0.00    +0.025 A 
ATOM     16  C   UNL     1       7.506   0.205  22.786  0.00  0.00    +0.015 A 
ATOM     17  C   UNL     1       8.474   0.707  21.911  0.00  0.00    +0.050 A 
ATOM     18  C   UNL     1       9.343   1.693  22.360  0.00  0.00    +0.158 A 
BRANCH  18  19
ATOM     19  O   UNL     1      10.255   2.211  21.482  0.00  0.00    -0.503 OA
ATOM     20  H   UNL     1      11.088   1.736  21.671  0.00  0.00    +0.292 HD
ENDBRANCH  18  19
BRANCH  13  22
ATOM     21  C   UNL     1       9.576   4.514  24.029  0.00  0.00    +0.277 C 
ATOM     22  O   UNL     1      10.136   3.208  23.960  0.00  0.00    -0.491 OA
ENDBRANCH  13  22
ENDBRANCH   2  15
BRANCH   8  23
ATOM     23  O   UNL     1       2.240   3.698  27.714  0.00  0.00    -0.507 OA
ATOM     24  H   UNL     1       1.323   3.697  27.388  0.00  0.00    +0.292 HD
ENDBRANCH   8  23
BRANCH   6  25
ATOM     25  O   UNL     1       2.561  -1.015  28.220  0.00  0.00    -0.506 OA
ATOM     26  H   UNL     1       1.726  -1.256  27.760  0.00  0.00    +0.292 HD
ENDBRANCH   6  25
ENDBRANCH   1  12
BRANCH   1  27
ATOM     27  C   UNL     1       6.947  -3.027  24.508  0.00  0.00    +0.340 C 
ATOM     28  O   UNL     1       6.061  -4.058  25.007  0.00  0.00    -0.331 OA
ATOM     29  C   UNL     1       6.522  -4.801  26.147  0.00  0.00    +0.179 C 
ATOM     30  C   UNL     1       7.967  -5.320  26.030  0.00  0.00    +0.177 C 
ATOM     31  C   UNL     1       8.942  -4.347  25.341  0.00  0.00    +0.180 C 
ATOM     32  C   UNL     1       8.296  -3.679  24.121  0.00  0.00    +0.214 C 
BRANCH  32  33
ATOM     33  O   UNL     1       9.184  -2.735  23.507  0.00  0.00    -0.383 OA
ATOM     34  H   UNL     1      10.036  -3.173  23.348  0.00  0.00    +0.210 HD
ENDBRANCH  32  33
BRANCH  31  35
ATOM     35  O   UNL     1      10.123  -5.062  24.913  0.00  0.00    -0.386 OA
ATOM     36  H   UNL     1      10.891  -4.466  24.897  0.00  0.00    +0.210 HD
ENDBRANCH  31  35
BRANCH  30  37
ATOM     37  O   UNL     1       8.453  -5.664  27.339  0.00  0.00    -0.386 OA
ATOM     38  H   UNL     1       9.127  -6.362  27.268  0.00  0.00    +0.210 HD
ENDBRANCH  30  37
BRANCH  29  39
ATOM     39  C   UNL     1       5.419  -5.863  26.579  0.00  0.00    +0.197 C 
BRANCH  39  40
ATOM     40  O   UNL     1       4.526  -6.481  25.607  0.00  0.00    -0.346 OA
BRANCH  40  41
ATOM     41  C   UNL     1       3.145  -6.104  25.791  0.00  0.00    +0.281 C 
ATOM     42  O   UNL     1       2.355  -7.286  25.703  0.00  0.00    -0.346 OA
ATOM     43  C   UNL     1       2.477  -7.870  24.401  0.00  0.00    +0.197 C 
ATOM     44  C   UNL     1       1.741  -7.035  23.376  0.00  0.00    +0.171 C 
ATOM     45  C   UNL     1       2.261  -5.593  23.377  0.00  0.00    +0.178 C 
ATOM     46  C   UNL     1       2.534  -5.055  24.795  0.00  0.00    +0.201 C 
BRANCH  46  47
ATOM     47  O   UNL     1       3.266  -3.828  24.746  0.00  0.00    -0.384 OA
ATOM     48  H   UNL     1       2.643  -3.133  24.458  0.00  0.00    +0.210 HD
ENDBRANCH  46  47
BRANCH  45  49
ATOM     49  O   UNL     1       3.439  -5.483  22.551  0.00  0.00    -0.386 OA
ATOM     50  H   UNL     1       3.442  -4.572  22.176  0.00  0.00    +0.210 HD
ENDBRANCH  45  49
BRANCH  44  51
ATOM     51  O   UNL     1       1.879  -7.626  22.084  0.00  0.00    -0.387 OA
ATOM     52  H   UNL     1       1.545  -8.543  22.159  0.00  0.00    +0.210 HD
ENDBRANCH  44  51
ENDBRANCH  40  41
ENDBRANCH  39  40
ENDBRANCH  29  39
ENDBRANCH   1  27
TORSDOF 16
ENDMDL
MODEL 8
REMARK VINA RESULT:      -6.8      2.725      5.949
REMARK  Name = 
REMARK  17 active torsions:
REMARK  status: ('A' for Active; 'I' for Inactive)
REMARK    1  A    between atoms: C_1  and  O_2
REMARK    2  A    between atoms: O_2  and  C_3
REMARK    3  A    between atoms: C_4  and  O_48
REMARK    4  A    between atoms: C_7  and  C_9
REMARK    5  A    between atoms: C_10  and  O_22
REMARK    6  A    between atoms: C_14  and  O_21
REMARK    7  A    between atoms: C_16  and  O_20
REMARK    8  A    between atoms: O_22  and  C_23
REMARK    9  A    between atoms: C_25  and  O_47
REMARK   10  A    between atoms: C_26  and  O_46
REMARK   11  A    between atoms: C_27  and  O_45
REMARK   12  A    between atoms: C_29  and  C_31
REMARK   13  A    between atoms: C_31  and  O_32
REMARK   14  A    between atoms: O_32  and  C_33
REMARK   15  A    between atoms: C_35  and  O_44
REMARK   16  A    between atoms: C_36  and  O_43
REMARK   17  A    between atoms: C_38  and  O_42
REMARK                            x       y       z     vdW  Elec       q    Type
REMARK                         _______ _______ _______ _____ _____    ______ ____
ROOT
ATOM      1  O   UNL     1       7.534   0.320  24.878  0.00  0.00    -0.453 OA
ENDROOT
BRANCH   1  12
ATOM      2  C   UNL     1       6.451  -0.472  26.869  0.00  0.00    +0.181 A 
ATOM      3  O   UNL     1       5.623  -0.385  27.981  0.00  0.00    -0.451 OA
ATOM      4  C   UNL     1       4.957   0.785  28.220  0.00  0.00    +0.147 A 
ATOM      5  C   UNL     1       5.280   1.963  27.573  0.00  0.00    +0.109 A 
ATOM      6  C   UNL     1       4.647   3.150  27.974  0.00  0.00    +0.135 A 
ATOM      7  C   UNL     1       3.659   3.137  28.963  0.00  0.00    +0.091 A 
ATOM      8  C   UNL     1       3.299   1.928  29.546  0.00  0.00    +0.124 A 
ATOM      9  C   UNL     1       6.269   1.905  26.473  0.00  0.00    +0.238 A 
ATOM     10  O   UNL     1       6.649   2.964  25.989  0.00  0.00    -0.283 OA
ATOM     11  C   UNL     1       3.949   0.752  29.191  0.00  0.00    +0.092 A 
ATOM     12  C   UNL     1       6.756   0.556  26.021  0.00  0.00    +0.214 A 
BRANCH   2  15
ATOM     13  C   UNL     1       6.359  -4.227  27.051  0.00  0.00    +0.162 A 
ATOM     14  C   UNL     1       5.967  -2.893  27.022  0.00  0.00    +0.061 A 
ATOM     15  C   UNL     1       6.872  -1.883  26.685  0.00  0.00    +0.025 A 
ATOM     16  C   UNL     1       8.197  -2.233  26.361  0.00  0.00    +0.015 A 
ATOM     17  C   UNL     1       8.594  -3.573  26.353  0.00  0.00    +0.050 A 
ATOM     18  C   UNL     1       7.675  -4.552  26.706  0.00  0.00    +0.158 A 
BRANCH  18  19
ATOM     19  O   UNL     1       8.088  -5.856  26.741  0.00  0.00    -0.503 OA
ATOM     20  H   UNL     1       8.617  -5.933  27.559  0.00  0.00    +0.292 HD
ENDBRANCH  18  19
BRANCH  13  22
ATOM     21  C   UNL     1       5.303  -5.371  28.853  0.00  0.00    +0.277 C 
ATOM     22  O   UNL     1       5.580  -5.275  27.461  0.00  0.00    -0.491 OA
ENDBRANCH  13  22
ENDBRANCH   2  15
BRANCH   8  23
ATOM     23  O   UNL     1       2.313   1.852  30.485  0.00  0.00    -0.507 OA
ATOM     24  H   UNL     1       2.651   2.190  31.332  0.00  0.00    +0.292 HD
ENDBRANCH   8  23
BRANCH   6  25
ATOM     25  O   UNL     1       4.947   4.375  27.441  0.00  0.00    -0.506 OA
ATOM     26  H   UNL     1       5.170   4.247  26.492  0.00  0.00    +0.292 HD
ENDBRANCH   6  25
ENDBRANCH   1  12
BRANCH   1  27
ATOM     27  C   UNL     1       6.960   0.281  23.541  0.00  0.00    +0.340 C 
ATOM     28  O   UNL     1       6.914  -1.045  22.959  0.00  0.00    -0.331 OA
ATOM     29  C   UNL     1       8.179  -1.671  22.693  0.00  0.00    +0.179 C 
ATOM     30  C   UNL     1       9.192  -0.776  21.955  0.00  0.00    +0.177 C 
ATOM     31  C   UNL     1       9.178   0.701  22.391  0.00  0.00    +0.180 C 
ATOM     32  C   UNL     1       7.745   1.212  22.587  0.00  0.00    +0.214 C 
BRANCH  32  33
ATOM     33  O   UNL     1       7.730   2.572  23.042  0.00  0.00    -0.383 OA
ATOM     34  H   UNL     1       6.920   2.997  22.715  0.00  0.00    +0.210 HD
ENDBRANCH  32  33
BRANCH  31  35
ATOM     35  O   UNL     1       9.832   1.512  21.390  0.00  0.00    -0.386 OA
ATOM     36  H   UNL     1      10.798   1.419  21.459  0.00  0.00    +0.210 HD
ENDBRANCH  31  35
BRANCH  30  37
ATOM     37  O   UNL     1      10.510  -1.326  22.112  0.00  0.00    -0.386 OA
ATOM     38  H   UNL     1      11.177  -0.629  21.982  0.00  0.00    +0.210 HD
ENDBRANCH  30  37
BRANCH  29  39
ATOM     39  C   UNL     1       7.944  -3.124  22.090  0.00  0.00    +0.197 C 
BRANCH  39  40
ATOM     40  O   UNL     1       7.148  -4.125  22.788  0.00  0.00    -0.346 OA
BRANCH  40  41
ATOM     41  C   UNL     1       6.009  -4.573  22.024  0.00  0.00    +0.281 C 
ATOM     42  O   UNL     1       4.943  -3.656  22.248  0.00  0.00    -0.346 OA
ATOM     43  C   UNL     1       4.568  -3.657  23.630  0.00  0.00    +0.197 C 
ATOM     44  C   UNL     1       3.835  -4.934  23.978  0.00  0.00    +0.171 C 
ATOM     45  C   UNL     1       4.694  -6.160  23.646  0.00  0.00    +0.178 C 
ATOM     46  C   UNL     1       5.455  -6.014  22.314  0.00  0.00    +0.201 C 
BRANCH  46  47
ATOM     47  O   UNL     1       6.443  -7.039  22.174  0.00  0.00    -0.384 OA
ATOM     48  H   UNL     1       7.021  -6.989  22.961  0.00  0.00    +0.210 HD
ENDBRANCH  46  47
BRANCH  45  49
ATOM     49  O   UNL     1       5.605  -6.443  24.728  0.00  0.00    -0.386 OA
ATOM     50  H   UNL     1       6.243  -5.694  24.769  0.00  0.00    +0.210 HD
ENDBRANCH  45  49
BRANCH  44  51
ATOM     51  O   UNL     1       3.475  -4.922  25.359  0.00  0.00    -0.387 OA
ATOM     52  H   UNL     1       2.886  -4.152  25.488  0.00  0.00    +0.210 HD
ENDBRANCH  44  51
ENDBRANCH  40  41
ENDBRANCH  39  40
ENDBRANCH  29  39
ENDBRANCH   1  27
TORSDOF 16
ENDMDL
MODEL 9
REMARK VINA RESULT:      -6.8      2.467      6.331
REMARK  Name = 
REMARK  17 active torsions:
REMARK  status: ('A' for Active; 'I' for Inactive)
REMARK    1  A    between atoms: C_1  and  O_2
REMARK    2  A    between atoms: O_2  and  C_3
REMARK    3  A    between atoms: C_4  and  O_48
REMARK    4  A    between atoms: C_7  and  C_9
REMARK    5  A    between atoms: C_10  and  O_22
REMARK    6  A    between atoms: C_14  and  O_21
REMARK    7  A    between atoms: C_16  and  O_20
REMARK    8  A    between atoms: O_22  and  C_23
REMARK    9  A    between atoms: C_25  and  O_47
REMARK   10  A    between atoms: C_26  and  O_46
REMARK   11  A    between atoms: C_27  and  O_45
REMARK   12  A    between atoms: C_29  and  C_31
REMARK   13  A    between atoms: C_31  and  O_32
REMARK   14  A    between atoms: O_32  and  C_33
REMARK   15  A    between atoms: C_35  and  O_44
REMARK   16  A    between atoms: C_36  and  O_43
REMARK   17  A    between atoms: C_38  and  O_42
REMARK                            x       y       z     vdW  Elec       q    Type
REMARK                         _______ _______ _______ _____ _____    ______ ____
ROOT
ATOM      1  O   UNL     1       7.332  -1.964  25.367  0.00  0.00    -0.453 OA
ENDROOT
BRANCH   1  12
ATOM      2  C   UNL     1       6.260   0.142  24.945  0.00  0.00    +0.181 A 
ATOM      3  O   UNL     1       5.337   1.159  25.158  0.00  0.00    -0.451 OA
ATOM      4  C   UNL     1       4.437   1.034  26.178  0.00  0.00    +0.147 A 
ATOM      5  C   UNL     1       4.220  -0.168  26.828  0.00  0.00    +0.109 A 
ATOM      6  C   UNL     1       3.181  -0.250  27.767  0.00  0.00    +0.135 A 
ATOM      7  C   UNL     1       2.419   0.875  28.096  0.00  0.00    +0.091 A 
ATOM      8  C   UNL     1       2.706   2.090  27.483  0.00  0.00    +0.124 A 
ATOM      9  C   UNL     1       5.113  -1.303  26.506  0.00  0.00    +0.238 A 
ATOM     10  O   UNL     1       4.840  -2.398  26.984  0.00  0.00    -0.283 OA
ATOM     11  C   UNL     1       3.702   2.176  26.518  0.00  0.00    +0.092 A 
ATOM     12  C   UNL     1       6.293  -1.053  25.608  0.00  0.00    +0.214 A 
BRANCH   2  15
ATOM     13  C   UNL     1       9.542   1.342  23.557  0.00  0.00    +0.162 A 
ATOM     14  C   UNL     1       8.590   0.746  24.378  0.00  0.00    +0.061 A 
ATOM     15  C   UNL     1       7.267   0.597  23.955  0.00  0.00    +0.025 A 
ATOM     16  C   UNL     1       6.903   1.052  22.673  0.00  0.00    +0.015 A 
ATOM     17  C   UNL     1       7.858   1.621  21.826  0.00  0.00    +0.050 A 
ATOM     18  C   UNL     1       9.162   1.768  22.281  0.00  0.00    +0.158 A 
BRANCH  18  19
ATOM     19  O   UNL     1      10.078   2.370  21.461  0.00  0.00    -0.503 OA
ATOM     20  H   UNL     1       9.608   2.510  20.615  0.00  0.00    +0.292 HD
ENDBRANCH  18  19
BRANCH  13  22
ATOM     21  C   UNL     1      11.501   0.670  24.733  0.00  0.00    +0.277 C 
ATOM     22  O   UNL     1      10.834   1.623  23.914  0.00  0.00    -0.491 OA
ENDBRANCH  13  22
ENDBRANCH   2  15
BRANCH   8  23
ATOM     23  O   UNL     1       2.022   3.227  27.796  0.00  0.00    -0.507 OA
ATOM     24  H   UNL     1       2.637   3.875  28.182  0.00  0.00    +0.292 HD
ENDBRANCH   8  23
BRANCH   6  25
ATOM     25  O   UNL     1       2.845  -1.410  28.412  0.00  0.00    -0.506 OA
ATOM     26  H   UNL     1       2.202  -1.895  27.849  0.00  0.00    +0.292 HD
ENDBRANCH   6  25
ENDBRANCH   1  12
BRANCH   1  27
ATOM     27  C   UNL     1       7.258  -2.967  24.316  0.00  0.00    +0.340 C 
ATOM     28  O   UNL     1       6.301  -4.023  24.576  0.00  0.00    -0.331 OA
ATOM     29  C   UNL     1       6.579  -4.875  25.699  0.00  0.00    +0.179 C 
ATOM     30  C   UNL     1       8.023  -5.409  25.754  0.00  0.00    +0.177 C 
ATOM     31  C   UNL     1       9.097  -4.396  25.314  0.00  0.00    +0.180 C 
ATOM     32  C   UNL     1       8.647  -3.607  24.078  0.00  0.00    +0.214 C 
BRANCH  32  33
ATOM     33  O   UNL     1       9.623  -2.628  23.696  0.00  0.00    -0.383 OA
ATOM     34  H   UNL     1      10.490  -2.913  24.029  0.00  0.00    +0.210 HD
ENDBRANCH  32  33
BRANCH  31  35
ATOM     35  O   UNL     1      10.325  -5.092  25.005  0.00  0.00    -0.386 OA
ATOM     36  H   UNL     1      10.318  -5.980  25.400  0.00  0.00    +0.210 HD
ENDBRANCH  31  35
BRANCH  30  37
ATOM     37  O   UNL     1       8.301  -5.880  27.083  0.00  0.00    -0.386 OA
ATOM     38  H   UNL     1       8.515  -6.829  27.060  0.00  0.00    +0.210 HD
ENDBRANCH  30  37
BRANCH  29  39
ATOM     39  C   UNL     1       5.418  -5.951  25.858  0.00  0.00    +0.197 C 
BRANCH  39  40
ATOM     40  O   UNL     1       4.266  -5.715  26.719  0.00  0.00    -0.346 OA
BRANCH  40  41
ATOM     41  C   UNL     1       4.257  -6.556  27.892  0.00  0.00    +0.281 C 
ATOM     42  O   UNL     1       2.901  -6.877  28.189  0.00  0.00    -0.346 OA
ATOM     43  C   UNL     1       2.166  -5.688  28.500  0.00  0.00    +0.197 C 
ATOM     44  C   UNL     1       2.570  -5.156  29.859  0.00  0.00    +0.171 C 
ATOM     45  C   UNL     1       4.079  -4.893  29.911  0.00  0.00    +0.178 C 
ATOM     46  C   UNL     1       4.903  -5.988  29.205  0.00  0.00    +0.201 C 
BRANCH  46  47
ATOM     47  O   UNL     1       6.262  -5.576  29.035  0.00  0.00    -0.384 OA
ATOM     48  H   UNL     1       6.590  -5.997  28.216  0.00  0.00    +0.210 HD
ENDBRANCH  46  47
BRANCH  45  49
ATOM     49  O   UNL     1       4.381  -3.592  29.365  0.00  0.00    -0.386 OA
ATOM     50  H   UNL     1       3.613  -3.331  28.806  0.00  0.00    +0.210 HD
ENDBRANCH  45  49
BRANCH  44  51
ATOM     51  O   UNL     1       1.834  -3.969  30.149  0.00  0.00    -0.387 OA
ATOM     52  H   UNL     1       2.136  -3.660  31.027  0.00  0.00    +0.210 HD
ENDBRANCH  44  51
ENDBRANCH  40  41
ENDBRANCH  39  40
ENDBRANCH  29  39
ENDBRANCH   1  27
TORSDOF 16
ENDMDL
