MODEL 1
REMARK VINA RESULT:      -7.3      0.000      0.000
REMARK  Name = 
REMARK  16 active torsions:
REMARK  status: ('A' for Active; 'I' for Inactive)
REMARK    1  A    between atoms: C_2  and  O_47
REMARK    2  A    between atoms: C_4  and  O_46
REMARK    3  A    between atoms: C_5  and  O_31
REMARK    4  A    between atoms: C_6  and  O_9
REMARK    5  A    between atoms: O_9  and  C_10
REMARK    6  A    between atoms: C_11  and  C_23
REMARK    7  A    between atoms: C_15  and  O_22
REMARK    8  A    between atoms: C_17  and  O_21
REMARK    9  A    between atoms: C_25  and  O_30
REMARK   10  A    between atoms: C_26  and  O_29
REMARK   11  A    between atoms: O_31  and  C_32
REMARK   12  A    between atoms: C_34  and  O_45
REMARK   13  A    between atoms: C_36  and  O_44
REMARK   14  A    between atoms: C_37  and  O_43
REMARK   15  A    between atoms: C_39  and  C_41
REMARK   16  A    between atoms: C_41  and  O_42
REMARK                            x       y       z     vdW  Elec       q    Type
REMARK                         _______ _______ _______ _____ _____    ______ ____
ROOT
ATOM      1  C   UNL     1       4.045  -0.592  28.614  0.00  0.00    +0.198 C 
ATOM      2  O   UNL     1       5.078  -0.233  27.683  0.00  0.00    -0.337 OA
ATOM      3  C   UNL     1       4.781  -0.739  26.381  0.00  0.00    +0.340 C 
ATOM      4  C   UNL     1       4.367  -2.271  26.360  0.00  0.00    +0.221 C 
ATOM      5  C   UNL     1       3.937  -2.902  27.716  0.00  0.00    +0.180 C 
ATOM      6  C   UNL     1       4.199  -2.059  28.959  0.00  0.00    +0.171 C 
ENDROOT
BRANCH   6   7
ATOM      7  O   UNL     1       3.261  -2.431  29.974  0.00  0.00    -0.387 OA
ATOM      8  H   UNL     1       3.559  -2.032  30.811  0.00  0.00    +0.210 HD
ENDBRANCH   6   7
BRANCH   5   9
ATOM      9  O   UNL     1       4.464  -4.217  27.951  0.00  0.00    -0.386 OA
ATOM     10  H   UNL     1       4.444  -4.706  27.108  0.00  0.00    +0.210 HD
ENDBRANCH   5   9
BRANCH   4  11
ATOM     11  O   UNL     1       5.262  -3.111  25.577  0.00  0.00    -0.337 OA
BRANCH  11  12
ATOM     12  C   UNL     1       4.702  -3.599  24.345  0.00  0.00    +0.282 C 
ATOM     13  O   UNL     1       3.737  -4.631  24.576  0.00  0.00    -0.341 OA
ATOM     14  C   UNL     1       4.224  -5.977  24.624  0.00  0.00    +0.178 C 
ATOM     15  C   UNL     1       5.051  -6.331  23.379  0.00  0.00    +0.177 C 
ATOM     16  C   UNL     1       6.204  -5.349  23.239  0.00  0.00    +0.179 C 
ATOM     17  C   UNL     1       5.755  -3.891  23.244  0.00  0.00    +0.201 C 
BRANCH  15  18
ATOM     18  O   UNL     1       4.232  -6.318  22.201  0.00  0.00    -0.386 OA
ATOM     19  H   UNL     1       3.358  -6.662  22.458  0.00  0.00    +0.210 HD
ENDBRANCH  15  18
BRANCH  16  20
ATOM     20  O   UNL     1       6.947  -5.650  22.049  0.00  0.00    -0.386 OA
ATOM     21  H   UNL     1       7.218  -4.783  21.688  0.00  0.00    +0.210 HD
ENDBRANCH  16  20
BRANCH  17  22
ATOM     22  O   UNL     1       5.251  -3.484  21.955  0.00  0.00    -0.384 OA
ATOM     23  H   UNL     1       4.589  -2.783  22.116  0.00  0.00    +0.210 HD
ENDBRANCH  17  22
BRANCH  14  24
ATOM     24  C   UNL     1       3.011  -6.924  24.702  0.00  0.00    +0.190 C 
BRANCH  24  25
ATOM     25  O   UNL     1       3.276  -8.182  24.082  0.00  0.00    -0.392 OA
ATOM     26  H   UNL     1       2.413  -8.634  24.030  0.00  0.00    +0.210 HD
ENDBRANCH  24  25
ENDBRANCH  14  24
ENDBRANCH  11  12
ENDBRANCH   4  11
BRANCH   3  27
ATOM     27  O   UNL     1       5.734  -0.541  25.319  0.00  0.00    -0.453 OA
BRANCH  27  28
ATOM     28  C   UNL     1       6.950   0.094  25.316  0.00  0.00    +0.214 A 
ATOM     29  C   UNL     1       6.878   1.582  25.076  0.00  0.00    +0.238 A 
ATOM     30  O   UNL     1       5.833   2.179  25.338  0.00  0.00    -0.283 OA
ATOM     31  C   UNL     1       8.054   2.270  24.491  0.00  0.00    +0.109 A 
ATOM     32  C   UNL     1       9.252   1.579  24.535  0.00  0.00    +0.147 A 
ATOM     33  C   UNL     1      10.441   2.179  24.096  0.00  0.00    +0.092 A 
ATOM     34  C   UNL     1      10.414   3.477  23.591  0.00  0.00    +0.124 A 
ATOM     35  C   UNL     1       9.217   4.171  23.490  0.00  0.00    +0.091 A 
ATOM     36  O   UNL     1       9.345   0.303  25.022  0.00  0.00    -0.451 OA
ATOM     37  C   UNL     1       8.034   3.565  23.941  0.00  0.00    +0.135 A 
ATOM     38  C   UNL     1       8.184  -0.457  25.207  0.00  0.00    +0.181 A 
BRANCH  38  39
ATOM     39  C   UNL     1       8.509  -1.909  25.151  0.00  0.00    +0.025 A 
ATOM     40  C   UNL     1       9.187  -2.471  24.056  0.00  0.00    +0.015 A 
ATOM     41  C   UNL     1       9.607  -3.803  24.050  0.00  0.00    +0.050 A 
ATOM     42  C   UNL     1       9.409  -4.576  25.177  0.00  0.00    +0.158 A 
ATOM     43  C   UNL     1       8.754  -4.054  26.285  0.00  0.00    +0.159 A 
ATOM     44  C   UNL     1       8.300  -2.735  26.279  0.00  0.00    +0.060 A 
BRANCH  42  45
ATOM     45  O   UNL     1       9.903  -5.846  25.202  0.00  0.00    -0.503 OA
ATOM     46  H   UNL     1       9.137  -6.402  25.452  0.00  0.00    +0.292 HD
ENDBRANCH  42  45
BRANCH  43  47
ATOM     47  O   UNL     1       8.635  -4.862  27.385  0.00  0.00    -0.503 OA
ATOM     48  H   UNL     1       8.381  -5.752  27.087  0.00  0.00    +0.292 HD
ENDBRANCH  43  47
ENDBRANCH  38  39
BRANCH  34  49
ATOM     49  O   UNL     1      11.546   4.116  23.183  0.00  0.00    -0.507 OA
ATOM     50  H   UNL     1      12.259   3.466  23.059  0.00  0.00    +0.292 HD
ENDBRANCH  34  49
BRANCH  37  51
ATOM     51  O   UNL     1       6.861   4.252  23.803  0.00  0.00    -0.506 OA
ATOM     52  H   UNL     1       6.577   4.268  22.875  0.00  0.00    +0.292 HD
ENDBRANCH  37  51
ENDBRANCH  27  28
ENDBRANCH   3  27
TORSDOF 16
ENDMDL
MODEL 2
REMARK VINA RESULT:      -7.2      2.530      8.029
REMARK  Name = 
REMARK  16 active torsions:
REMARK  status: ('A' for Active; 'I' for Inactive)
REMARK    1  A    between atoms: C_2  and  O_47
REMARK    2  A    between atoms: C_4  and  O_46
REMARK    3  A    between atoms: C_5  and  O_31
REMARK    4  A    between atoms: C_6  and  O_9
REMARK    5  A    between atoms: O_9  and  C_10
REMARK    6  A    between atoms: C_11  and  C_23
REMARK    7  A    between atoms: C_15  and  O_22
REMARK    8  A    between atoms: C_17  and  O_21
REMARK    9  A    between atoms: C_25  and  O_30
REMARK   10  A    between atoms: C_26  and  O_29
REMARK   11  A    between atoms: O_31  and  C_32
REMARK   12  A    between atoms: C_34  and  O_45
REMARK   13  A    between atoms: C_36  and  O_44
REMARK   14  A    between atoms: C_37  and  O_43
REMARK   15  A    between atoms: C_39  and  C_41
REMARK   16  A    between atoms: C_41  and  O_42
REMARK                            x       y       z     vdW  Elec       q    Type
REMARK                         _______ _______ _______ _____ _____    ______ ____
ROOT
ATOM      1  C   UNL     1       7.340   0.606  28.462  0.00  0.00    +0.198 C 
ATOM      2  O   UNL     1       6.434   0.076  27.483  0.00  0.00    -0.337 OA
ATOM      3  C   UNL     1       6.790   0.521  26.173  0.00  0.00    +0.340 C 
ATOM      4  C   UNL     1       7.048   2.084  26.067  0.00  0.00    +0.221 C 
ATOM      5  C   UNL     1       7.293   2.849  27.400  0.00  0.00    +0.180 C 
ATOM      6  C   UNL     1       7.009   2.069  28.679  0.00  0.00    +0.171 C 
ENDROOT
BRANCH   6   7
ATOM      7  O   UNL     1       7.813   2.608  29.734  0.00  0.00    -0.387 OA
ATOM      8  H   UNL     1       7.493   2.228  30.572  0.00  0.00    +0.210 HD
ENDBRANCH   6   7
BRANCH   5   9
ATOM      9  O   UNL     1       6.617   4.112  27.490  0.00  0.00    -0.386 OA
ATOM     10  H   UNL     1       5.679   3.940  27.695  0.00  0.00    +0.210 HD
ENDBRANCH   5   9
BRANCH   4  11
ATOM     11  O   UNL     1       6.144   2.767  25.152  0.00  0.00    -0.337 OA
BRANCH  11  12
ATOM     12  C   UNL     1       6.753   3.211  23.927  0.00  0.00    +0.282 C 
ATOM     13  O   UNL     1       8.013   3.847  24.164  0.00  0.00    -0.341 OA
ATOM     14  C   UNL     1       7.993   5.261  24.401  0.00  0.00    +0.178 C 
ATOM     15  C   UNL     1       7.248   6.016  23.289  0.00  0.00    +0.177 C 
ATOM     16  C   UNL     1       5.833   5.473  23.167  0.00  0.00    +0.179 C 
ATOM     17  C   UNL     1       5.784   3.960  22.975  0.00  0.00    +0.201 C 
BRANCH  15  18
ATOM     18  O   UNL     1       7.943   5.900  22.039  0.00  0.00    -0.386 OA
ATOM     19  H   UNL     1       8.866   5.672  22.246  0.00  0.00    +0.210 HD
ENDBRANCH  15  18
BRANCH  16  20
ATOM     20  O   UNL     1       5.154   6.146  22.096  0.00  0.00    -0.386 OA
ATOM     21  H   UNL     1       4.698   5.439  21.597  0.00  0.00    +0.210 HD
ENDBRANCH  16  20
BRANCH  17  22
ATOM     22  O   UNL     1       6.046   3.588  21.606  0.00  0.00    -0.384 OA
ATOM     23  H   UNL     1       6.973   3.834  21.416  0.00  0.00    +0.210 HD
ENDBRANCH  17  22
BRANCH  14  24
ATOM     24  C   UNL     1       9.450   5.760  24.452  0.00  0.00    +0.190 C 
BRANCH  24  25
ATOM     25  O   UNL     1      10.223   5.263  23.360  0.00  0.00    -0.392 OA
ATOM     26  H   UNL     1      10.354   4.314  23.543  0.00  0.00    +0.210 HD
ENDBRANCH  24  25
ENDBRANCH  14  24
ENDBRANCH  11  12
ENDBRANCH   4  11
BRANCH   3  27
ATOM     27  O   UNL     1       5.958   0.150  25.057  0.00  0.00    -0.453 OA
BRANCH  27  28
ATOM     28  C   UNL     1       6.070  -0.885  24.164  0.00  0.00    +0.214 A 
ATOM     29  C   UNL     1       5.242  -2.099  24.506  0.00  0.00    +0.238 A 
ATOM     30  O   UNL     1       4.249  -1.963  25.223  0.00  0.00    -0.283 OA
ATOM     31  C   UNL     1       5.677  -3.425  24.005  0.00  0.00    +0.109 A 
ATOM     32  C   UNL     1       6.598  -3.418  22.972  0.00  0.00    +0.147 A 
ATOM     33  C   UNL     1       7.000  -4.615  22.363  0.00  0.00    +0.092 A 
ATOM     34  C   UNL     1       6.483  -5.827  22.815  0.00  0.00    +0.124 A 
ATOM     35  C   UNL     1       5.598  -5.863  23.882  0.00  0.00    +0.091 A 
ATOM     36  O   UNL     1       7.140  -2.260  22.482  0.00  0.00    -0.451 OA
ATOM     37  C   UNL     1       5.194  -4.659  24.478  0.00  0.00    +0.135 A 
ATOM     38  C   UNL     1       7.015  -1.070  23.210  0.00  0.00    +0.181 A 
BRANCH  38  39
ATOM     39  C   UNL     1       8.117  -0.135  22.853  0.00  0.00    +0.025 A 
ATOM     40  C   UNL     1       8.020   0.733  21.753  0.00  0.00    +0.015 A 
ATOM     41  C   UNL     1       8.992   1.700  21.485  0.00  0.00    +0.050 A 
ATOM     42  C   UNL     1      10.047   1.853  22.362  0.00  0.00    +0.158 A 
ATOM     43  C   UNL     1      10.173   1.024  23.468  0.00  0.00    +0.159 A 
ATOM     44  C   UNL     1       9.223   0.032  23.718  0.00  0.00    +0.060 A 
BRANCH  42  45
ATOM     45  O   UNL     1      10.943   2.859  22.149  0.00  0.00    -0.503 OA
ATOM     46  H   UNL     1      10.484   3.666  22.462  0.00  0.00    +0.292 HD
ENDBRANCH  42  45
BRANCH  43  47
ATOM     47  O   UNL     1      11.218   1.264  24.321  0.00  0.00    -0.503 OA
ATOM     48  H   UNL     1      10.892   1.193  25.234  0.00  0.00    +0.292 HD
ENDBRANCH  43  47
ENDBRANCH  38  39
BRANCH  34  49
ATOM     49  O   UNL     1       6.818  -7.014  22.235  0.00  0.00    -0.507 OA
ATOM     50  H   UNL     1       7.649  -7.341  22.619  0.00  0.00    +0.292 HD
ENDBRANCH  34  49
BRANCH  37  51
ATOM     51  O   UNL     1       4.346  -4.718  25.548  0.00  0.00    -0.506 OA
ATOM     52  H   UNL     1       4.497  -5.527  26.064  0.00  0.00    +0.292 HD
ENDBRANCH  37  51
ENDBRANCH  27  28
ENDBRANCH   3  27
TORSDOF 16
ENDMDL
MODEL 3
REMARK VINA RESULT:      -7.0      1.941      3.200
REMARK  Name = 
REMARK  16 active torsions:
REMARK  status: ('A' for Active; 'I' for Inactive)
REMARK    1  A    between atoms: C_2  and  O_47
REMARK    2  A    between atoms: C_4  and  O_46
REMARK    3  A    between atoms: C_5  and  O_31
REMARK    4  A    between atoms: C_6  and  O_9
REMARK    5  A    between atoms: O_9  and  C_10
REMARK    6  A    between atoms: C_11  and  C_23
REMARK    7  A    between atoms: C_15  and  O_22
REMARK    8  A    between atoms: C_17  and  O_21
REMARK    9  A    between atoms: C_25  and  O_30
REMARK   10  A    between atoms: C_26  and  O_29
REMARK   11  A    between atoms: O_31  and  C_32
REMARK   12  A    between atoms: C_34  and  O_45
REMARK   13  A    between atoms: C_36  and  O_44
REMARK   14  A    between atoms: C_37  and  O_43
REMARK   15  A    between atoms: C_39  and  C_41
REMARK   16  A    between atoms: C_41  and  O_42
REMARK                            x       y       z     vdW  Elec       q    Type
REMARK                         _______ _______ _______ _____ _____    ______ ____
ROOT
ATOM      1  C   UNL     1       3.216   0.610  27.081  0.00  0.00    +0.198 C 
ATOM      2  O   UNL     1       4.626   0.341  27.077  0.00  0.00    -0.337 OA
ATOM      3  C   UNL     1       4.893  -0.939  26.503  0.00  0.00    +0.340 C 
ATOM      4  C   UNL     1       3.992  -2.110  27.082  0.00  0.00    +0.221 C 
ATOM      5  C   UNL     1       2.704  -1.693  27.849  0.00  0.00    +0.180 C 
ATOM      6  C   UNL     1       2.574  -0.211  28.181  0.00  0.00    +0.171 C 
ENDROOT
BRANCH   6   7
ATOM      7  O   UNL     1       1.186   0.115  28.298  0.00  0.00    -0.387 OA
ATOM      8  H   UNL     1       1.027   0.920  27.773  0.00  0.00    +0.210 HD
ENDBRANCH   6   7
BRANCH   5   9
ATOM      9  O   UNL     1       2.462  -2.440  29.051  0.00  0.00    -0.386 OA
ATOM     10  H   UNL     1       1.895  -1.902  29.634  0.00  0.00    +0.210 HD
ENDBRANCH   5   9
BRANCH   4  11
ATOM     11  O   UNL     1       4.752  -3.166  27.737  0.00  0.00    -0.337 OA
BRANCH  11  12
ATOM     12  C   UNL     1       5.022  -4.312  26.910  0.00  0.00    +0.282 C 
ATOM     13  O   UNL     1       3.884  -4.672  26.119  0.00  0.00    -0.341 OA
ATOM     14  C   UNL     1       2.955  -5.595  26.701  0.00  0.00    +0.178 C 
ATOM     15  C   UNL     1       3.650  -6.872  27.194  0.00  0.00    +0.177 C 
ATOM     16  C   UNL     1       4.738  -6.506  28.193  0.00  0.00    +0.179 C 
ATOM     17  C   UNL     1       5.726  -5.476  27.654  0.00  0.00    +0.201 C 
BRANCH  15  18
ATOM     18  O   UNL     1       4.204  -7.610  26.095  0.00  0.00    -0.386 OA
ATOM     19  H   UNL     1       4.097  -7.059  25.299  0.00  0.00    +0.210 HD
ENDBRANCH  15  18
BRANCH  16  20
ATOM     20  O   UNL     1       5.419  -7.696  28.616  0.00  0.00    -0.386 OA
ATOM     21  H   UNL     1       5.237  -8.357  27.919  0.00  0.00    +0.210 HD
ENDBRANCH  16  20
BRANCH  17  22
ATOM     22  O   UNL     1       6.716  -6.085  26.799  0.00  0.00    -0.384 OA
ATOM     23  H   UNL     1       6.976  -5.412  26.138  0.00  0.00    +0.210 HD
ENDBRANCH  17  22
BRANCH  14  24
ATOM     24  C   UNL     1       1.919  -5.975  25.626  0.00  0.00    +0.190 C 
BRANCH  24  25
ATOM     25  O   UNL     1       2.538  -6.318  24.387  0.00  0.00    -0.392 OA
ATOM     26  H   UNL     1       2.354  -5.571  23.787  0.00  0.00    +0.210 HD
ENDBRANCH  24  25
ENDBRANCH  14  24
ENDBRANCH  11  12
ENDBRANCH   4  11
BRANCH   3  27
ATOM     27  O   UNL     1       6.250  -1.422  26.470  0.00  0.00    -0.453 OA
BRANCH  27  28
ATOM     28  C   UNL     1       7.289  -1.113  25.629  0.00  0.00    +0.214 A 
ATOM     29  C   UNL     1       7.864   0.269  25.825  0.00  0.00    +0.238 A 
ATOM     30  O   UNL     1       7.721   0.826  26.915  0.00  0.00    -0.283 OA
ATOM     31  C   UNL     1       8.542   0.930  24.685  0.00  0.00    +0.109 A 
ATOM     32  C   UNL     1       8.918   0.109  23.636  0.00  0.00    +0.147 A 
ATOM     33  C   UNL     1       9.650   0.618  22.554  0.00  0.00    +0.092 A 
ATOM     34  C   UNL     1       9.987   1.969  22.525  0.00  0.00    +0.124 A 
ATOM     35  C   UNL     1       9.578   2.822  23.539  0.00  0.00    +0.091 A 
ATOM     36  O   UNL     1       8.618  -1.227  23.608  0.00  0.00    -0.451 OA
ATOM     37  C   UNL     1       8.854   2.300  24.622  0.00  0.00    +0.135 A 
ATOM     38  C   UNL     1       7.661  -1.745  24.489  0.00  0.00    +0.181 A 
BRANCH  38  39
ATOM     39  C   UNL     1       7.069  -2.990  23.926  0.00  0.00    +0.025 A 
ATOM     40  C   UNL     1       7.782  -4.200  23.903  0.00  0.00    +0.015 A 
ATOM     41  C   UNL     1       7.192  -5.398  23.494  0.00  0.00    +0.050 A 
ATOM     42  C   UNL     1       5.851  -5.410  23.163  0.00  0.00    +0.158 A 
ATOM     43  C   UNL     1       5.109  -4.237  23.185  0.00  0.00    +0.159 A 
ATOM     44  C   UNL     1       5.705  -3.031  23.557  0.00  0.00    +0.060 A 
BRANCH  42  45
ATOM     45  O   UNL     1       5.257  -6.597  22.855  0.00  0.00    -0.503 OA
ATOM     46  H   UNL     1       5.908  -7.057  22.287  0.00  0.00    +0.292 HD
ENDBRANCH  42  45
BRANCH  43  47
ATOM     47  O   UNL     1       3.774  -4.330  22.891  0.00  0.00    -0.503 OA
ATOM     48  H   UNL     1       3.350  -3.486  23.120  0.00  0.00    +0.292 HD
ENDBRANCH  43  47
ENDBRANCH  38  39
BRANCH  34  49
ATOM     49  O   UNL     1      10.726   2.506  21.512  0.00  0.00    -0.507 OA
ATOM     50  H   UNL     1      11.400   3.101  21.882  0.00  0.00    +0.292 HD
ENDBRANCH  34  49
BRANCH  37  51
ATOM     51  O   UNL     1       8.434   3.162  25.595  0.00  0.00    -0.506 OA
ATOM     52  H   UNL     1       7.659   3.667  25.299  0.00  0.00    +0.292 HD
ENDBRANCH  37  51
ENDBRANCH  27  28
ENDBRANCH   3  27
TORSDOF 16
ENDMDL
MODEL 4
REMARK VINA RESULT:      -6.9      2.231      6.322
REMARK  Name = 
REMARK  16 active torsions:
REMARK  status: ('A' for Active; 'I' for Inactive)
REMARK    1  A    between atoms: C_2  and  O_47
REMARK    2  A    between atoms: C_4  and  O_46
REMARK    3  A    between atoms: C_5  and  O_31
REMARK    4  A    between atoms: C_6  and  O_9
REMARK    5  A    between atoms: O_9  and  C_10
REMARK    6  A    between atoms: C_11  and  C_23
REMARK    7  A    between atoms: C_15  and  O_22
REMARK    8  A    between atoms: C_17  and  O_21
REMARK    9  A    between atoms: C_25  and  O_30
REMARK   10  A    between atoms: C_26  and  O_29
REMARK   11  A    between atoms: O_31  and  C_32
REMARK   12  A    between atoms: C_34  and  O_45
REMARK   13  A    between atoms: C_36  and  O_44
REMARK   14  A    between atoms: C_37  and  O_43
REMARK   15  A    between atoms: C_39  and  C_41
REMARK   16  A    between atoms: C_41  and  O_42
REMARK                            x       y       z     vdW  Elec       q    Type
REMARK                         _______ _______ _______ _____ _____    ______ ____
ROOT
ATOM      1  C   UNL     1       4.965  -4.721  22.901  0.00  0.00    +0.198 C 
ATOM      2  O   UNL     1       4.911  -3.880  24.063  0.00  0.00    -0.337 OA
ATOM      3  C   UNL     1       5.890  -2.843  23.980  0.00  0.00    +0.340 C 
ATOM      4  C   UNL     1       7.342  -3.351  23.591  0.00  0.00    +0.221 C 
ATOM      5  C   UNL     1       7.446  -4.770  22.960  0.00  0.00    +0.180 C 
ATOM      6  C   UNL     1       6.180  -5.619  23.015  0.00  0.00    +0.171 C 
ENDROOT
BRANCH   6   7
ATOM      7  O   UNL     1       6.208  -6.556  21.933  0.00  0.00    -0.387 OA
ATOM      8  H   UNL     1       6.974  -6.338  21.373  0.00  0.00    +0.210 HD
ENDBRANCH   6   7
BRANCH   5   9
ATOM      9  O   UNL     1       8.534  -5.562  23.459  0.00  0.00    -0.386 OA
ATOM     10  H   UNL     1       9.367  -5.102  23.245  0.00  0.00    +0.210 HD
ENDBRANCH   5   9
BRANCH   4  11
ATOM     11  O   UNL     1       8.350  -3.083  24.607  0.00  0.00    -0.337 OA
BRANCH  11  12
ATOM     12  C   UNL     1       9.392  -2.180  24.196  0.00  0.00    +0.282 C 
ATOM     13  O   UNL     1       9.339  -0.948  24.922  0.00  0.00    -0.341 OA
ATOM     14  C   UNL     1       8.527   0.097  24.371  0.00  0.00    +0.178 C 
ATOM     15  C   UNL     1       8.890   0.390  22.907  0.00  0.00    +0.177 C 
ATOM     16  C   UNL     1       8.755  -0.884  22.086  0.00  0.00    +0.179 C 
ATOM     17  C   UNL     1       9.548  -2.054  22.658  0.00  0.00    +0.201 C 
BRANCH  15  18
ATOM     18  O   UNL     1      10.220   0.917  22.806  0.00  0.00    -0.386 OA
ATOM     19  H   UNL     1      10.640   0.487  22.039  0.00  0.00    +0.210 HD
ENDBRANCH  15  18
BRANCH  16  20
ATOM     20  O   UNL     1       9.140  -0.620  20.729  0.00  0.00    -0.386 OA
ATOM     21  H   UNL     1       9.343   0.336  20.701  0.00  0.00    +0.210 HD
ENDBRANCH  16  20
BRANCH  17  22
ATOM     22  O   UNL     1      10.945  -1.974  22.306  0.00  0.00    -0.384 OA
ATOM     23  H   UNL     1      11.248  -2.888  22.134  0.00  0.00    +0.210 HD
ENDBRANCH  17  22
BRANCH  14  24
ATOM     24  C   UNL     1       8.755   1.372  25.205  0.00  0.00    +0.190 C 
BRANCH  24  25
ATOM     25  O   UNL     1       7.874   1.441  26.325  0.00  0.00    -0.392 OA
ATOM     26  H   UNL     1       7.300   2.213  26.159  0.00  0.00    +0.210 HD
ENDBRANCH  24  25
ENDBRANCH  14  24
ENDBRANCH  11  12
ENDBRANCH   4  11
BRANCH   3  27
ATOM     27  O   UNL     1       6.040  -1.931  25.085  0.00  0.00    -0.453 OA
BRANCH  27  28
ATOM     28  C   UNL     1       5.116  -1.446  25.975  0.00  0.00    +0.214 A 
ATOM     29  C   UNL     1       4.918   0.050  25.919  0.00  0.00    +0.238 A 
ATOM     30  O   UNL     1       5.201   0.651  24.882  0.00  0.00    -0.283 OA
ATOM     31  C   UNL     1       4.433   0.752  27.131  0.00  0.00    +0.109 A 
ATOM     32  C   UNL     1       3.856  -0.039  28.109  0.00  0.00    +0.147 A 
ATOM     33  C   UNL     1       3.280   0.538  29.250  0.00  0.00    +0.092 A 
ATOM     34  C   UNL     1       3.304   1.921  29.410  0.00  0.00    +0.124 A 
ATOM     35  C   UNL     1       3.921   2.731  28.468  0.00  0.00    +0.091 A 
ATOM     36  O   UNL     1       3.800  -1.404  28.007  0.00  0.00    -0.451 OA
ATOM     37  C   UNL     1       4.486   2.145  27.326  0.00  0.00    +0.135 A 
ATOM     38  C   UNL     1       4.591  -2.065  27.061  0.00  0.00    +0.181 A 
BRANCH  38  39
ATOM     39  C   UNL     1       4.840  -3.468  27.494  0.00  0.00    +0.025 A 
ATOM     40  C   UNL     1       3.786  -4.365  27.730  0.00  0.00    +0.015 A 
ATOM     41  C   UNL     1       4.011  -5.714  28.013  0.00  0.00    +0.050 A 
ATOM     42  C   UNL     1       5.304  -6.198  27.997  0.00  0.00    +0.158 A 
ATOM     43  C   UNL     1       6.374  -5.346  27.756  0.00  0.00    +0.159 A 
ATOM     44  C   UNL     1       6.154  -3.990  27.510  0.00  0.00    +0.060 A 
BRANCH  42  45
ATOM     45  O   UNL     1       5.513  -7.533  28.181  0.00  0.00    -0.503 OA
ATOM     46  H   UNL     1       5.879  -7.600  29.087  0.00  0.00    +0.292 HD
ENDBRANCH  42  45
BRANCH  43  47
ATOM     47  O   UNL     1       7.625  -5.903  27.708  0.00  0.00    -0.503 OA
ATOM     48  H   UNL     1       7.928  -5.897  26.785  0.00  0.00    +0.292 HD
ENDBRANCH  43  47
ENDBRANCH  38  39
BRANCH  34  49
ATOM     49  O   UNL     1       2.728   2.531  30.484  0.00  0.00    -0.507 OA
ATOM     50  H   UNL     1       3.337   3.198  30.844  0.00  0.00    +0.292 HD
ENDBRANCH  34  49
BRANCH  37  51
ATOM     51  O   UNL     1       5.116   2.957  26.426  0.00  0.00    -0.506 OA
ATOM     52  H   UNL     1       4.573   3.079  25.630  0.00  0.00    +0.292 HD
ENDBRANCH  37  51
ENDBRANCH  27  28
ENDBRANCH   3  27
TORSDOF 16
ENDMDL
MODEL 5
REMARK VINA RESULT:      -6.8      1.904      5.018
REMARK  Name = 
REMARK  16 active torsions:
REMARK  status: ('A' for Active; 'I' for Inactive)
REMARK    1  A    between atoms: C_2  and  O_47
REMARK    2  A    between atoms: C_4  and  O_46
REMARK    3  A    between atoms: C_5  and  O_31
REMARK    4  A    between atoms: C_6  and  O_9
REMARK    5  A    between atoms: O_9  and  C_10
REMARK    6  A    between atoms: C_11  and  C_23
REMARK    7  A    between atoms: C_15  and  O_22
REMARK    8  A    between atoms: C_17  and  O_21
REMARK    9  A    between atoms: C_25  and  O_30
REMARK   10  A    between atoms: C_26  and  O_29
REMARK   11  A    between atoms: O_31  and  C_32
REMARK   12  A    between atoms: C_34  and  O_45
REMARK   13  A    between atoms: C_36  and  O_44
REMARK   14  A    between atoms: C_37  and  O_43
REMARK   15  A    between atoms: C_39  and  C_41
REMARK   16  A    between atoms: C_41  and  O_42
REMARK                            x       y       z     vdW  Elec       q    Type
REMARK                         _______ _______ _______ _____ _____    ______ ____
ROOT
ATOM      1  C   UNL     1       6.877  -5.517  27.515  0.00  0.00    +0.198 C 
ATOM      2  O   UNL     1       7.174  -4.385  26.683  0.00  0.00    -0.337 OA
ATOM      3  C   UNL     1       6.399  -3.252  27.078  0.00  0.00    +0.340 C 
ATOM      4  C   UNL     1       4.853  -3.557  27.264  0.00  0.00    +0.221 C 
ATOM      5  C   UNL     1       4.442  -5.051  27.407  0.00  0.00    +0.180 C 
ATOM      6  C   UNL     1       5.530  -6.075  27.103  0.00  0.00    +0.171 C 
ENDROOT
BRANCH   6   7
ATOM      7  O   UNL     1       5.248  -7.276  27.828  0.00  0.00    -0.387 OA
ATOM      8  H   UNL     1       4.448  -7.674  27.439  0.00  0.00    +0.210 HD
ENDBRANCH   6   7
BRANCH   5   9
ATOM      9  O   UNL     1       3.268  -5.416  26.666  0.00  0.00    -0.386 OA
ATOM     10  H   UNL     1       2.795  -4.598  26.426  0.00  0.00    +0.210 HD
ENDBRANCH   5   9
BRANCH   4  11
ATOM     11  O   UNL     1       3.993  -2.792  26.371  0.00  0.00    -0.337 OA
BRANCH  11  12
ATOM     12  C   UNL     1       3.164  -1.817  27.027  0.00  0.00    +0.282 C 
ATOM     13  O   UNL     1       3.246  -0.538  26.388  0.00  0.00    -0.341 OA
ATOM     14  C   UNL     1       4.269   0.354  26.849  0.00  0.00    +0.178 C 
ATOM     15  C   UNL     1       4.209   0.555  28.370  0.00  0.00    +0.177 C 
ATOM     16  C   UNL     1       4.321  -0.794  29.066  0.00  0.00    +0.179 C 
ATOM     17  C   UNL     1       3.297  -1.811  28.573  0.00  0.00    +0.201 C 
BRANCH  15  18
ATOM     18  O   UNL     1       2.995   1.219  28.751  0.00  0.00    -0.386 OA
ATOM     19  H   UNL     1       2.323   0.528  28.887  0.00  0.00    +0.210 HD
ENDBRANCH  15  18
BRANCH  16  20
ATOM     20  O   UNL     1       4.216  -0.609  30.485  0.00  0.00    -0.386 OA
ATOM     21  H   UNL     1       4.405  -1.487  30.873  0.00  0.00    +0.210 HD
ENDBRANCH  16  20
BRANCH  17  22
ATOM     22  O   UNL     1       2.005  -1.604  29.181  0.00  0.00    -0.384 OA
ATOM     23  H   UNL     1       1.942  -0.653  29.400  0.00  0.00    +0.210 HD
ENDBRANCH  17  22
BRANCH  14  24
ATOM     24  C   UNL     1       4.064   1.716  26.158  0.00  0.00    +0.190 C 
BRANCH  24  25
ATOM     25  O   UNL     1       2.694   1.947  25.830  0.00  0.00    -0.392 OA
ATOM     26  H   UNL     1       2.511   1.378  25.059  0.00  0.00    +0.210 HD
ENDBRANCH  24  25
ENDBRANCH  14  24
ENDBRANCH  11  12
ENDBRANCH   4  11
BRANCH   3  27
ATOM     27  O   UNL     1       6.505  -2.032  26.319  0.00  0.00    -0.453 OA
BRANCH  27  28
ATOM     28  C   UNL     1       7.486  -1.591  25.468  0.00  0.00    +0.214 A 
ATOM     29  C   UNL     1       8.013  -0.212  25.780  0.00  0.00    +0.238 A 
ATOM     30  O   UNL     1       7.903   0.224  26.927  0.00  0.00    -0.283 OA
ATOM     31  C   UNL     1       8.605   0.592  24.684  0.00  0.00    +0.109 A 
ATOM     32  C   UNL     1       8.960  -0.100  23.540  0.00  0.00    +0.147 A 
ATOM     33  C   UNL     1       9.615   0.551  22.484  0.00  0.00    +0.092 A 
ATOM     34  C   UNL     1       9.894   1.912  22.579  0.00  0.00    +0.124 A 
ATOM     35  C   UNL     1       9.503   2.637  23.695  0.00  0.00    +0.091 A 
ATOM     36  O   UNL     1       8.715  -1.438  23.387  0.00  0.00    -0.451 OA
ATOM     37  C   UNL     1       8.856   1.975  24.750  0.00  0.00    +0.135 A 
ATOM     38  C   UNL     1       7.826  -2.086  24.252  0.00  0.00    +0.181 A 
BRANCH  38  39
ATOM     39  C   UNL     1       7.257  -3.293  23.591  0.00  0.00    +0.025 A 
ATOM     40  C   UNL     1       8.037  -4.436  23.348  0.00  0.00    +0.015 A 
ATOM     41  C   UNL     1       7.484  -5.616  22.844  0.00  0.00    +0.050 A 
ATOM     42  C   UNL     1       6.120  -5.685  22.639  0.00  0.00    +0.158 A 
ATOM     43  C   UNL     1       5.313  -4.581  22.880  0.00  0.00    +0.159 A 
ATOM     44  C   UNL     1       5.868  -3.389  23.347  0.00  0.00    +0.060 A 
BRANCH  42  45
ATOM     45  O   UNL     1       5.571  -6.867  22.237  0.00  0.00    -0.503 OA
ATOM     46  H   UNL     1       4.740  -6.610  21.787  0.00  0.00    +0.292 HD
ENDBRANCH  42  45
BRANCH  43  47
ATOM     47  O   UNL     1       3.963  -4.736  22.701  0.00  0.00    -0.503 OA
ATOM     48  H   UNL     1       3.729  -4.393  21.822  0.00  0.00    +0.292 HD
ENDBRANCH  43  47
ENDBRANCH  38  39
BRANCH  34  49
ATOM     49  O   UNL     1      10.557   2.582  21.595  0.00  0.00    -0.507 OA
ATOM     50  H   UNL     1       9.916   2.975  20.980  0.00  0.00    +0.292 HD
ENDBRANCH  34  49
BRANCH  37  51
ATOM     51  O   UNL     1       8.451   2.713  25.826  0.00  0.00    -0.506 OA
ATOM     52  H   UNL     1       7.814   3.395  25.558  0.00  0.00    +0.292 HD
ENDBRANCH  37  51
ENDBRANCH  27  28
ENDBRANCH   3  27
TORSDOF 16
ENDMDL
MODEL 6
REMARK VINA RESULT:      -6.6      2.278      8.587
REMARK  Name = 
REMARK  16 active torsions:
REMARK  status: ('A' for Active; 'I' for Inactive)
REMARK    1  A    between atoms: C_2  and  O_47
REMARK    2  A    between atoms: C_4  and  O_46
REMARK    3  A    between atoms: C_5  and  O_31
REMARK    4  A    between atoms: C_6  and  O_9
REMARK    5  A    between atoms: O_9  and  C_10
REMARK    6  A    between atoms: C_11  and  C_23
REMARK    7  A    between atoms: C_15  and  O_22
REMARK    8  A    between atoms: C_17  and  O_21
REMARK    9  A    between atoms: C_25  and  O_30
REMARK   10  A    between atoms: C_26  and  O_29
REMARK   11  A    between atoms: O_31  and  C_32
REMARK   12  A    between atoms: C_34  and  O_45
REMARK   13  A    between atoms: C_36  and  O_44
REMARK   14  A    between atoms: C_37  and  O_43
REMARK   15  A    between atoms: C_39  and  C_41
REMARK   16  A    between atoms: C_41  and  O_42
REMARK                            x       y       z     vdW  Elec       q    Type
REMARK                         _______ _______ _______ _____ _____    ______ ____
ROOT
ATOM      1  C   UNL     1      10.535   0.837  23.432  0.00  0.00    +0.198 C 
ATOM      2  O   UNL     1       9.448   0.013  23.882  0.00  0.00    -0.337 OA
ATOM      3  C   UNL     1       8.253   0.319  23.164  0.00  0.00    +0.340 C 
ATOM      4  C   UNL     1       7.925   1.870  23.081  0.00  0.00    +0.221 C 
ATOM      5  C   UNL     1       9.089   2.853  23.397  0.00  0.00    +0.180 C 
ATOM      6  C   UNL     1      10.345   2.231  23.995  0.00  0.00    +0.171 C 
ENDROOT
BRANCH   6   7
ATOM      7  O   UNL     1      11.468   3.055  23.668  0.00  0.00    -0.387 OA
ATOM      8  H   UNL     1      12.009   3.150  24.472  0.00  0.00    +0.210 HD
ENDBRANCH   6   7
BRANCH   5   9
ATOM      9  O   UNL     1       8.714   3.971  24.215  0.00  0.00    -0.386 OA
ATOM     10  H   UNL     1       7.958   3.702  24.768  0.00  0.00    +0.210 HD
ENDBRANCH   5   9
BRANCH   4  11
ATOM     11  O   UNL     1       6.659   2.236  23.701  0.00  0.00    -0.337 OA
BRANCH  11  12
ATOM     12  C   UNL     1       5.719   2.870  22.817  0.00  0.00    +0.282 C 
ATOM     13  O   UNL     1       6.251   4.076  22.257  0.00  0.00    -0.341 OA
ATOM     14  C   UNL     1       6.030   5.286  22.992  0.00  0.00    +0.178 C 
ATOM     15  C   UNL     1       4.543   5.494  23.317  0.00  0.00    +0.177 C 
ATOM     16  C   UNL     1       4.019   4.294  24.091  0.00  0.00    +0.179 C 
ATOM     17  C   UNL     1       4.280   2.966  23.388  0.00  0.00    +0.201 C 
BRANCH  15  18
ATOM     18  O   UNL     1       3.781   5.693  22.117  0.00  0.00    -0.386 OA
ATOM     19  H   UNL     1       3.511   4.812  21.802  0.00  0.00    +0.210 HD
ENDBRANCH  15  18
BRANCH  16  20
ATOM     20  O   UNL     1       2.618   4.468  24.351  0.00  0.00    -0.386 OA
ATOM     21  H   UNL     1       2.529   5.388  24.672  0.00  0.00    +0.210 HD
ENDBRANCH  16  20
BRANCH  17  22
ATOM     22  O   UNL     1       3.314   2.716  22.345  0.00  0.00    -0.384 OA
ATOM     23  H   UNL     1       3.816   2.602  21.513  0.00  0.00    +0.210 HD
ENDBRANCH  17  22
BRANCH  14  24
ATOM     24  C   UNL     1       6.522   6.466  22.133  0.00  0.00    +0.190 C 
BRANCH  24  25
ATOM     25  O   UNL     1       7.736   6.158  21.448  0.00  0.00    -0.392 OA
ATOM     26  H   UNL     1       8.307   6.940  21.564  0.00  0.00    +0.210 HD
ENDBRANCH  24  25
ENDBRANCH  14  24
ENDBRANCH  11  12
ENDBRANCH   4  11
BRANCH   3  27
ATOM     27  O   UNL     1       7.031  -0.357  23.518  0.00  0.00    -0.453 OA
BRANCH  27  28
ATOM     28  C   UNL     1       6.818  -1.618  24.013  0.00  0.00    +0.214 A 
ATOM     29  C   UNL     1       6.804  -2.707  22.967  0.00  0.00    +0.238 A 
ATOM     30  O   UNL     1       7.389  -2.517  21.900  0.00  0.00    -0.283 OA
ATOM     31  C   UNL     1       6.048  -3.952  23.242  0.00  0.00    +0.109 A 
ATOM     32  C   UNL     1       5.708  -4.184  24.563  0.00  0.00    +0.147 A 
ATOM     33  C   UNL     1       5.078  -5.378  24.941  0.00  0.00    +0.092 A 
ATOM     34  C   UNL     1       4.773  -6.334  23.975  0.00  0.00    +0.124 A 
ATOM     35  C   UNL     1       5.059  -6.102  22.637  0.00  0.00    +0.091 A 
ATOM     36  O   UNL     1       5.982  -3.284  25.559  0.00  0.00    -0.451 OA
ATOM     37  C   UNL     1       5.698  -4.908  22.271  0.00  0.00    +0.135 A 
ATOM     38  C   UNL     1       6.340  -1.971  25.232  0.00  0.00    +0.181 A 
BRANCH  38  39
ATOM     39  C   UNL     1       6.013  -1.056  26.360  0.00  0.00    +0.025 A 
ATOM     40  C   UNL     1       4.782  -1.127  27.032  0.00  0.00    +0.015 A 
ATOM     41  C   UNL     1       4.514  -0.360  28.169  0.00  0.00    +0.050 A 
ATOM     42  C   UNL     1       5.511   0.443  28.688  0.00  0.00    +0.158 A 
ATOM     43  C   UNL     1       6.746   0.531  28.059  0.00  0.00    +0.159 A 
ATOM     44  C   UNL     1       7.003  -0.205  26.902  0.00  0.00    +0.060 A 
BRANCH  42  45
ATOM     45  O   UNL     1       5.278   1.118  29.850  0.00  0.00    -0.503 OA
ATOM     46  H   UNL     1       4.787   0.481  30.408  0.00  0.00    +0.292 HD
ENDBRANCH  42  45
BRANCH  43  47
ATOM     47  O   UNL     1       7.702   1.310  28.656  0.00  0.00    -0.503 OA
ATOM     48  H   UNL     1       7.257   2.027  29.138  0.00  0.00    +0.292 HD
ENDBRANCH  43  47
ENDBRANCH  38  39
BRANCH  34  49
ATOM     49  O   UNL     1       4.191  -7.523  24.297  0.00  0.00    -0.507 OA
ATOM     50  H   UNL     1       3.756  -7.449  25.163  0.00  0.00    +0.292 HD
ENDBRANCH  34  49
BRANCH  37  51
ATOM     51  O   UNL     1       5.942  -4.685  20.945  0.00  0.00    -0.506 OA
ATOM     52  H   UNL     1       6.428  -3.854  20.817  0.00  0.00    +0.292 HD
ENDBRANCH  37  51
ENDBRANCH  27  28
ENDBRANCH   3  27
TORSDOF 16
ENDMDL
MODEL 7
REMARK VINA RESULT:      -6.5      2.202      5.046
REMARK  Name = 
REMARK  16 active torsions:
REMARK  status: ('A' for Active; 'I' for Inactive)
REMARK    1  A    between atoms: C_2  and  O_47
REMARK    2  A    between atoms: C_4  and  O_46
REMARK    3  A    between atoms: C_5  and  O_31
REMARK    4  A    between atoms: C_6  and  O_9
REMARK    5  A    between atoms: O_9  and  C_10
REMARK    6  A    between atoms: C_11  and  C_23
REMARK    7  A    between atoms: C_15  and  O_22
REMARK    8  A    between atoms: C_17  and  O_21
REMARK    9  A    between atoms: C_25  and  O_30
REMARK   10  A    between atoms: C_26  and  O_29
REMARK   11  A    between atoms: O_31  and  C_32
REMARK   12  A    between atoms: C_34  and  O_45
REMARK   13  A    between atoms: C_36  and  O_44
REMARK   14  A    between atoms: C_37  and  O_43
REMARK   15  A    between atoms: C_39  and  C_41
REMARK   16  A    between atoms: C_41  and  O_42
REMARK                            x       y       z     vdW  Elec       q    Type
REMARK                         _______ _______ _______ _____ _____    ______ ____
ROOT
ATOM      1  C   UNL     1       9.126  -4.242  26.679  0.00  0.00    +0.198 C 
ATOM      2  O   UNL     1       8.133  -3.205  26.656  0.00  0.00    -0.337 OA
ATOM      3  C   UNL     1       6.836  -3.755  26.422  0.00  0.00    +0.340 C 
ATOM      4  C   UNL     1       6.772  -4.767  25.201  0.00  0.00    +0.221 C 
ATOM      5  C   UNL     1       8.125  -5.346  24.695  0.00  0.00    +0.180 C 
ATOM      6  C   UNL     1       9.383  -4.691  25.254  0.00  0.00    +0.171 C 
ENDROOT
BRANCH   6   7
ATOM      7  O   UNL     1      10.452  -5.642  25.219  0.00  0.00    -0.387 OA
ATOM      8  H   UNL     1      10.194  -6.396  25.780  0.00  0.00    +0.210 HD
ENDBRANCH   6   7
BRANCH   5   9
ATOM      9  O   UNL     1       8.250  -5.398  23.265  0.00  0.00    -0.386 OA
ATOM     10  H   UNL     1       7.483  -5.886  22.912  0.00  0.00    +0.210 HD
ENDBRANCH   5   9
BRANCH   4  11
ATOM     11  O   UNL     1       5.876  -4.343  24.134  0.00  0.00    -0.337 OA
BRANCH  11  12
ATOM     12  C   UNL     1       4.695  -5.150  23.987  0.00  0.00    +0.282 C 
ATOM     13  O   UNL     1       3.503  -4.360  24.061  0.00  0.00    -0.341 OA
ATOM     14  C   UNL     1       2.933  -4.165  25.361  0.00  0.00    +0.178 C 
ATOM     15  C   UNL     1       2.700  -5.497  26.089  0.00  0.00    +0.177 C 
ATOM     16  C   UNL     1       4.013  -6.258  26.189  0.00  0.00    +0.179 C 
ATOM     17  C   UNL     1       4.703  -6.445  24.841  0.00  0.00    +0.201 C 
BRANCH  15  18
ATOM     18  O   UNL     1       1.711  -6.285  25.410  0.00  0.00    -0.386 OA
ATOM     19  H   UNL     1       2.153  -7.097  25.106  0.00  0.00    +0.210 HD
ENDBRANCH  15  18
BRANCH  16  20
ATOM     20  O   UNL     1       3.785  -7.523  26.826  0.00  0.00    -0.386 OA
ATOM     21  H   UNL     1       2.823  -7.680  26.749  0.00  0.00    +0.210 HD
ENDBRANCH  16  20
BRANCH  17  22
ATOM     22  O   UNL     1       4.127  -7.536  24.094  0.00  0.00    -0.384 OA
ATOM     23  H   UNL     1       4.818  -8.224  24.015  0.00  0.00    +0.210 HD
ENDBRANCH  17  22
BRANCH  14  24
ATOM     24  C   UNL     1       1.580  -3.448  25.188  0.00  0.00    +0.190 C 
BRANCH  24  25
ATOM     25  O   UNL     1       1.527  -2.226  25.922  0.00  0.00    -0.392 OA
ATOM     26  H   UNL     1       0.975  -2.414  26.704  0.00  0.00    +0.210 HD
ENDBRANCH  24  25
ENDBRANCH  14  24
ENDBRANCH  11  12
ENDBRANCH   4  11
BRANCH   3  27
ATOM     27  O   UNL     1       5.711  -2.864  26.296  0.00  0.00    -0.453 OA
BRANCH  27  28
ATOM     28  C   UNL     1       5.649  -1.494  26.306  0.00  0.00    +0.214 A 
ATOM     29  C   UNL     1       4.472  -0.925  27.059  0.00  0.00    +0.238 A 
ATOM     30  O   UNL     1       3.937  -1.606  27.935  0.00  0.00    -0.283 OA
ATOM     31  C   UNL     1       3.966   0.418  26.687  0.00  0.00    +0.109 A 
ATOM     32  C   UNL     1       4.818   1.204  25.930  0.00  0.00    +0.147 A 
ATOM     33  C   UNL     1       4.475   2.526  25.608  0.00  0.00    +0.092 A 
ATOM     34  C   UNL     1       3.257   3.047  26.037  0.00  0.00    +0.124 A 
ATOM     35  C   UNL     1       2.365   2.261  26.753  0.00  0.00    +0.091 A 
ATOM     36  O   UNL     1       6.029   0.751  25.481  0.00  0.00    -0.451 OA
ATOM     37  C   UNL     1       2.722   0.944  27.079  0.00  0.00    +0.135 A 
ATOM     38  C   UNL     1       6.314  -0.619  25.511  0.00  0.00    +0.181 A 
BRANCH  38  39
ATOM     39  C   UNL     1       7.342  -0.950  24.487  0.00  0.00    +0.025 A 
ATOM     40  C   UNL     1       7.007  -1.606  23.291  0.00  0.00    +0.015 A 
ATOM     41  C   UNL     1       7.939  -1.809  22.271  0.00  0.00    +0.050 A 
ATOM     42  C   UNL     1       9.212  -1.293  22.412  0.00  0.00    +0.158 A 
ATOM     43  C   UNL     1       9.580  -0.627  23.573  0.00  0.00    +0.159 A 
ATOM     44  C   UNL     1       8.661  -0.456  24.610  0.00  0.00    +0.060 A 
BRANCH  42  45
ATOM     45  O   UNL     1      10.092  -1.410  21.376  0.00  0.00    -0.503 OA
ATOM     46  H   UNL     1      10.602  -0.575  21.393  0.00  0.00    +0.292 HD
ENDBRANCH  42  45
BRANCH  43  47
ATOM     47  O   UNL     1      10.844  -0.100  23.625  0.00  0.00    -0.503 OA
ATOM     48  H   UNL     1      10.835   0.660  24.231  0.00  0.00    +0.292 HD
ENDBRANCH  43  47
ENDBRANCH  38  39
BRANCH  34  49
ATOM     49  O   UNL     1       2.892   4.334  25.778  0.00  0.00    -0.507 OA
ATOM     50  H   UNL     1       3.088   4.890  26.551  0.00  0.00    +0.292 HD
ENDBRANCH  34  49
BRANCH  37  51
ATOM     51  O   UNL     1       1.817   0.177  27.757  0.00  0.00    -0.506 OA
ATOM     52  H   UNL     1       1.350   0.704  28.426  0.00  0.00    +0.292 HD
ENDBRANCH  37  51
ENDBRANCH  27  28
ENDBRANCH   3  27
TORSDOF 16
ENDMDL
MODEL 8
REMARK VINA RESULT:      -6.4      2.513      7.742
REMARK  Name = 
REMARK  16 active torsions:
REMARK  status: ('A' for Active; 'I' for Inactive)
REMARK    1  A    between atoms: C_2  and  O_47
REMARK    2  A    between atoms: C_4  and  O_46
REMARK    3  A    between atoms: C_5  and  O_31
REMARK    4  A    between atoms: C_6  and  O_9
REMARK    5  A    between atoms: O_9  and  C_10
REMARK    6  A    between atoms: C_11  and  C_23
REMARK    7  A    between atoms: C_15  and  O_22
REMARK    8  A    between atoms: C_17  and  O_21
REMARK    9  A    between atoms: C_25  and  O_30
REMARK   10  A    between atoms: C_26  and  O_29
REMARK   11  A    between atoms: O_31  and  C_32
REMARK   12  A    between atoms: C_34  and  O_45
REMARK   13  A    between atoms: C_36  and  O_44
REMARK   14  A    between atoms: C_37  and  O_43
REMARK   15  A    between atoms: C_39  and  C_41
REMARK   16  A    between atoms: C_41  and  O_42
REMARK                            x       y       z     vdW  Elec       q    Type
REMARK                         _______ _______ _______ _____ _____    ______ ____
ROOT
ATOM      1  C   UNL     1       7.441   1.516  29.375  0.00  0.00    +0.198 C 
ATOM      2  O   UNL     1       6.528   0.590  28.765  0.00  0.00    -0.337 OA
ATOM      3  C   UNL     1       6.687   0.587  27.346  0.00  0.00    +0.340 C 
ATOM      4  C   UNL     1       6.708   2.033  26.692  0.00  0.00    +0.221 C 
ATOM      5  C   UNL     1       6.970   3.234  27.647  0.00  0.00    +0.180 C 
ATOM      6  C   UNL     1       6.928   2.922  29.139  0.00  0.00    +0.171 C 
ENDROOT
BRANCH   6   7
ATOM      7  O   UNL     1       7.746   3.871  29.831  0.00  0.00    -0.387 OA
ATOM      8  H   UNL     1       7.252   4.169  30.616  0.00  0.00    +0.210 HD
ENDBRANCH   6   7
BRANCH   5   9
ATOM      9  O   UNL     1       6.132   4.375  27.408  0.00  0.00    -0.386 OA
ATOM     10  H   UNL     1       5.974   4.819  28.261  0.00  0.00    +0.210 HD
ENDBRANCH   5   9
BRANCH   4  11
ATOM     11  O   UNL     1       5.630   2.262  25.740  0.00  0.00    -0.337 OA
BRANCH  11  12
ATOM     12  C   UNL     1       6.044   2.301  24.363  0.00  0.00    +0.282 C 
ATOM     13  O   UNL     1       7.462   2.460  24.243  0.00  0.00    -0.341 OA
ATOM     14  C   UNL     1       7.963   3.802  24.195  0.00  0.00    +0.178 C 
ATOM     15  C   UNL     1       7.269   4.634  23.106  0.00  0.00    +0.177 C 
ATOM     16  C   UNL     1       5.767   4.631  23.346  0.00  0.00    +0.179 C 
ATOM     17  C   UNL     1       5.180   3.228  23.469  0.00  0.00    +0.201 C 
BRANCH  15  18
ATOM     18  O   UNL     1       7.572   4.121  21.801  0.00  0.00    -0.386 OA
ATOM     19  H   UNL     1       7.117   4.693  21.158  0.00  0.00    +0.210 HD
ENDBRANCH  15  18
BRANCH  16  20
ATOM     20  O   UNL     1       5.115   5.368  22.301  0.00  0.00    -0.386 OA
ATOM     21  H   UNL     1       4.775   4.691  21.683  0.00  0.00    +0.210 HD
ENDBRANCH  16  20
BRANCH  17  22
ATOM     22  O   UNL     1       4.976   2.621  22.176  0.00  0.00    -0.384 OA
ATOM     23  H   UNL     1       5.754   2.847  21.628  0.00  0.00    +0.210 HD
ENDBRANCH  17  22
BRANCH  14  24
ATOM     24  C   UNL     1       9.472   3.740  23.888  0.00  0.00    +0.190 C 
BRANCH  24  25
ATOM     25  O   UNL     1       9.758   2.874  22.790  0.00  0.00    -0.392 OA
ATOM     26  H   UNL     1       9.076   3.068  22.121  0.00  0.00    +0.210 HD
ENDBRANCH  24  25
ENDBRANCH  14  24
ENDBRANCH  11  12
ENDBRANCH   4  11
BRANCH   3  27
ATOM     27  O   UNL     1       5.812  -0.230  26.545  0.00  0.00    -0.453 OA
BRANCH  27  28
ATOM     28  C   UNL     1       5.694  -1.594  26.457  0.00  0.00    +0.214 A 
ATOM     29  C   UNL     1       4.805  -2.215  27.506  0.00  0.00    +0.238 A 
ATOM     30  O   UNL     1       3.940  -1.521  28.044  0.00  0.00    -0.283 OA
ATOM     31  C   UNL     1       5.032  -3.629  27.890  0.00  0.00    +0.109 A 
ATOM     32  C   UNL     1       5.796  -4.385  27.018  0.00  0.00    +0.147 A 
ATOM     33  C   UNL     1       5.988  -5.757  27.239  0.00  0.00    +0.092 A 
ATOM     34  C   UNL     1       5.421  -6.361  28.358  0.00  0.00    +0.124 A 
ATOM     35  C   UNL     1       4.693  -5.614  29.272  0.00  0.00    +0.091 A 
ATOM     36  O   UNL     1       6.378  -3.849  25.900  0.00  0.00    -0.451 OA
ATOM     37  C   UNL     1       4.498  -4.244  29.037  0.00  0.00    +0.135 A 
ATOM     38  C   UNL     1       6.474  -2.459  25.764  0.00  0.00    +0.181 A 
BRANCH  38  39
ATOM     39  C   UNL     1       7.603  -2.112  24.858  0.00  0.00    +0.025 A 
ATOM     40  C   UNL     1       8.712  -2.960  24.702  0.00  0.00    +0.015 A 
ATOM     41  C   UNL     1       9.714  -2.705  23.764  0.00  0.00    +0.050 A 
ATOM     42  C   UNL     1       9.581  -1.622  22.917  0.00  0.00    +0.158 A 
ATOM     43  C   UNL     1       8.494  -0.766  23.030  0.00  0.00    +0.159 A 
ATOM     44  C   UNL     1       7.510  -0.998  23.992  0.00  0.00    +0.060 A 
BRANCH  42  45
ATOM     45  O   UNL     1      10.513  -1.429  21.940  0.00  0.00    -0.503 OA
ATOM     46  H   UNL     1      11.352  -1.738  22.337  0.00  0.00    +0.292 HD
ENDBRANCH  42  45
BRANCH  43  47
ATOM     47  O   UNL     1       8.403   0.260  22.126  0.00  0.00    -0.503 OA
ATOM     48  H   UNL     1       9.209   0.264  21.584  0.00  0.00    +0.292 HD
ENDBRANCH  43  47
ENDBRANCH  38  39
BRANCH  34  49
ATOM     49  O   UNL     1       5.551  -7.696  28.599  0.00  0.00    -0.507 OA
ATOM     50  H   UNL     1       6.421  -8.000  28.289  0.00  0.00    +0.292 HD
ENDBRANCH  34  49
BRANCH  37  51
ATOM     51  O   UNL     1       3.806  -3.520  29.965  0.00  0.00    -0.506 OA
ATOM     52  H   UNL     1       2.895  -3.358  29.669  0.00  0.00    +0.292 HD
ENDBRANCH  37  51
ENDBRANCH  27  28
ENDBRANCH   3  27
TORSDOF 16
ENDMDL
MODEL 9
REMARK VINA RESULT:      -6.4      2.783      7.290
REMARK  Name = 
REMARK  16 active torsions:
REMARK  status: ('A' for Active; 'I' for Inactive)
REMARK    1  A    between atoms: C_2  and  O_47
REMARK    2  A    between atoms: C_4  and  O_46
REMARK    3  A    between atoms: C_5  and  O_31
REMARK    4  A    between atoms: C_6  and  O_9
REMARK    5  A    between atoms: O_9  and  C_10
REMARK    6  A    between atoms: C_11  and  C_23
REMARK    7  A    between atoms: C_15  and  O_22
REMARK    8  A    between atoms: C_17  and  O_21
REMARK    9  A    between atoms: C_25  and  O_30
REMARK   10  A    between atoms: C_26  and  O_29
REMARK   11  A    between atoms: O_31  and  C_32
REMARK   12  A    between atoms: C_34  and  O_45
REMARK   13  A    between atoms: C_36  and  O_44
REMARK   14  A    between atoms: C_37  and  O_43
REMARK   15  A    between atoms: C_39  and  C_41
REMARK   16  A    between atoms: C_41  and  O_42
REMARK                            x       y       z     vdW  Elec       q    Type
REMARK                         _______ _______ _______ _____ _____    ______ ____
ROOT
ATOM      1  C   UNL     1       7.131   2.131  29.226  0.00  0.00    +0.198 C 
ATOM      2  O   UNL     1       6.796   1.090  28.296  0.00  0.00    -0.337 OA
ATOM      3  C   UNL     1       6.686   1.613  26.972  0.00  0.00    +0.340 C 
ATOM      4  C   UNL     1       5.791   2.920  26.863  0.00  0.00    +0.221 C 
ATOM      5  C   UNL     1       5.503   3.687  28.186  0.00  0.00    +0.180 C 
ATOM      6  C   UNL     1       5.894   2.971  29.473  0.00  0.00    +0.171 C 
ENDROOT
BRANCH   6   7
ATOM      7  O   UNL     1       6.153   3.950  30.485  0.00  0.00    -0.387 OA
ATOM      8  H   UNL     1       6.865   4.529  30.158  0.00  0.00    +0.210 HD
ENDBRANCH   6   7
BRANCH   5   9
ATOM      9  O   UNL     1       4.147   4.140  28.324  0.00  0.00    -0.386 OA
ATOM     10  H   UNL     1       3.556   3.393  28.120  0.00  0.00    +0.210 HD
ENDBRANCH   5   9
BRANCH   4  11
ATOM     11  O   UNL     1       4.624   2.762  26.007  0.00  0.00    -0.337 OA
BRANCH  11  12
ATOM     12  C   UNL     1       4.398   3.851  25.095  0.00  0.00    +0.282 C 
ATOM     13  O   UNL     1       3.055   3.852  24.597  0.00  0.00    -0.341 OA
ATOM     14  C   UNL     1       2.805   3.099  23.404  0.00  0.00    +0.178 C 
ATOM     15  C   UNL     1       3.763   3.490  22.269  0.00  0.00    +0.177 C 
ATOM     16  C   UNL     1       5.201   3.300  22.730  0.00  0.00    +0.179 C 
ATOM     17  C   UNL     1       5.514   4.028  24.033  0.00  0.00    +0.201 C 
BRANCH  15  18
ATOM     18  O   UNL     1       3.541   4.846  21.856  0.00  0.00    -0.386 OA
ATOM     19  H   UNL     1       3.474   4.841  20.885  0.00  0.00    +0.210 HD
ENDBRANCH  15  18
BRANCH  16  20
ATOM     20  O   UNL     1       6.095   3.712  21.686  0.00  0.00    -0.386 OA
ATOM     21  H   UNL     1       6.640   2.924  21.489  0.00  0.00    +0.210 HD
ENDBRANCH  16  20
BRANCH  17  22
ATOM     22  O   UNL     1       5.770   5.431  23.811  0.00  0.00    -0.384 OA
ATOM     23  H   UNL     1       5.232   5.701  23.040  0.00  0.00    +0.210 HD
ENDBRANCH  17  22
BRANCH  14  24
ATOM     24  C   UNL     1       1.358   3.381  22.953  0.00  0.00    +0.190 C 
BRANCH  24  25
ATOM     25  O   UNL     1       0.750   2.233  22.363  0.00  0.00    -0.392 OA
ATOM     26  H   UNL     1       1.463   1.572  22.282  0.00  0.00    +0.210 HD
ENDBRANCH  24  25
ENDBRANCH  14  24
ENDBRANCH  11  12
ENDBRANCH   4  11
BRANCH   3  27
ATOM     27  O   UNL     1       6.288   0.734  25.903  0.00  0.00    -0.453 OA
BRANCH  27  28
ATOM     28  C   UNL     1       6.927  -0.346  25.348  0.00  0.00    +0.214 A 
ATOM     29  C   UNL     1       6.414  -1.686  25.815  0.00  0.00    +0.238 A 
ATOM     30  O   UNL     1       5.266  -1.765  26.255  0.00  0.00    -0.283 OA
ATOM     31  C   UNL     1       7.324  -2.855  25.773  0.00  0.00    +0.109 A 
ATOM     32  C   UNL     1       8.452  -2.724  24.983  0.00  0.00    +0.147 A 
ATOM     33  C   UNL     1       9.327  -3.805  24.798  0.00  0.00    +0.092 A 
ATOM     34  C   UNL     1       9.068  -5.018  25.432  0.00  0.00    +0.124 A 
ATOM     35  C   UNL     1       7.970  -5.158  26.269  0.00  0.00    +0.091 A 
ATOM     36  O   UNL     1       8.761  -1.559  24.333  0.00  0.00    -0.451 OA
ATOM     37  C   UNL     1       7.096  -4.073  26.439  0.00  0.00    +0.135 A 
ATOM     38  C   UNL     1       8.111  -0.371  24.688  0.00  0.00    +0.181 A 
BRANCH  38  39
ATOM     39  C   UNL     1       8.960   0.801  24.334  0.00  0.00    +0.025 A 
ATOM     40  C   UNL     1      10.359   0.755  24.438  0.00  0.00    +0.015 A 
ATOM     41  C   UNL     1      11.169   1.802  23.991  0.00  0.00    +0.050 A 
ATOM     42  C   UNL     1      10.583   2.887  23.370  0.00  0.00    +0.158 A 
ATOM     43  C   UNL     1       9.203   2.965  23.237  0.00  0.00    +0.159 A 
ATOM     44  C   UNL     1       8.390   1.937  23.716  0.00  0.00    +0.060 A 
BRANCH  42  45
ATOM     45  O   UNL     1      11.382   3.863  22.851  0.00  0.00    -0.503 OA
ATOM     46  H   UNL     1      11.816   3.441  22.082  0.00  0.00    +0.292 HD
ENDBRANCH  42  45
BRANCH  43  47
ATOM     47  O   UNL     1       8.694   4.047  22.568  0.00  0.00    -0.503 OA
ATOM     48  H   UNL     1       9.421   4.668  22.392  0.00  0.00    +0.292 HD
ENDBRANCH  43  47
ENDBRANCH  38  39
BRANCH  34  49
ATOM     49  O   UNL     1       9.868  -6.107  25.258  0.00  0.00    -0.507 OA
ATOM     50  H   UNL     1       9.401  -6.773  24.725  0.00  0.00    +0.292 HD
ENDBRANCH  34  49
BRANCH  37  51
ATOM     51  O   UNL     1       6.039  -4.221  27.292  0.00  0.00    -0.506 OA
ATOM     52  H   UNL     1       6.147  -3.661  28.078  0.00  0.00    +0.292 HD
ENDBRANCH  37  51
ENDBRANCH  27  28
ENDBRANCH   3  27
TORSDOF 16
ENDMDL
