MODEL 1
REMARK VINA RESULT:      -7.7      0.000      0.000
REMARK  Name = 
REMARK  17 active torsions:
REMARK  status: ('A' for Active; 'I' for Inactive)
REMARK    1  A    between atoms: C_1  and  C_2
REMARK    2  A    between atoms: C_3  and  O_44
REMARK    3  A    between atoms: C_4  and  O_43
REMARK    4  A    between atoms: C_5  and  O_42
REMARK    5  A    between atoms: C_6  and  O_8
REMARK    6  A    between atoms: O_8  and  C_9
REMARK    7  A    between atoms: C_10  and  C_34
REMARK    8  A    between atoms: C_14  and  O_21
REMARK    9  A    between atoms: C_16  and  O_20
REMARK   10  A    between atoms: O_21  and  C_22
REMARK   11  A    between atoms: C_23  and  O_33
REMARK   12  A    between atoms: C_24  and  O_32
REMARK   13  A    between atoms: C_25  and  O_31
REMARK   14  A    between atoms: C_26  and  C_28
REMARK   15  A    between atoms: C_28  and  O_30
REMARK   16  A    between atoms: C_36  and  O_41
REMARK   17  A    between atoms: C_37  and  O_40
REMARK                            x       y       z     vdW  Elec       q    Type
REMARK                         _______ _______ _______ _____ _____    ______ ____
ROOT
ATOM      1  C   UNL     1       6.814  -3.909  24.623  0.00  0.00    +0.214 A 
ATOM      2  C   UNL     1       7.620  -3.293  23.520  0.00  0.00    +0.238 A 
ATOM      3  O   UNL     1       7.996  -3.935  22.549  0.00  0.00    -0.283 OA
ATOM      4  C   UNL     1       8.093  -1.914  23.702  0.00  0.00    +0.109 A 
ATOM      5  C   UNL     1       8.047  -1.379  24.982  0.00  0.00    +0.147 A 
ATOM      6  C   UNL     1       8.599  -0.113  25.230  0.00  0.00    +0.093 A 
ATOM      7  C   UNL     1       9.183   0.617  24.187  0.00  0.00    +0.131 A 
ATOM      8  C   UNL     1       9.232   0.070  22.905  0.00  0.00    +0.092 A 
ATOM      9  O   UNL     1       7.498  -2.055  26.047  0.00  0.00    -0.451 OA
ATOM     10  C   UNL     1       8.674  -1.180  22.659  0.00  0.00    +0.135 A 
ATOM     11  C   UNL     1       6.852  -3.264  25.808  0.00  0.00    +0.181 A 
ENDROOT
BRANCH  11  12
ATOM     12  C   UNL     1       6.266  -3.854  27.033  0.00  0.00    +0.025 A 
ATOM     13  C   UNL     1       5.164  -3.263  27.676  0.00  0.00    +0.015 A 
ATOM     14  C   UNL     1       4.608  -3.845  28.827  0.00  0.00    +0.050 A 
ATOM     15  C   UNL     1       5.150  -5.014  29.334  0.00  0.00    +0.158 A 
ATOM     16  C   UNL     1       6.244  -5.609  28.710  0.00  0.00    +0.159 A 
ATOM     17  C   UNL     1       6.806  -5.041  27.571  0.00  0.00    +0.060 A 
BRANCH  16  18
ATOM     18  O   UNL     1       6.729  -6.768  29.257  0.00  0.00    -0.503 OA
ATOM     19  H   UNL     1       6.601  -7.488  28.616  0.00  0.00    +0.292 HD
ENDBRANCH  16  18
BRANCH  15  20
ATOM     20  O   UNL     1       4.593  -5.593  30.440  0.00  0.00    -0.503 OA
ATOM     21  H   UNL     1       4.391  -4.840  31.032  0.00  0.00    +0.292 HD
ENDBRANCH  15  20
ENDBRANCH  11  12
BRANCH  10  22
ATOM     22  O   UNL     1       8.686  -1.658  21.379  0.00  0.00    -0.506 OA
ATOM     23  H   UNL     1       7.988  -2.320  21.252  0.00  0.00    +0.292 HD
ENDBRANCH  10  22
BRANCH   7  24
ATOM     24  O   UNL     1       9.729   1.870  24.263  0.00  0.00    -0.461 OA
BRANCH  24  25
ATOM     25  C   UNL     1       9.342   2.822  23.268  0.00  0.00    +0.340 C 
ATOM     26  O   UNL     1      10.494   3.500  22.722  0.00  0.00    -0.322 OA
ATOM     27  C   UNL     1      11.137   4.332  23.714  0.00  0.00    +0.261 C 
ATOM     28  C   UNL     1      10.198   5.478  24.059  0.00  0.00    +0.185 C 
ATOM     29  C   UNL     1       8.975   4.875  24.760  0.00  0.00    +0.180 C 
ATOM     30  C   UNL     1       8.308   3.816  23.861  0.00  0.00    +0.214 C 
BRANCH  29  31
ATOM     31  O   UNL     1       8.029   5.909  25.055  0.00  0.00    -0.386 OA
ATOM     32  H   UNL     1       8.110   6.570  24.336  0.00  0.00    +0.210 HD
ENDBRANCH  29  31
BRANCH  30  33
ATOM     33  O   UNL     1       7.260   3.114  24.544  0.00  0.00    -0.383 OA
ATOM     34  H   UNL     1       7.637   2.297  24.921  0.00  0.00    +0.210 HD
ENDBRANCH  30  33
BRANCH  28  35
ATOM     35  O   UNL     1       9.719   6.147  22.873  0.00  0.00    -0.386 OA
ATOM     36  H   UNL     1      10.475   6.321  22.279  0.00  0.00    +0.210 HD
ENDBRANCH  28  35
BRANCH  27  37
ATOM     37  C   UNL     1      12.465   4.853  23.175  0.00  0.00    +0.337 C 
ATOM     38  O   UNL     1      13.504   4.913  23.812  0.00  0.00    -0.248 OA
BRANCH  37  39
ATOM     39  O   UNL     1      12.371   5.224  21.875  0.00  0.00    -0.479 OA
ATOM     40  H   UNL     1      12.337   4.426  21.303  0.00  0.00    +0.295 HD
ENDBRANCH  37  39
ENDBRANCH  27  37
ENDBRANCH  24  25
ENDBRANCH   7  24
BRANCH   1  41
ATOM     41  O   UNL     1       6.148  -5.128  24.486  0.00  0.00    -0.453 OA
BRANCH  41  45
ATOM     42  C   UNL     1       2.092  -3.787  25.140  0.00  0.00    +0.041 C 
ATOM     43  C   UNL     1       2.595  -5.207  25.430  0.00  0.00    +0.150 C 
ATOM     44  O   UNL     1       4.028  -5.285  25.530  0.00  0.00    -0.334 OA
ATOM     45  C   UNL     1       4.724  -5.092  24.290  0.00  0.00    +0.339 C 
ATOM     46  C   UNL     1       4.319  -6.221  23.319  0.00  0.00    +0.214 C 
ATOM     47  C   UNL     1       2.801  -6.149  23.094  0.00  0.00    +0.180 C 
ATOM     48  C   UNL     1       2.052  -6.247  24.435  0.00  0.00    +0.174 C 
BRANCH  48  49
ATOM     49  O   UNL     1       0.637  -6.097  24.279  0.00  0.00    -0.387 OA
ATOM     50  H   UNL     1       0.203  -6.846  24.724  0.00  0.00    +0.210 HD
ENDBRANCH  48  49
BRANCH  47  51
ATOM     51  O   UNL     1       2.379  -7.210  22.229  0.00  0.00    -0.386 OA
ATOM     52  H   UNL     1       2.914  -7.989  22.489  0.00  0.00    +0.210 HD
ENDBRANCH  47  51
BRANCH  46  53
ATOM     53  O   UNL     1       4.624  -7.530  23.845  0.00  0.00    -0.383 OA
ATOM     54  H   UNL     1       4.601  -7.450  24.820  0.00  0.00    +0.210 HD
ENDBRANCH  46  53
ENDBRANCH  41  45
ENDBRANCH   1  41
TORSDOF 16
ENDMDL
MODEL 2
REMARK VINA RESULT:      -7.6      1.479      2.092
REMARK  Name = 
REMARK  17 active torsions:
REMARK  status: ('A' for Active; 'I' for Inactive)
REMARK    1  A    between atoms: C_1  and  C_2
REMARK    2  A    between atoms: C_3  and  O_44
REMARK    3  A    between atoms: C_4  and  O_43
REMARK    4  A    between atoms: C_5  and  O_42
REMARK    5  A    between atoms: C_6  and  O_8
REMARK    6  A    between atoms: O_8  and  C_9
REMARK    7  A    between atoms: C_10  and  C_34
REMARK    8  A    between atoms: C_14  and  O_21
REMARK    9  A    between atoms: C_16  and  O_20
REMARK   10  A    between atoms: O_21  and  C_22
REMARK   11  A    between atoms: C_23  and  O_33
REMARK   12  A    between atoms: C_24  and  O_32
REMARK   13  A    between atoms: C_25  and  O_31
REMARK   14  A    between atoms: C_26  and  C_28
REMARK   15  A    between atoms: C_28  and  O_30
REMARK   16  A    between atoms: C_36  and  O_41
REMARK   17  A    between atoms: C_37  and  O_40
REMARK                            x       y       z     vdW  Elec       q    Type
REMARK                         _______ _______ _______ _____ _____    ______ ____
ROOT
ATOM      1  C   UNL     1       7.401  -4.133  25.822  0.00  0.00    +0.214 A 
ATOM      2  C   UNL     1       8.590  -3.686  25.026  0.00  0.00    +0.238 A 
ATOM      3  O   UNL     1       9.414  -4.475  24.583  0.00  0.00    -0.283 OA
ATOM      4  C   UNL     1       8.838  -2.243  24.912  0.00  0.00    +0.109 A 
ATOM      5  C   UNL     1       8.168  -1.402  25.790  0.00  0.00    +0.147 A 
ATOM      6  C   UNL     1       8.462  -0.030  25.804  0.00  0.00    +0.093 A 
ATOM      7  C   UNL     1       9.419   0.494  24.925  0.00  0.00    +0.131 A 
ATOM      8  C   UNL     1      10.093  -0.358  24.052  0.00  0.00    +0.092 A 
ATOM      9  O   UNL     1       7.228  -1.861  26.683  0.00  0.00    -0.451 OA
ATOM     10  C   UNL     1       9.793  -1.716  24.031  0.00  0.00    +0.135 A 
ATOM     11  C   UNL     1       6.843  -3.197  26.618  0.00  0.00    +0.181 A 
ENDROOT
BRANCH  11  12
ATOM     12  C   UNL     1       5.790  -3.541  27.601  0.00  0.00    +0.025 A 
ATOM     13  C   UNL     1       5.955  -4.602  28.508  0.00  0.00    +0.015 A 
ATOM     14  C   UNL     1       4.955  -4.905  29.447  0.00  0.00    +0.050 A 
ATOM     15  C   UNL     1       3.794  -4.151  29.479  0.00  0.00    +0.158 A 
ATOM     16  C   UNL     1       3.615  -3.099  28.583  0.00  0.00    +0.159 A 
ATOM     17  C   UNL     1       4.597  -2.790  27.646  0.00  0.00    +0.060 A 
BRANCH  16  18
ATOM     18  O   UNL     1       2.448  -2.387  28.670  0.00  0.00    -0.503 OA
ATOM     19  H   UNL     1       2.663  -1.474  28.925  0.00  0.00    +0.292 HD
ENDBRANCH  16  18
BRANCH  15  20
ATOM     20  O   UNL     1       2.831  -4.432  30.408  0.00  0.00    -0.503 OA
ATOM     21  H   UNL     1       2.276  -5.116  29.983  0.00  0.00    +0.292 HD
ENDBRANCH  15  20
ENDBRANCH  11  12
BRANCH  10  22
ATOM     22  O   UNL     1      10.429  -2.511  23.120  0.00  0.00    -0.506 OA
ATOM     23  H   UNL     1      10.544  -3.410  23.468  0.00  0.00    +0.292 HD
ENDBRANCH  10  22
BRANCH   7  24
ATOM     24  O   UNL     1       9.789   1.806  24.797  0.00  0.00    -0.461 OA
BRANCH  24  25
ATOM     25  C   UNL     1       9.359   2.502  23.623  0.00  0.00    +0.340 C 
ATOM     26  O   UNL     1      10.429   3.301  23.073  0.00  0.00    -0.322 OA
ATOM     27  C   UNL     1      10.791   4.383  23.961  0.00  0.00    +0.261 C 
ATOM     28  C   UNL     1       9.629   5.362  24.021  0.00  0.00    +0.185 C 
ATOM     29  C   UNL     1       8.458   4.645  24.703  0.00  0.00    +0.180 C 
ATOM     30  C   UNL     1       8.101   3.353  23.943  0.00  0.00    +0.214 C 
BRANCH  29  31
ATOM     31  O   UNL     1       7.314   5.508  24.733  0.00  0.00    -0.386 OA
ATOM     32  H   UNL     1       7.484   6.167  25.438  0.00  0.00    +0.210 HD
ENDBRANCH  29  31
BRANCH  30  33
ATOM     33  O   UNL     1       7.122   2.572  24.642  0.00  0.00    -0.383 OA
ATOM     34  H   UNL     1       6.742   3.122  25.351  0.00  0.00    +0.210 HD
ENDBRANCH  30  33
BRANCH  28  35
ATOM     35  O   UNL     1       9.183   5.738  22.700  0.00  0.00    -0.386 OA
ATOM     36  H   UNL     1       9.873   5.500  22.052  0.00  0.00    +0.210 HD
ENDBRANCH  28  35
BRANCH  27  37
ATOM     37  C   UNL     1      12.059   5.066  23.460  0.00  0.00    +0.337 C 
ATOM     38  O   UNL     1      12.860   5.658  24.164  0.00  0.00    -0.248 OA
BRANCH  37  39
ATOM     39  O   UNL     1      12.219   4.915  22.123  0.00  0.00    -0.479 OA
ATOM     40  H   UNL     1      12.996   5.434  21.820  0.00  0.00    +0.295 HD
ENDBRANCH  37  39
ENDBRANCH  27  37
ENDBRANCH  24  25
ENDBRANCH   7  24
BRANCH   1  41
ATOM     41  O   UNL     1       6.952  -5.455  25.837  0.00  0.00    -0.453 OA
BRANCH  41  45
ATOM     42  C   UNL     1       5.584  -5.674  21.744  0.00  0.00    +0.041 C 
ATOM     43  C   UNL     1       4.755  -5.119  22.908  0.00  0.00    +0.150 C 
ATOM     44  O   UNL     1       5.555  -4.771  24.052  0.00  0.00    -0.334 OA
ATOM     45  C   UNL     1       6.123  -5.890  24.746  0.00  0.00    +0.339 C 
ATOM     46  C   UNL     1       4.973  -6.758  25.301  0.00  0.00    +0.214 C 
ATOM     47  C   UNL     1       4.116  -7.242  24.122  0.00  0.00    +0.180 C 
ATOM     48  C   UNL     1       3.592  -6.045  23.308  0.00  0.00    +0.174 C 
BRANCH  48  49
ATOM     49  O   UNL     1       2.860  -6.455  22.149  0.00  0.00    -0.387 OA
ATOM     50  H   UNL     1       2.054  -6.912  22.447  0.00  0.00    +0.210 HD
ENDBRANCH  48  49
BRANCH  47  51
ATOM     51  O   UNL     1       3.010  -8.018  24.601  0.00  0.00    -0.386 OA
ATOM     52  H   UNL     1       3.285  -8.954  24.505  0.00  0.00    +0.210 HD
ENDBRANCH  47  51
BRANCH  46  53
ATOM     53  O   UNL     1       4.115  -6.019  26.195  0.00  0.00    -0.383 OA
ATOM     54  H   UNL     1       3.290  -5.835  25.702  0.00  0.00    +0.210 HD
ENDBRANCH  46  53
ENDBRANCH  41  45
ENDBRANCH   1  41
TORSDOF 16
ENDMDL
MODEL 3
REMARK VINA RESULT:      -7.2      2.471     10.064
REMARK  Name = 
REMARK  17 active torsions:
REMARK  status: ('A' for Active; 'I' for Inactive)
REMARK    1  A    between atoms: C_1  and  C_2
REMARK    2  A    between atoms: C_3  and  O_44
REMARK    3  A    between atoms: C_4  and  O_43
REMARK    4  A    between atoms: C_5  and  O_42
REMARK    5  A    between atoms: C_6  and  O_8
REMARK    6  A    between atoms: O_8  and  C_9
REMARK    7  A    between atoms: C_10  and  C_34
REMARK    8  A    between atoms: C_14  and  O_21
REMARK    9  A    between atoms: C_16  and  O_20
REMARK   10  A    between atoms: O_21  and  C_22
REMARK   11  A    between atoms: C_23  and  O_33
REMARK   12  A    between atoms: C_24  and  O_32
REMARK   13  A    between atoms: C_25  and  O_31
REMARK   14  A    between atoms: C_26  and  C_28
REMARK   15  A    between atoms: C_28  and  O_30
REMARK   16  A    between atoms: C_36  and  O_41
REMARK   17  A    between atoms: C_37  and  O_40
REMARK                            x       y       z     vdW  Elec       q    Type
REMARK                         _______ _______ _______ _____ _____    ______ ____
ROOT
ATOM      1  C   UNL     1       7.970   1.221  24.585  0.00  0.00    +0.214 A 
ATOM      2  C   UNL     1       8.197   0.178  23.532  0.00  0.00    +0.238 A 
ATOM      3  O   UNL     1       8.830   0.408  22.510  0.00  0.00    -0.283 OA
ATOM      4  C   UNL     1       7.504  -1.108  23.678  0.00  0.00    +0.109 A 
ATOM      5  C   UNL     1       6.453  -1.176  24.582  0.00  0.00    +0.147 A 
ATOM      6  C   UNL     1       5.682  -2.344  24.670  0.00  0.00    +0.093 A 
ATOM      7  C   UNL     1       5.978  -3.447  23.858  0.00  0.00    +0.131 A 
ATOM      8  C   UNL     1       7.030  -3.368  22.947  0.00  0.00    +0.092 A 
ATOM      9  O   UNL     1       6.107  -0.122  25.396  0.00  0.00    -0.451 OA
ATOM     10  C   UNL     1       7.801  -2.214  22.869  0.00  0.00    +0.135 A 
ATOM     11  C   UNL     1       6.919   1.008  25.404  0.00  0.00    +0.181 A 
ENDROOT
BRANCH  11  12
ATOM     12  C   UNL     1       6.459   2.041  26.360  0.00  0.00    +0.025 A 
ATOM     13  C   UNL     1       5.311   2.812  26.108  0.00  0.00    +0.015 A 
ATOM     14  C   UNL     1       4.877   3.776  27.033  0.00  0.00    +0.050 A 
ATOM     15  C   UNL     1       5.588   3.968  28.207  0.00  0.00    +0.158 A 
ATOM     16  C   UNL     1       6.729   3.214  28.468  0.00  0.00    +0.159 A 
ATOM     17  C   UNL     1       7.171   2.258  27.558  0.00  0.00    +0.060 A 
BRANCH  16  18
ATOM     18  O   UNL     1       7.383   3.447  29.649  0.00  0.00    -0.503 OA
ATOM     19  H   UNL     1       6.740   3.381  30.375  0.00  0.00    +0.292 HD
ENDBRANCH  16  18
BRANCH  15  20
ATOM     20  O   UNL     1       5.151   4.890  29.117  0.00  0.00    -0.503 OA
ATOM     21  H   UNL     1       5.837   4.885  29.815  0.00  0.00    +0.292 HD
ENDBRANCH  15  20
ENDBRANCH  11  12
BRANCH  10  22
ATOM     22  O   UNL     1       8.863  -2.195  22.009  0.00  0.00    -0.506 OA
ATOM     23  H   UNL     1       9.692  -2.040  22.488  0.00  0.00    +0.292 HD
ENDBRANCH  10  22
BRANCH   7  24
ATOM     24  O   UNL     1       5.343  -4.660  23.851  0.00  0.00    -0.461 OA
BRANCH  24  25
ATOM     25  C   UNL     1       4.183  -4.803  24.674  0.00  0.00    +0.340 C 
ATOM     26  O   UNL     1       4.547  -5.009  26.056  0.00  0.00    -0.322 OA
ATOM     27  C   UNL     1       5.219  -6.276  26.242  0.00  0.00    +0.261 C 
ATOM     28  C   UNL     1       4.217  -7.391  25.984  0.00  0.00    +0.185 C 
ATOM     29  C   UNL     1       3.844  -7.339  24.498  0.00  0.00    +0.180 C 
ATOM     30  C   UNL     1       3.287  -5.949  24.131  0.00  0.00    +0.214 C 
BRANCH  29  31
ATOM     31  O   UNL     1       2.855  -8.335  24.212  0.00  0.00    -0.386 OA
ATOM     32  H   UNL     1       2.182  -7.902  23.647  0.00  0.00    +0.210 HD
ENDBRANCH  29  31
BRANCH  30  33
ATOM     33  O   UNL     1       3.081  -5.809  22.719  0.00  0.00    -0.383 OA
ATOM     34  H   UNL     1       3.257  -4.881  22.476  0.00  0.00    +0.210 HD
ENDBRANCH  30  33
BRANCH  28  35
ATOM     35  O   UNL     1       2.999  -7.194  26.733  0.00  0.00    -0.386 OA
ATOM     36  H   UNL     1       2.382  -7.924  26.535  0.00  0.00    +0.210 HD
ENDBRANCH  28  35
BRANCH  27  37
ATOM     37  C   UNL     1       5.785  -6.363  27.656  0.00  0.00    +0.337 C 
ATOM     38  O   UNL     1       6.498  -5.521  28.175  0.00  0.00    -0.248 OA
BRANCH  37  39
ATOM     39  O   UNL     1       5.377  -7.485  28.295  0.00  0.00    -0.479 OA
ATOM     40  H   UNL     1       5.799  -8.273  27.885  0.00  0.00    +0.295 HD
ENDBRANCH  37  39
ENDBRANCH  27  37
ENDBRANCH  24  25
ENDBRANCH   7  24
BRANCH   1  41
ATOM     41  O   UNL     1       8.719   2.397  24.661  0.00  0.00    -0.453 OA
BRANCH  41  45
ATOM     42  C   UNL     1       5.652   4.833  22.835  0.00  0.00    +0.041 C 
ATOM     43  C   UNL     1       7.039   4.584  22.229  0.00  0.00    +0.150 C 
ATOM     44  O   UNL     1       7.700   3.438  22.794  0.00  0.00    -0.334 OA
ATOM     45  C   UNL     1       8.121   3.603  24.156  0.00  0.00    +0.339 C 
ATOM     46  C   UNL     1       9.158   4.744  24.213  0.00  0.00    +0.214 C 
ATOM     47  C   UNL     1       8.495   6.032  23.703  0.00  0.00    +0.180 C 
ATOM     48  C   UNL     1       7.945   5.827  22.280  0.00  0.00    +0.174 C 
BRANCH  48  49
ATOM     49  O   UNL     1       7.241   6.976  21.798  0.00  0.00    -0.387 OA
ATOM     50  H   UNL     1       7.366   7.025  20.834  0.00  0.00    +0.210 HD
ENDBRANCH  48  49
BRANCH  47  51
ATOM     51  O   UNL     1       9.441   7.108  23.702  0.00  0.00    -0.386 OA
ATOM     52  H   UNL     1       8.907   7.927  23.643  0.00  0.00    +0.210 HD
ENDBRANCH  47  51
BRANCH  46  53
ATOM     53  O   UNL     1      10.307   4.480  23.382  0.00  0.00    -0.383 OA
ATOM     54  H   UNL     1      11.065   4.939  23.799  0.00  0.00    +0.210 HD
ENDBRANCH  46  53
ENDBRANCH  41  45
ENDBRANCH   1  41
TORSDOF 16
ENDMDL
MODEL 4
REMARK VINA RESULT:      -7.0      2.457      4.368
REMARK  Name = 
REMARK  17 active torsions:
REMARK  status: ('A' for Active; 'I' for Inactive)
REMARK    1  A    between atoms: C_1  and  C_2
REMARK    2  A    between atoms: C_3  and  O_44
REMARK    3  A    between atoms: C_4  and  O_43
REMARK    4  A    between atoms: C_5  and  O_42
REMARK    5  A    between atoms: C_6  and  O_8
REMARK    6  A    between atoms: O_8  and  C_9
REMARK    7  A    between atoms: C_10  and  C_34
REMARK    8  A    between atoms: C_14  and  O_21
REMARK    9  A    between atoms: C_16  and  O_20
REMARK   10  A    between atoms: O_21  and  C_22
REMARK   11  A    between atoms: C_23  and  O_33
REMARK   12  A    between atoms: C_24  and  O_32
REMARK   13  A    between atoms: C_25  and  O_31
REMARK   14  A    between atoms: C_26  and  C_28
REMARK   15  A    between atoms: C_28  and  O_30
REMARK   16  A    between atoms: C_36  and  O_41
REMARK   17  A    between atoms: C_37  and  O_40
REMARK                            x       y       z     vdW  Elec       q    Type
REMARK                         _______ _______ _______ _____ _____    ______ ____
ROOT
ATOM      1  C   UNL     1       5.896  -2.742  26.387  0.00  0.00    +0.214 A 
ATOM      2  C   UNL     1       5.630  -1.469  27.133  0.00  0.00    +0.238 A 
ATOM      3  O   UNL     1       5.029  -1.450  28.199  0.00  0.00    -0.283 OA
ATOM      4  C   UNL     1       5.976  -0.202  26.476  0.00  0.00    +0.109 A 
ATOM      5  C   UNL     1       6.224  -0.230  25.111  0.00  0.00    +0.147 A 
ATOM      6  C   UNL     1       6.438   0.970  24.415  0.00  0.00    +0.093 A 
ATOM      7  C   UNL     1       6.417   2.193  25.098  0.00  0.00    +0.131 A 
ATOM      8  C   UNL     1       6.160   2.213  26.468  0.00  0.00    +0.092 A 
ATOM      9  O   UNL     1       6.244  -1.399  24.385  0.00  0.00    -0.451 OA
ATOM     10  C   UNL     1       5.960   1.023  27.158  0.00  0.00    +0.135 A 
ATOM     11  C   UNL     1       6.139  -2.607  25.067  0.00  0.00    +0.181 A 
ENDROOT
BRANCH  11  12
ATOM     12  C   UNL     1       6.227  -3.783  24.170  0.00  0.00    +0.025 A 
ATOM     13  C   UNL     1       7.464  -4.365  23.846  0.00  0.00    +0.015 A 
ATOM     14  C   UNL     1       7.530  -5.491  23.008  0.00  0.00    +0.050 A 
ATOM     15  C   UNL     1       6.363  -6.032  22.495  0.00  0.00    +0.158 A 
ATOM     16  C   UNL     1       5.130  -5.463  22.804  0.00  0.00    +0.159 A 
ATOM     17  C   UNL     1       5.051  -4.347  23.631  0.00  0.00    +0.060 A 
BRANCH  16  18
ATOM     18  O   UNL     1       4.013  -6.050  22.272  0.00  0.00    -0.503 OA
ATOM     19  H   UNL     1       4.104  -7.015  22.351  0.00  0.00    +0.292 HD
ENDBRANCH  16  18
BRANCH  15  20
ATOM     20  O   UNL     1       6.426  -7.142  21.699  0.00  0.00    -0.503 OA
ATOM     21  H   UNL     1       7.012  -7.756  22.185  0.00  0.00    +0.292 HD
ENDBRANCH  15  20
ENDBRANCH  11  12
BRANCH  10  22
ATOM     22  O   UNL     1       5.772   1.076  28.510  0.00  0.00    -0.506 OA
ATOM     23  H   UNL     1       5.883   0.198  28.909  0.00  0.00    +0.292 HD
ENDBRANCH  10  22
BRANCH   7  24
ATOM     24  O   UNL     1       6.640   3.436  24.569  0.00  0.00    -0.461 OA
BRANCH  24  25
ATOM     25  C   UNL     1       7.828   3.621  23.794  0.00  0.00    +0.340 C 
ATOM     26  O   UNL     1       8.830   4.342  24.544  0.00  0.00    -0.322 OA
ATOM     27  C   UNL     1       8.416   5.702  24.808  0.00  0.00    +0.261 C 
ATOM     28  C   UNL     1       8.371   6.454  23.486  0.00  0.00    +0.185 C 
ATOM     29  C   UNL     1       7.247   5.838  22.646  0.00  0.00    +0.180 C 
ATOM     30  C   UNL     1       7.482   4.327  22.456  0.00  0.00    +0.214 C 
BRANCH  29  31
ATOM     31  O   UNL     1       7.200   6.474  21.362  0.00  0.00    -0.386 OA
ATOM     32  H   UNL     1       6.715   7.316  21.490  0.00  0.00    +0.210 HD
ENDBRANCH  29  31
BRANCH  30  33
ATOM     33  O   UNL     1       6.370   3.687  21.815  0.00  0.00    -0.383 OA
ATOM     34  H   UNL     1       5.678   4.357  21.664  0.00  0.00    +0.210 HD
ENDBRANCH  30  33
BRANCH  28  35
ATOM     35  O   UNL     1       9.597   6.289  22.741  0.00  0.00    -0.386 OA
ATOM     36  H   UNL     1      10.339   6.185  23.367  0.00  0.00    +0.210 HD
ENDBRANCH  28  35
BRANCH  27  37
ATOM     37  C   UNL     1       9.386   6.361  25.783  0.00  0.00    +0.337 C 
ATOM     38  O   UNL     1      10.455   6.861  25.474  0.00  0.00    -0.248 OA
BRANCH  37  39
ATOM     39  O   UNL     1       8.909   6.357  27.050  0.00  0.00    -0.479 OA
ATOM     40  H   UNL     1       9.612   6.647  27.672  0.00  0.00    +0.295 HD
ENDBRANCH  37  39
ENDBRANCH  27  37
ENDBRANCH  24  25
ENDBRANCH   7  24
BRANCH   1  41
ATOM     41  O   UNL     1       5.795  -4.002  26.979  0.00  0.00    -0.453 OA
BRANCH  41  45
ATOM     42  C   UNL     1       1.692  -4.140  28.330  0.00  0.00    +0.041 C 
ATOM     43  C   UNL     1       2.787  -5.115  28.778  0.00  0.00    +0.150 C 
ATOM     44  O   UNL     1       4.116  -4.621  28.530  0.00  0.00    -0.334 OA
ATOM     45  C   UNL     1       4.480  -4.559  27.143  0.00  0.00    +0.339 C 
ATOM     46  C   UNL     1       4.461  -5.991  26.567  0.00  0.00    +0.214 C 
ATOM     47  C   UNL     1       3.042  -6.560  26.720  0.00  0.00    +0.180 C 
ATOM     48  C   UNL     1       2.605  -6.528  28.195  0.00  0.00    +0.174 C 
BRANCH  48  49
ATOM     49  O   UNL     1       1.254  -6.968  28.371  0.00  0.00    -0.387 OA
ATOM     50  H   UNL     1       1.027  -6.876  29.313  0.00  0.00    +0.210 HD
ENDBRANCH  48  49
BRANCH  47  51
ATOM     51  O   UNL     1       2.995  -7.906  26.234  0.00  0.00    -0.386 OA
ATOM     52  H   UNL     1       2.234  -7.937  25.617  0.00  0.00    +0.210 HD
ENDBRANCH  47  51
BRANCH  46  53
ATOM     53  O   UNL     1       5.366  -6.872  27.265  0.00  0.00    -0.383 OA
ATOM     54  H   UNL     1       6.020  -6.300  27.716  0.00  0.00    +0.210 HD
ENDBRANCH  46  53
ENDBRANCH  41  45
ENDBRANCH   1  41
TORSDOF 16
ENDMDL
MODEL 5
REMARK VINA RESULT:      -6.9      2.150     10.344
REMARK  Name = 
REMARK  17 active torsions:
REMARK  status: ('A' for Active; 'I' for Inactive)
REMARK    1  A    between atoms: C_1  and  C_2
REMARK    2  A    between atoms: C_3  and  O_44
REMARK    3  A    between atoms: C_4  and  O_43
REMARK    4  A    between atoms: C_5  and  O_42
REMARK    5  A    between atoms: C_6  and  O_8
REMARK    6  A    between atoms: O_8  and  C_9
REMARK    7  A    between atoms: C_10  and  C_34
REMARK    8  A    between atoms: C_14  and  O_21
REMARK    9  A    between atoms: C_16  and  O_20
REMARK   10  A    between atoms: O_21  and  C_22
REMARK   11  A    between atoms: C_23  and  O_33
REMARK   12  A    between atoms: C_24  and  O_32
REMARK   13  A    between atoms: C_25  and  O_31
REMARK   14  A    between atoms: C_26  and  C_28
REMARK   15  A    between atoms: C_28  and  O_30
REMARK   16  A    between atoms: C_36  and  O_41
REMARK   17  A    between atoms: C_37  and  O_40
REMARK                            x       y       z     vdW  Elec       q    Type
REMARK                         _______ _______ _______ _____ _____    ______ ____
ROOT
ATOM      1  C   UNL     1       7.927   0.480  23.609  0.00  0.00    +0.214 A 
ATOM      2  C   UNL     1       8.522  -0.896  23.632  0.00  0.00    +0.238 A 
ATOM      3  O   UNL     1       9.281  -1.294  22.760  0.00  0.00    -0.283 OA
ATOM      4  C   UNL     1       8.049  -1.831  24.661  0.00  0.00    +0.109 A 
ATOM      5  C   UNL     1       6.879  -1.512  25.335  0.00  0.00    +0.147 A 
ATOM      6  C   UNL     1       6.321  -2.430  26.238  0.00  0.00    +0.093 A 
ATOM      7  C   UNL     1       6.949  -3.660  26.472  0.00  0.00    +0.131 A 
ATOM      8  C   UNL     1       8.121  -3.976  25.785  0.00  0.00    +0.092 A 
ATOM      9  O   UNL     1       6.210  -0.326  25.138  0.00  0.00    -0.451 OA
ATOM     10  C   UNL     1       8.679  -3.061  24.899  0.00  0.00    +0.135 A 
ATOM     11  C   UNL     1       6.797   0.642  24.328  0.00  0.00    +0.181 A 
ENDROOT
BRANCH  11  12
ATOM     12  C   UNL     1       5.995   1.885  24.245  0.00  0.00    +0.025 A 
ATOM     13  C   UNL     1       5.814   2.714  25.365  0.00  0.00    +0.015 A 
ATOM     14  C   UNL     1       5.066   3.899  25.266  0.00  0.00    +0.050 A 
ATOM     15  C   UNL     1       4.500   4.253  24.052  0.00  0.00    +0.158 A 
ATOM     16  C   UNL     1       4.669   3.439  22.935  0.00  0.00    +0.159 A 
ATOM     17  C   UNL     1       5.406   2.261  23.020  0.00  0.00    +0.060 A 
BRANCH  16  18
ATOM     18  O   UNL     1       4.091   3.848  21.762  0.00  0.00    -0.503 OA
ATOM     19  H   UNL     1       4.774   3.861  21.071  0.00  0.00    +0.292 HD
ENDBRANCH  16  18
BRANCH  15  20
ATOM     20  O   UNL     1       3.792   5.419  23.951  0.00  0.00    -0.503 OA
ATOM     21  H   UNL     1       3.703   5.729  24.874  0.00  0.00    +0.292 HD
ENDBRANCH  15  20
ENDBRANCH  11  12
BRANCH  10  22
ATOM     22  O   UNL     1       9.860  -3.380  24.291  0.00  0.00    -0.506 OA
ATOM     23  H   UNL     1       9.749  -3.436  23.328  0.00  0.00    +0.292 HD
ENDBRANCH  10  22
BRANCH   7  24
ATOM     24  O   UNL     1       6.549  -4.638  27.341  0.00  0.00    -0.461 OA
BRANCH  24  25
ATOM     25  C   UNL     1       6.129  -5.887  26.784  0.00  0.00    +0.340 C 
ATOM     26  O   UNL     1       5.102  -5.692  25.788  0.00  0.00    -0.322 OA
ATOM     27  C   UNL     1       3.882  -5.189  26.379  0.00  0.00    +0.261 C 
ATOM     28  C   UNL     1       3.296  -6.277  27.266  0.00  0.00    +0.185 C 
ATOM     29  C   UNL     1       4.263  -6.486  28.436  0.00  0.00    +0.180 C 
ATOM     30  C   UNL     1       5.669  -6.843  27.917  0.00  0.00    +0.214 C 
BRANCH  29  31
ATOM     31  O   UNL     1       3.785  -7.546  29.275  0.00  0.00    -0.386 OA
ATOM     32  H   UNL     1       4.125  -8.379  28.886  0.00  0.00    +0.210 HD
ENDBRANCH  29  31
BRANCH  30  33
ATOM     33  O   UNL     1       6.638  -6.885  28.973  0.00  0.00    -0.383 OA
ATOM     34  H   UNL     1       6.674  -6.004  29.389  0.00  0.00    +0.210 HD
ENDBRANCH  30  33
BRANCH  28  35
ATOM     35  O   UNL     1       3.199  -7.537  26.566  0.00  0.00    -0.386 OA
ATOM     36  H   UNL     1       2.564  -7.444  25.830  0.00  0.00    +0.210 HD
ENDBRANCH  28  35
BRANCH  27  37
ATOM     37  C   UNL     1       2.901  -4.786  25.283  0.00  0.00    +0.337 C 
ATOM     38  O   UNL     1       2.140  -5.548  24.711  0.00  0.00    -0.248 OA
BRANCH  37  39
ATOM     39  O   UNL     1       2.948  -3.457  25.028  0.00  0.00    -0.479 OA
ATOM     40  H   UNL     1       2.881  -2.954  25.870  0.00  0.00    +0.295 HD
ENDBRANCH  37  39
ENDBRANCH  27  37
ENDBRANCH  24  25
ENDBRANCH   7  24
BRANCH   1  41
ATOM     41  O   UNL     1       8.432   1.510  22.814  0.00  0.00    -0.453 OA
BRANCH  41  45
ATOM     42  C   UNL     1       8.571   5.082  25.243  0.00  0.00    +0.041 C 
ATOM     43  C   UNL     1       8.942   5.028  23.756  0.00  0.00    +0.150 C 
ATOM     44  O   UNL     1       8.424   3.862  23.090  0.00  0.00    -0.334 OA
ATOM     45  C   UNL     1       9.044   2.628  23.480  0.00  0.00    +0.339 C 
ATOM     46  C   UNL     1      10.538   2.688  23.098  0.00  0.00    +0.214 C 
ATOM     47  C   UNL     1      11.185   3.865  23.843  0.00  0.00    +0.180 C 
ATOM     48  C   UNL     1      10.454   5.179  23.511  0.00  0.00    +0.174 C 
BRANCH  48  49
ATOM     49  O   UNL     1      10.970   6.289  24.252  0.00  0.00    -0.387 OA
ATOM     50  H   UNL     1      11.474   5.940  25.008  0.00  0.00    +0.210 HD
ENDBRANCH  48  49
BRANCH  47  51
ATOM     51  O   UNL     1      12.566   3.980  23.481  0.00  0.00    -0.386 OA
ATOM     52  H   UNL     1      12.858   4.848  23.829  0.00  0.00    +0.210 HD
ENDBRANCH  47  51
BRANCH  46  53
ATOM     53  O   UNL     1      10.732   2.900  21.684  0.00  0.00    -0.383 OA
ATOM     54  H   UNL     1      11.280   3.706  21.596  0.00  0.00    +0.210 HD
ENDBRANCH  46  53
ENDBRANCH  41  45
ENDBRANCH   1  41
TORSDOF 16
ENDMDL
MODEL 6
REMARK VINA RESULT:      -6.8      3.540     10.118
REMARK  Name = 
REMARK  17 active torsions:
REMARK  status: ('A' for Active; 'I' for Inactive)
REMARK    1  A    between atoms: C_1  and  C_2
REMARK    2  A    between atoms: C_3  and  O_44
REMARK    3  A    between atoms: C_4  and  O_43
REMARK    4  A    between atoms: C_5  and  O_42
REMARK    5  A    between atoms: C_6  and  O_8
REMARK    6  A    between atoms: O_8  and  C_9
REMARK    7  A    between atoms: C_10  and  C_34
REMARK    8  A    between atoms: C_14  and  O_21
REMARK    9  A    between atoms: C_16  and  O_20
REMARK   10  A    between atoms: O_21  and  C_22
REMARK   11  A    between atoms: C_23  and  O_33
REMARK   12  A    between atoms: C_24  and  O_32
REMARK   13  A    between atoms: C_25  and  O_31
REMARK   14  A    between atoms: C_26  and  C_28
REMARK   15  A    between atoms: C_28  and  O_30
REMARK   16  A    between atoms: C_36  and  O_41
REMARK   17  A    between atoms: C_37  and  O_40
REMARK                            x       y       z     vdW  Elec       q    Type
REMARK                         _______ _______ _______ _____ _____    ______ ____
ROOT
ATOM      1  C   UNL     1       5.071   2.134  25.425  0.00  0.00    +0.214 A 
ATOM      2  C   UNL     1       4.125   1.786  26.534  0.00  0.00    +0.238 A 
ATOM      3  O   UNL     1       3.625   2.636  27.259  0.00  0.00    -0.283 OA
ATOM      4  C   UNL     1       3.920   0.364  26.841  0.00  0.00    +0.109 A 
ATOM      5  C   UNL     1       4.830  -0.546  26.322  0.00  0.00    +0.147 A 
ATOM      6  C   UNL     1       4.750  -1.899  26.686  0.00  0.00    +0.093 A 
ATOM      7  C   UNL     1       3.746  -2.335  27.560  0.00  0.00    +0.131 A 
ATOM      8  C   UNL     1       2.840  -1.413  28.083  0.00  0.00    +0.092 A 
ATOM      9  O   UNL     1       5.845  -0.175  25.470  0.00  0.00    -0.451 OA
ATOM     10  C   UNL     1       2.913  -0.075  27.713  0.00  0.00    +0.135 A 
ATOM     11  C   UNL     1       5.883   1.139  25.013  0.00  0.00    +0.181 A 
ENDROOT
BRANCH  11  12
ATOM     12  C   UNL     1       6.994   1.386  24.066  0.00  0.00    +0.025 A 
ATOM     13  C   UNL     1       6.786   1.377  22.675  0.00  0.00    +0.015 A 
ATOM     14  C   UNL     1       7.847   1.631  21.790  0.00  0.00    +0.050 A 
ATOM     15  C   UNL     1       9.111   1.892  22.292  0.00  0.00    +0.158 A 
ATOM     16  C   UNL     1       9.333   1.900  23.667  0.00  0.00    +0.159 A 
ATOM     17  C   UNL     1       8.291   1.648  24.555  0.00  0.00    +0.060 A 
BRANCH  16  18
ATOM     18  O   UNL     1      10.603   2.173  24.100  0.00  0.00    -0.503 OA
ATOM     19  H   UNL     1      11.152   1.382  23.963  0.00  0.00    +0.292 HD
ENDBRANCH  16  18
BRANCH  15  20
ATOM     20  O   UNL     1      10.138   2.163  21.431  0.00  0.00    -0.503 OA
ATOM     21  H   UNL     1      10.508   1.284  21.211  0.00  0.00    +0.292 HD
ENDBRANCH  15  20
ENDBRANCH  11  12
BRANCH  10  22
ATOM     22  O   UNL     1       1.971   0.788  28.196  0.00  0.00    -0.506 OA
ATOM     23  H   UNL     1       1.671   0.513  29.077  0.00  0.00    +0.292 HD
ENDBRANCH  10  22
BRANCH   7  24
ATOM     24  O   UNL     1       3.518  -3.618  27.979  0.00  0.00    -0.461 OA
BRANCH  24  25
ATOM     25  C   UNL     1       4.449  -4.186  28.903  0.00  0.00    +0.340 C 
ATOM     26  O   UNL     1       5.713  -4.467  28.262  0.00  0.00    -0.322 OA
ATOM     27  C   UNL     1       5.582  -5.511  27.271  0.00  0.00    +0.261 C 
ATOM     28  C   UNL     1       5.266  -6.815  27.988  0.00  0.00    +0.185 C 
ATOM     29  C   UNL     1       3.876  -6.669  28.616  0.00  0.00    +0.180 C 
ATOM     30  C   UNL     1       3.837  -5.452  29.561  0.00  0.00    +0.214 C 
BRANCH  29  31
ATOM     31  O   UNL     1       3.553  -7.853  29.356  0.00  0.00    -0.386 OA
ATOM     32  H   UNL     1       3.360  -8.548  28.693  0.00  0.00    +0.210 HD
ENDBRANCH  29  31
BRANCH  30  33
ATOM     33  O   UNL     1       2.512  -5.186  30.040  0.00  0.00    -0.383 OA
ATOM     34  H   UNL     1       2.050  -6.038  30.151  0.00  0.00    +0.210 HD
ENDBRANCH  30  33
BRANCH  28  35
ATOM     35  O   UNL     1       6.194  -7.065  29.066  0.00  0.00    -0.386 OA
ATOM     36  H   UNL     1       7.094  -6.828  28.772  0.00  0.00    +0.210 HD
ENDBRANCH  28  35
BRANCH  27  37
ATOM     37  C   UNL     1       6.870  -5.626  26.463  0.00  0.00    +0.337 C 
ATOM     38  O   UNL     1       6.964  -5.424  25.264  0.00  0.00    -0.248 OA
BRANCH  37  39
ATOM     39  O   UNL     1       7.927  -5.956  27.243  0.00  0.00    -0.479 OA
ATOM     40  H   UNL     1       8.765  -5.723  26.785  0.00  0.00    +0.295 HD
ENDBRANCH  37  39
ENDBRANCH  27  37
ENDBRANCH  24  25
ENDBRANCH   7  24
BRANCH   1  41
ATOM     41  O   UNL     1       5.195   3.428  24.914  0.00  0.00    -0.453 OA
BRANCH  41  45
ATOM     42  C   UNL     1       1.125   3.684  23.486  0.00  0.00    +0.041 C 
ATOM     43  C   UNL     1       2.333   3.338  22.608  0.00  0.00    +0.150 C 
ATOM     44  O   UNL     1       3.476   2.911  23.369  0.00  0.00    -0.334 OA
ATOM     45  C   UNL     1       4.100   3.947  24.140  0.00  0.00    +0.339 C 
ATOM     46  C   UNL     1       4.632   5.026  23.173  0.00  0.00    +0.214 C 
ATOM     47  C   UNL     1       3.447   5.595  22.378  0.00  0.00    +0.180 C 
ATOM     48  C   UNL     1       2.707   4.469  21.633  0.00  0.00    +0.174 C 
BRANCH  48  49
ATOM     49  O   UNL     1       1.543   4.943  20.949  0.00  0.00    -0.387 OA
ATOM     50  H   UNL     1       1.835   5.436  20.162  0.00  0.00    +0.210 HD
ENDBRANCH  48  49
BRANCH  47  51
ATOM     51  O   UNL     1       3.907   6.572  21.437  0.00  0.00    -0.386 OA
ATOM     52  H   UNL     1       3.170   7.211  21.341  0.00  0.00    +0.210 HD
ENDBRANCH  47  51
BRANCH  46  53
ATOM     53  O   UNL     1       5.581   4.490  22.227  0.00  0.00    -0.383 OA
ATOM     54  H   UNL     1       6.329   4.139  22.751  0.00  0.00    +0.210 HD
ENDBRANCH  46  53
ENDBRANCH  41  45
ENDBRANCH   1  41
TORSDOF 16
ENDMDL
MODEL 7
REMARK VINA RESULT:      -6.8      2.566      4.997
REMARK  Name = 
REMARK  17 active torsions:
REMARK  status: ('A' for Active; 'I' for Inactive)
REMARK    1  A    between atoms: C_1  and  C_2
REMARK    2  A    between atoms: C_3  and  O_44
REMARK    3  A    between atoms: C_4  and  O_43
REMARK    4  A    between atoms: C_5  and  O_42
REMARK    5  A    between atoms: C_6  and  O_8
REMARK    6  A    between atoms: O_8  and  C_9
REMARK    7  A    between atoms: C_10  and  C_34
REMARK    8  A    between atoms: C_14  and  O_21
REMARK    9  A    between atoms: C_16  and  O_20
REMARK   10  A    between atoms: O_21  and  C_22
REMARK   11  A    between atoms: C_23  and  O_33
REMARK   12  A    between atoms: C_24  and  O_32
REMARK   13  A    between atoms: C_25  and  O_31
REMARK   14  A    between atoms: C_26  and  C_28
REMARK   15  A    between atoms: C_28  and  O_30
REMARK   16  A    between atoms: C_36  and  O_41
REMARK   17  A    between atoms: C_37  and  O_40
REMARK                            x       y       z     vdW  Elec       q    Type
REMARK                         _______ _______ _______ _____ _____    ______ ____
ROOT
ATOM      1  C   UNL     1       4.855  -1.827  25.681  0.00  0.00    +0.214 A 
ATOM      2  C   UNL     1       4.417  -0.578  26.384  0.00  0.00    +0.238 A 
ATOM      3  O   UNL     1       3.266  -0.412  26.764  0.00  0.00    -0.283 OA
ATOM      4  C   UNL     1       5.375   0.530  26.478  0.00  0.00    +0.109 A 
ATOM      5  C   UNL     1       6.491   0.491  25.654  0.00  0.00    +0.147 A 
ATOM      6  C   UNL     1       7.372   1.582  25.617  0.00  0.00    +0.093 A 
ATOM      7  C   UNL     1       7.135   2.706  26.420  0.00  0.00    +0.131 A 
ATOM      8  C   UNL     1       6.008   2.741  27.240  0.00  0.00    +0.092 A 
ATOM      9  O   UNL     1       6.769  -0.579  24.834  0.00  0.00    -0.451 OA
ATOM     10  C   UNL     1       5.142   1.654  27.284  0.00  0.00    +0.135 A 
ATOM     11  C   UNL     1       5.971  -1.715  24.929  0.00  0.00    +0.181 A 
ENDROOT
BRANCH  11  12
ATOM     12  C   UNL     1       6.412  -2.805  24.029  0.00  0.00    +0.025 A 
ATOM     13  C   UNL     1       7.392  -3.732  24.427  0.00  0.00    +0.015 A 
ATOM     14  C   UNL     1       7.787  -4.770  23.569  0.00  0.00    +0.050 A 
ATOM     15  C   UNL     1       7.207  -4.883  22.316  0.00  0.00    +0.158 A 
ATOM     16  C   UNL     1       6.238  -3.970  21.907  0.00  0.00    +0.159 A 
ATOM     17  C   UNL     1       5.839  -2.935  22.747  0.00  0.00    +0.060 A 
BRANCH  16  18
ATOM     18  O   UNL     1       5.697  -4.141  20.660  0.00  0.00    -0.503 OA
ATOM     19  H   UNL     1       6.390  -4.476  20.067  0.00  0.00    +0.292 HD
ENDBRANCH  16  18
BRANCH  15  20
ATOM     20  O   UNL     1       7.575  -5.909  21.491  0.00  0.00    -0.503 OA
ATOM     21  H   UNL     1       7.026  -5.785  20.690  0.00  0.00    +0.292 HD
ENDBRANCH  15  20
ENDBRANCH  11  12
BRANCH  10  22
ATOM     22  O   UNL     1       4.082   1.699  28.144  0.00  0.00    -0.506 OA
ATOM     23  H   UNL     1       4.090   0.934  28.742  0.00  0.00    +0.292 HD
ENDBRANCH  10  22
BRANCH   7  24
ATOM     24  O   UNL     1       7.914   3.827  26.520  0.00  0.00    -0.461 OA
BRANCH  24  25
ATOM     25  C   UNL     1       7.442   5.019  25.887  0.00  0.00    +0.340 C 
ATOM     26  O   UNL     1       7.054   4.762  24.520  0.00  0.00    -0.322 OA
ATOM     27  C   UNL     1       8.194   4.409  23.704  0.00  0.00    +0.261 C 
ATOM     28  C   UNL     1       9.092   5.630  23.581  0.00  0.00    +0.185 C 
ATOM     29  C   UNL     1       9.659   5.926  24.974  0.00  0.00    +0.180 C 
ATOM     30  C   UNL     1       8.517   6.134  25.987  0.00  0.00    +0.214 C 
BRANCH  29  31
ATOM     31  O   UNL     1      10.469   7.108  24.925  0.00  0.00    -0.386 OA
ATOM     32  H   UNL     1       9.938   7.786  24.457  0.00  0.00    +0.210 HD
ENDBRANCH  29  31
BRANCH  30  33
ATOM     33  O   UNL     1       9.005   6.250  27.331  0.00  0.00    -0.383 OA
ATOM     34  H   UNL     1       8.303   5.951  27.938  0.00  0.00    +0.210 HD
ENDBRANCH  30  33
BRANCH  28  35
ATOM     35  O   UNL     1       8.346   6.797  23.171  0.00  0.00    -0.386 OA
ATOM     36  H   UNL     1       8.778   7.192  22.389  0.00  0.00    +0.210 HD
ENDBRANCH  28  35
BRANCH  27  37
ATOM     37  C   UNL     1       7.726   3.930  22.333  0.00  0.00    +0.337 C 
ATOM     38  O   UNL     1       7.805   2.782  21.929  0.00  0.00    -0.248 OA
BRANCH  37  39
ATOM     39  O   UNL     1       7.175   4.934  21.610  0.00  0.00    -0.479 OA
ATOM     40  H   UNL     1       7.880   5.433  21.142  0.00  0.00    +0.295 HD
ENDBRANCH  37  39
ENDBRANCH  27  37
ENDBRANCH  24  25
ENDBRANCH   7  24
BRANCH   1  41
ATOM     41  O   UNL     1       4.112  -3.009  25.700  0.00  0.00    -0.453 OA
BRANCH  41  45
ATOM     42  C   UNL     1       6.626  -5.860  27.756  0.00  0.00    +0.041 C 
ATOM     43  C   UNL     1       5.337  -6.220  27.008  0.00  0.00    +0.150 C 
ATOM     44  O   UNL     1       4.923  -5.201  26.080  0.00  0.00    -0.334 OA
ATOM     45  C   UNL     1       4.450  -3.993  26.693  0.00  0.00    +0.339 C 
ATOM     46  C   UNL     1       3.193  -4.325  27.524  0.00  0.00    +0.214 C 
ATOM     47  C   UNL     1       3.578  -5.351  28.601  0.00  0.00    +0.180 C 
ATOM     48  C   UNL     1       4.187  -6.608  27.953  0.00  0.00    +0.174 C 
BRANCH  48  49
ATOM     49  O   UNL     1       4.639  -7.555  28.926  0.00  0.00    -0.387 OA
ATOM     50  H   UNL     1       4.201  -7.351  29.772  0.00  0.00    +0.210 HD
ENDBRANCH  48  49
BRANCH  47  51
ATOM     51  O   UNL     1       2.425  -5.717  29.368  0.00  0.00    -0.386 OA
ATOM     52  H   UNL     1       1.653  -5.466  28.819  0.00  0.00    +0.210 HD
ENDBRANCH  47  51
BRANCH  46  53
ATOM     53  O   UNL     1       2.143  -4.901  26.720  0.00  0.00    -0.383 OA
ATOM     54  H   UNL     1       1.739  -4.164  26.219  0.00  0.00    +0.210 HD
ENDBRANCH  46  53
ENDBRANCH  41  45
ENDBRANCH   1  41
TORSDOF 16
ENDMDL
MODEL 8
REMARK VINA RESULT:      -6.7      2.726     10.399
REMARK  Name = 
REMARK  17 active torsions:
REMARK  status: ('A' for Active; 'I' for Inactive)
REMARK    1  A    between atoms: C_1  and  C_2
REMARK    2  A    between atoms: C_3  and  O_44
REMARK    3  A    between atoms: C_4  and  O_43
REMARK    4  A    between atoms: C_5  and  O_42
REMARK    5  A    between atoms: C_6  and  O_8
REMARK    6  A    between atoms: O_8  and  C_9
REMARK    7  A    between atoms: C_10  and  C_34
REMARK    8  A    between atoms: C_14  and  O_21
REMARK    9  A    between atoms: C_16  and  O_20
REMARK   10  A    between atoms: O_21  and  C_22
REMARK   11  A    between atoms: C_23  and  O_33
REMARK   12  A    between atoms: C_24  and  O_32
REMARK   13  A    between atoms: C_25  and  O_31
REMARK   14  A    between atoms: C_26  and  C_28
REMARK   15  A    between atoms: C_28  and  O_30
REMARK   16  A    between atoms: C_36  and  O_41
REMARK   17  A    between atoms: C_37  and  O_40
REMARK                            x       y       z     vdW  Elec       q    Type
REMARK                         _______ _______ _______ _____ _____    ______ ____
ROOT
ATOM      1  C   UNL     1       7.088   0.485  24.778  0.00  0.00    +0.214 A 
ATOM      2  C   UNL     1       6.866  -0.555  23.723  0.00  0.00    +0.238 A 
ATOM      3  O   UNL     1       7.291  -0.431  22.582  0.00  0.00    -0.283 OA
ATOM      4  C   UNL     1       5.981  -1.682  24.044  0.00  0.00    +0.109 A 
ATOM      5  C   UNL     1       5.163  -1.563  25.159  0.00  0.00    +0.147 A 
ATOM      6  C   UNL     1       4.213  -2.557  25.439  0.00  0.00    +0.093 A 
ATOM      7  C   UNL     1       4.098  -3.677  24.603  0.00  0.00    +0.131 A 
ATOM      8  C   UNL     1       4.918  -3.785  23.481  0.00  0.00    +0.092 A 
ATOM      9  O   UNL     1       5.221  -0.482  26.008  0.00  0.00    -0.451 OA
ATOM     10  C   UNL     1       5.867  -2.805  23.212  0.00  0.00    +0.135 A 
ATOM     11  C   UNL     1       6.222   0.465  25.813  0.00  0.00    +0.181 A 
ENDROOT
BRANCH  11  12
ATOM     12  C   UNL     1       6.198   1.544  26.827  0.00  0.00    +0.025 A 
ATOM     13  C   UNL     1       5.263   2.591  26.759  0.00  0.00    +0.015 A 
ATOM     14  C   UNL     1       5.241   3.599  27.737  0.00  0.00    +0.050 A 
ATOM     15  C   UNL     1       6.152   3.560  28.781  0.00  0.00    +0.158 A 
ATOM     16  C   UNL     1       7.087   2.531  28.858  0.00  0.00    +0.159 A 
ATOM     17  C   UNL     1       7.121   1.528  27.894  0.00  0.00    +0.060 A 
BRANCH  16  18
ATOM     18  O   UNL     1       7.955   2.546  29.918  0.00  0.00    -0.503 OA
ATOM     19  H   UNL     1       8.240   3.463  30.070  0.00  0.00    +0.292 HD
ENDBRANCH  16  18
BRANCH  15  20
ATOM     20  O   UNL     1       6.115   4.528  29.746  0.00  0.00    -0.503 OA
ATOM     21  H   UNL     1       5.468   5.180  29.410  0.00  0.00    +0.292 HD
ENDBRANCH  15  20
ENDBRANCH  11  12
BRANCH  10  22
ATOM     22  O   UNL     1       6.695  -2.975  22.139  0.00  0.00    -0.506 OA
ATOM     23  H   UNL     1       6.647  -3.886  21.807  0.00  0.00    +0.292 HD
ENDBRANCH  10  22
BRANCH   7  24
ATOM     24  O   UNL     1       3.250  -4.739  24.761  0.00  0.00    -0.461 OA
BRANCH  24  25
ATOM     25  C   UNL     1       3.827  -6.047  24.785  0.00  0.00    +0.340 C 
ATOM     26  O   UNL     1       3.224  -6.900  23.788  0.00  0.00    -0.322 OA
ATOM     27  C   UNL     1       1.835  -7.167  24.091  0.00  0.00    +0.261 C 
ATOM     28  C   UNL     1       1.775  -8.019  25.349  0.00  0.00    +0.185 C 
ATOM     29  C   UNL     1       2.291  -7.160  26.510  0.00  0.00    +0.180 C 
ATOM     30  C   UNL     1       3.714  -6.650  26.212  0.00  0.00    +0.214 C 
BRANCH  29  31
ATOM     31  O   UNL     1       2.310  -7.938  27.714  0.00  0.00    -0.386 OA
ATOM     32  H   UNL     1       1.782  -7.439  28.372  0.00  0.00    +0.210 HD
ENDBRANCH  29  31
BRANCH  30  33
ATOM     33  O   UNL     1       4.166  -5.712  27.197  0.00  0.00    -0.383 OA
ATOM     34  H   UNL     1       3.423  -5.121  27.420  0.00  0.00    +0.210 HD
ENDBRANCH  30  33
BRANCH  28  35
ATOM     35  O   UNL     1       2.644  -9.168  25.254  0.00  0.00    -0.386 OA
ATOM     36  H   UNL     1       3.491  -8.894  24.852  0.00  0.00    +0.210 HD
ENDBRANCH  28  35
BRANCH  27  37
ATOM     37  C   UNL     1       1.173  -7.877  22.914  0.00  0.00    +0.337 C 
ATOM     38  O   UNL     1       0.807  -9.040  22.916  0.00  0.00    -0.248 OA
BRANCH  37  39
ATOM     39  O   UNL     1       1.007  -7.050  21.855  0.00  0.00    -0.479 OA
ATOM     40  H   UNL     1       1.882  -6.816  21.474  0.00  0.00    +0.295 HD
ENDBRANCH  37  39
ENDBRANCH  27  37
ENDBRANCH  24  25
ENDBRANCH   7  24
BRANCH   1  41
ATOM     41  O   UNL     1       8.054   1.487  24.664  0.00  0.00    -0.453 OA
BRANCH  41  45
ATOM     42  C   UNL     1       5.221   4.555  23.550  0.00  0.00    +0.041 C 
ATOM     43  C   UNL     1       6.214   3.898  22.584  0.00  0.00    +0.150 C 
ATOM     44  O   UNL     1       6.736   2.651  23.077  0.00  0.00    -0.334 OA
ATOM     45  C   UNL     1       7.624   2.777  24.197  0.00  0.00    +0.339 C 
ATOM     46  C   UNL     1       8.858   3.592  23.754  0.00  0.00    +0.214 C 
ATOM     47  C   UNL     1       8.387   4.978  23.291  0.00  0.00    +0.180 C 
ATOM     48  C   UNL     1       7.350   4.845  22.160  0.00  0.00    +0.174 C 
BRANCH  48  49
ATOM     49  O   UNL     1       6.820   6.111  21.758  0.00  0.00    -0.387 OA
ATOM     50  H   UNL     1       6.430   6.008  20.871  0.00  0.00    +0.210 HD
ENDBRANCH  48  49
BRANCH  47  51
ATOM     51  O   UNL     1       9.502   5.751  22.831  0.00  0.00    -0.386 OA
ATOM     52  H   UNL     1      10.161   5.098  22.515  0.00  0.00    +0.210 HD
ENDBRANCH  47  51
BRANCH  46  53
ATOM     53  O   UNL     1       9.555   2.972  22.653  0.00  0.00    -0.383 OA
ATOM     54  H   UNL     1      10.444   2.733  22.985  0.00  0.00    +0.210 HD
ENDBRANCH  46  53
ENDBRANCH  41  45
ENDBRANCH   1  41
TORSDOF 16
ENDMDL
MODEL 9
REMARK VINA RESULT:      -6.7      1.646      3.116
REMARK  Name = 
REMARK  17 active torsions:
REMARK  status: ('A' for Active; 'I' for Inactive)
REMARK    1  A    between atoms: C_1  and  C_2
REMARK    2  A    between atoms: C_3  and  O_44
REMARK    3  A    between atoms: C_4  and  O_43
REMARK    4  A    between atoms: C_5  and  O_42
REMARK    5  A    between atoms: C_6  and  O_8
REMARK    6  A    between atoms: O_8  and  C_9
REMARK    7  A    between atoms: C_10  and  C_34
REMARK    8  A    between atoms: C_14  and  O_21
REMARK    9  A    between atoms: C_16  and  O_20
REMARK   10  A    between atoms: O_21  and  C_22
REMARK   11  A    between atoms: C_23  and  O_33
REMARK   12  A    between atoms: C_24  and  O_32
REMARK   13  A    between atoms: C_25  and  O_31
REMARK   14  A    between atoms: C_26  and  C_28
REMARK   15  A    between atoms: C_28  and  O_30
REMARK   16  A    between atoms: C_36  and  O_41
REMARK   17  A    between atoms: C_37  and  O_40
REMARK                            x       y       z     vdW  Elec       q    Type
REMARK                         _______ _______ _______ _____ _____    ______ ____
ROOT
ATOM      1  C   UNL     1       6.975  -3.709  25.683  0.00  0.00    +0.214 A 
ATOM      2  C   UNL     1       8.240  -3.374  24.952  0.00  0.00    +0.238 A 
ATOM      3  O   UNL     1       9.156  -4.176  24.828  0.00  0.00    -0.283 OA
ATOM      4  C   UNL     1       8.430  -1.987  24.507  0.00  0.00    +0.109 A 
ATOM      5  C   UNL     1       7.603  -1.015  25.053  0.00  0.00    +0.147 A 
ATOM      6  C   UNL     1       7.825   0.338  24.755  0.00  0.00    +0.093 A 
ATOM      7  C   UNL     1       8.868   0.709  23.897  0.00  0.00    +0.131 A 
ATOM      8  C   UNL     1       9.699  -0.273  23.359  0.00  0.00    +0.092 A 
ATOM      9  O   UNL     1       6.571  -1.318  25.911  0.00  0.00    -0.451 OA
ATOM     10  C   UNL     1       9.472  -1.615  23.646  0.00  0.00    +0.135 A 
ATOM     11  C   UNL     1       6.266  -2.656  26.140  0.00  0.00    +0.181 A 
ENDROOT
BRANCH  11  12
ATOM     12  C   UNL     1       5.104  -2.835  27.041  0.00  0.00    +0.025 A 
ATOM     13  C   UNL     1       3.807  -2.464  26.645  0.00  0.00    +0.015 A 
ATOM     14  C   UNL     1       2.713  -2.656  27.504  0.00  0.00    +0.050 A 
ATOM     15  C   UNL     1       2.913  -3.217  28.754  0.00  0.00    +0.158 A 
ATOM     16  C   UNL     1       4.193  -3.586  29.161  0.00  0.00    +0.159 A 
ATOM     17  C   UNL     1       5.286  -3.398  28.321  0.00  0.00    +0.060 A 
BRANCH  16  18
ATOM     18  O   UNL     1       4.323  -4.142  30.406  0.00  0.00    -0.503 OA
ATOM     19  H   UNL     1       3.541  -4.692  30.582  0.00  0.00    +0.292 HD
ENDBRANCH  16  18
BRANCH  15  20
ATOM     20  O   UNL     1       1.844  -3.426  29.580  0.00  0.00    -0.503 OA
ATOM     21  H   UNL     1       1.313  -2.608  29.501  0.00  0.00    +0.292 HD
ENDBRANCH  15  20
ENDBRANCH  11  12
BRANCH  10  22
ATOM     22  O   UNL     1      10.267  -2.553  23.052  0.00  0.00    -0.506 OA
ATOM     23  H   UNL     1      11.132  -2.176  22.821  0.00  0.00    +0.292 HD
ENDBRANCH  10  22
BRANCH   7  24
ATOM     24  O   UNL     1       9.188   1.975  23.486  0.00  0.00    -0.461 OA
BRANCH  24  25
ATOM     25  C   UNL     1       9.452   2.950  24.498  0.00  0.00    +0.340 C 
ATOM     26  O   UNL     1       8.258   3.258  25.248  0.00  0.00    -0.322 OA
ATOM     27  C   UNL     1       7.272   3.923  24.425  0.00  0.00    +0.261 C 
ATOM     28  C   UNL     1       7.807   5.298  24.056  0.00  0.00    +0.185 C 
ATOM     29  C   UNL     1       9.026   5.089  23.150  0.00  0.00    +0.180 C 
ATOM     30  C   UNL     1      10.081   4.218  23.859  0.00  0.00    +0.214 C 
BRANCH  29  31
ATOM     31  O   UNL     1       9.605   6.358  22.820  0.00  0.00    -0.386 OA
ATOM     32  H   UNL     1       9.179   6.646  21.986  0.00  0.00    +0.210 HD
ENDBRANCH  29  31
BRANCH  30  33
ATOM     33  O   UNL     1      11.162   3.865  22.985  0.00  0.00    -0.383 OA
ATOM     34  H   UNL     1      10.787   3.629  22.116  0.00  0.00    +0.210 HD
ENDBRANCH  30  33
BRANCH  28  35
ATOM     35  O   UNL     1       8.264   6.020  25.220  0.00  0.00    -0.386 OA
ATOM     36  H   UNL     1       7.505   6.482  25.626  0.00  0.00    +0.210 HD
ENDBRANCH  28  35
BRANCH  27  37
ATOM     37  C   UNL     1       5.951   4.031  25.179  0.00  0.00    +0.337 C 
ATOM     38  O   UNL     1       5.445   5.075  25.557  0.00  0.00    -0.248 OA
BRANCH  37  39
ATOM     39  O   UNL     1       5.374   2.820  25.362  0.00  0.00    -0.479 OA
ATOM     40  H   UNL     1       4.490   2.804  24.933  0.00  0.00    +0.295 HD
ENDBRANCH  37  39
ENDBRANCH  27  37
ENDBRANCH  24  25
ENDBRANCH   7  24
BRANCH   1  41
ATOM     41  O   UNL     1       6.594  -5.020  25.977  0.00  0.00    -0.453 OA
BRANCH  41  45
ATOM     42  C   UNL     1       5.274  -6.064  21.997  0.00  0.00    +0.041 C 
ATOM     43  C   UNL     1       4.373  -5.461  23.081  0.00  0.00    +0.150 C 
ATOM     44  O   UNL     1       5.113  -4.828  24.139  0.00  0.00    -0.334 OA
ATOM     45  C   UNL     1       5.837  -5.733  24.985  0.00  0.00    +0.339 C 
ATOM     46  C   UNL     1       4.826  -6.661  25.690  0.00  0.00    +0.214 C 
ATOM     47  C   UNL     1       4.049  -7.440  24.619  0.00  0.00    +0.180 C 
ATOM     48  C   UNL     1       3.357  -6.471  23.643  0.00  0.00    +0.174 C 
BRANCH  48  49
ATOM     49  O   UNL     1       2.693  -7.157  22.577  0.00  0.00    -0.387 OA
ATOM     50  H   UNL     1       2.219  -7.918  22.956  0.00  0.00    +0.210 HD
ENDBRANCH  48  49
BRANCH  47  51
ATOM     51  O   UNL     1       3.068  -8.283  25.235  0.00  0.00    -0.386 OA
ATOM     52  H   UNL     1       2.200  -7.933  24.944  0.00  0.00    +0.210 HD
ENDBRANCH  47  51
BRANCH  46  53
ATOM     53  O   UNL     1       3.869  -5.924  26.480  0.00  0.00    -0.383 OA
ATOM     54  H   UNL     1       3.064  -6.478  26.531  0.00  0.00    +0.210 HD
ENDBRANCH  46  53
ENDBRANCH  41  45
ENDBRANCH   1  41
TORSDOF 16
ENDMDL
