MODEL 1
REMARK VINA RESULT:      -7.0      0.000      0.000
REMARK  Name = 
REMARK  19 active torsions:
REMARK  status: ('A' for Active; 'I' for Inactive)
REMARK    1  A    between atoms: C_1  and  O_2
REMARK    2  A    between atoms: O_2  and  C_3
REMARK    3  A    between atoms: C_5  and  O_50
REMARK    4  A    between atoms: C_10  and  C_41
REMARK    5  A    between atoms: C_11  and  O_14
REMARK    6  A    between atoms: O_14  and  C_15
REMARK    7  A    between atoms: C_17  and  O_40
REMARK    8  A    between atoms: C_19  and  O_39
REMARK    9  A    between atoms: C_20  and  C_23
REMARK   10  A    between atoms: C_23  and  O_24
REMARK   11  A    between atoms: O_24  and  C_25
REMARK   12  A    between atoms: C_27  and  O_38
REMARK   13  A    between atoms: C_28  and  O_37
REMARK   14  A    between atoms: C_30  and  O_36
REMARK   15  A    between atoms: C_32  and  C_34
REMARK   16  A    between atoms: C_34  and  O_35
REMARK   17  A    between atoms: C_43  and  O_48
REMARK   18  A    between atoms: C_44  and  O_47
REMARK   19  A    between atoms: O_48  and  C_49
REMARK                            x       y       z     vdW  Elec       q    Type
REMARK                         _______ _______ _______ _____ _____    ______ ____
ROOT
ATOM      1  O   UNL     1       5.561   0.209  24.375  0.00  0.00    -0.453 OA
ENDROOT
BRANCH   1   7
ATOM      2  C   UNL     1      10.751   3.824  23.546  0.00  0.00    +0.127 A 
ATOM      3  C   UNL     1      10.542   2.453  23.338  0.00  0.00    +0.092 A 
ATOM      4  C   UNL     1       9.256   1.921  23.451  0.00  0.00    +0.147 A 
ATOM      5  O   UNL     1       9.073   0.576  23.239  0.00  0.00    -0.451 OA
ATOM      6  C   UNL     1       7.848   0.006  23.617  0.00  0.00    +0.181 A 
ATOM      7  C   UNL     1       6.763   0.742  23.952  0.00  0.00    +0.214 A 
ATOM      8  C   UNL     1       6.862   2.196  23.693  0.00  0.00    +0.238 A 
ATOM      9  O   UNL     1       5.866   2.861  23.407  0.00  0.00    -0.283 OA
ATOM     10  C   UNL     1       8.197   2.773  23.754  0.00  0.00    +0.109 A 
ATOM     11  C   UNL     1       8.415   4.112  24.062  0.00  0.00    +0.135 A 
ATOM     12  C   UNL     1       9.697   4.642  23.964  0.00  0.00    +0.092 A 
BRANCH   6  13
ATOM     13  C   UNL     1       7.843  -1.486  23.543  0.00  0.00    +0.025 A 
ATOM     14  C   UNL     1       6.974  -2.168  22.669  0.00  0.00    +0.015 A 
ATOM     15  C   UNL     1       7.011  -3.554  22.532  0.00  0.00    +0.050 A 
ATOM     16  C   UNL     1       7.948  -4.278  23.255  0.00  0.00    +0.158 A 
ATOM     17  C   UNL     1       8.842  -3.645  24.125  0.00  0.00    +0.162 A 
ATOM     18  C   UNL     1       8.778  -2.251  24.272  0.00  0.00    +0.061 A 
BRANCH  16  19
ATOM     19  O   UNL     1       7.994  -5.633  23.076  0.00  0.00    -0.503 OA
ATOM     20  H   UNL     1       7.168  -5.970  23.470  0.00  0.00    +0.292 HD
ENDBRANCH  16  19
BRANCH  17  21
ATOM     21  O   UNL     1       9.723  -4.495  24.744  0.00  0.00    -0.491 OA
ATOM     22  C   UNL     1       9.435  -4.850  26.089  0.00  0.00    +0.277 C 
ENDBRANCH  17  21
ENDBRANCH   6  13
BRANCH   2  24
ATOM     23  C   UNL     1      12.204   5.657  23.720  0.00  0.00    +0.277 C 
ATOM     24  O   UNL     1      12.024   4.286  23.352  0.00  0.00    -0.495 OA
ENDBRANCH   2  24
BRANCH  11  25
ATOM     25  O   UNL     1       7.392   4.899  24.504  0.00  0.00    -0.506 OA
ATOM     26  H   UNL     1       7.122   4.634  25.400  0.00  0.00    +0.292 HD
ENDBRANCH  11  25
ENDBRANCH   1   7
BRANCH   1  27
ATOM     27  C   UNL     1       5.392   0.125  25.795  0.00  0.00    +0.340 C 
ATOM     28  O   UNL     1       4.619  -1.026  26.161  0.00  0.00    -0.331 OA
ATOM     29  C   UNL     1       3.632  -0.609  27.124  0.00  0.00    +0.179 C 
ATOM     30  C   UNL     1       3.924   0.845  27.521  0.00  0.00    +0.180 C 
ATOM     31  C   UNL     1       4.674   1.381  26.313  0.00  0.00    +0.214 C 
BRANCH  30  32
ATOM     32  O   UNL     1       4.723   0.975  28.700  0.00  0.00    -0.386 OA
ATOM     33  H   UNL     1       4.538   1.824  29.134  0.00  0.00    +0.210 HD
ENDBRANCH  30  32
BRANCH  31  34
ATOM     34  O   UNL     1       3.738   1.917  25.376  0.00  0.00    -0.383 OA
ATOM     35  H   UNL     1       2.942   1.359  25.454  0.00  0.00    +0.210 HD
ENDBRANCH  31  34
BRANCH  29  36
ATOM     36  C   UNL     1       3.654  -1.580  28.304  0.00  0.00    +0.197 C 
BRANCH  36  37
ATOM     37  O   UNL     1       4.398  -2.782  28.105  0.00  0.00    -0.346 OA
BRANCH  37  38
ATOM     38  C   UNL     1       3.637  -3.981  27.906  0.00  0.00    +0.282 C 
ATOM     39  O   UNL     1       4.097  -4.967  28.842  0.00  0.00    -0.341 OA
ATOM     40  C   UNL     1       5.479  -5.328  28.660  0.00  0.00    +0.178 C 
ATOM     41  C   UNL     1       5.759  -5.845  27.230  0.00  0.00    +0.177 C 
ATOM     42  C   UNL     1       5.219  -4.874  26.174  0.00  0.00    +0.179 C 
ATOM     43  C   UNL     1       3.749  -4.542  26.472  0.00  0.00    +0.201 C 
BRANCH  41  44
ATOM     44  O   UNL     1       5.146  -7.124  27.038  0.00  0.00    -0.386 OA
ATOM     45  H   UNL     1       4.258  -7.101  27.438  0.00  0.00    +0.210 HD
ENDBRANCH  41  44
BRANCH  42  46
ATOM     46  O   UNL     1       6.017  -3.684  26.098  0.00  0.00    -0.386 OA
ATOM     47  H   UNL     1       6.731  -3.758  26.770  0.00  0.00    +0.210 HD
ENDBRANCH  42  46
BRANCH  43  48
ATOM     48  O   UNL     1       3.220  -3.662  25.475  0.00  0.00    -0.384 OA
ATOM     49  H   UNL     1       3.783  -2.863  25.466  0.00  0.00    +0.210 HD
ENDBRANCH  43  48
BRANCH  40  50
ATOM     50  C   UNL     1       5.855  -6.381  29.718  0.00  0.00    +0.190 C 
BRANCH  50  51
ATOM     51  O   UNL     1       6.751  -7.375  29.211  0.00  0.00    -0.392 OA
ATOM     52  H   UNL     1       6.423  -7.668  28.343  0.00  0.00    +0.210 HD
ENDBRANCH  50  51
ENDBRANCH  40  50
ENDBRANCH  37  38
ENDBRANCH  36  37
ENDBRANCH  29  36
ENDBRANCH   1  27
TORSDOF 17
ENDMDL
MODEL 2
REMARK VINA RESULT:      -6.9      1.535      2.770
REMARK  Name = 
REMARK  19 active torsions:
REMARK  status: ('A' for Active; 'I' for Inactive)
REMARK    1  A    between atoms: C_1  and  O_2
REMARK    2  A    between atoms: O_2  and  C_3
REMARK    3  A    between atoms: C_5  and  O_50
REMARK    4  A    between atoms: C_10  and  C_41
REMARK    5  A    between atoms: C_11  and  O_14
REMARK    6  A    between atoms: O_14  and  C_15
REMARK    7  A    between atoms: C_17  and  O_40
REMARK    8  A    between atoms: C_19  and  O_39
REMARK    9  A    between atoms: C_20  and  C_23
REMARK   10  A    between atoms: C_23  and  O_24
REMARK   11  A    between atoms: O_24  and  C_25
REMARK   12  A    between atoms: C_27  and  O_38
REMARK   13  A    between atoms: C_28  and  O_37
REMARK   14  A    between atoms: C_30  and  O_36
REMARK   15  A    between atoms: C_32  and  C_34
REMARK   16  A    between atoms: C_34  and  O_35
REMARK   17  A    between atoms: C_43  and  O_48
REMARK   18  A    between atoms: C_44  and  O_47
REMARK   19  A    between atoms: O_48  and  C_49
REMARK                            x       y       z     vdW  Elec       q    Type
REMARK                         _______ _______ _______ _____ _____    ______ ____
ROOT
ATOM      1  O   UNL     1       6.342   1.005  24.008  0.00  0.00    -0.453 OA
ENDROOT
BRANCH   1   7
ATOM      2  C   UNL     1      11.511   4.714  23.552  0.00  0.00    +0.127 A 
ATOM      3  C   UNL     1      11.357   3.329  23.402  0.00  0.00    +0.092 A 
ATOM      4  C   UNL     1      10.078   2.767  23.402  0.00  0.00    +0.147 A 
ATOM      5  O   UNL     1       9.950   1.408  23.250  0.00  0.00    -0.451 OA
ATOM      6  C   UNL     1       8.703   0.825  23.522  0.00  0.00    +0.181 A 
ATOM      7  C   UNL     1       7.571   1.548  23.691  0.00  0.00    +0.214 A 
ATOM      8  C   UNL     1       7.667   2.987  23.361  0.00  0.00    +0.238 A 
ATOM      9  O   UNL     1       6.695   3.607  22.929  0.00  0.00    -0.283 OA
ATOM     10  C   UNL     1       8.974   3.604  23.537  0.00  0.00    +0.109 A 
ATOM     11  C   UNL     1       9.126   4.964  23.788  0.00  0.00    +0.135 A 
ATOM     12  C   UNL     1      10.399   5.524  23.802  0.00  0.00    +0.092 A 
BRANCH   6  13
ATOM     13  C   UNL     1       8.739  -0.668  23.535  0.00  0.00    +0.025 A 
ATOM     14  C   UNL     1       9.440  -1.370  24.536  0.00  0.00    +0.015 A 
ATOM     15  C   UNL     1       9.419  -2.761  24.606  0.00  0.00    +0.050 A 
ATOM     16  C   UNL     1       8.665  -3.472  23.684  0.00  0.00    +0.158 A 
ATOM     17  C   UNL     1       7.941  -2.820  22.681  0.00  0.00    +0.162 A 
ATOM     18  C   UNL     1       7.989  -1.419  22.606  0.00  0.00    +0.061 A 
BRANCH  16  19
ATOM     19  O   UNL     1       8.626  -4.834  23.795  0.00  0.00    -0.503 OA
ATOM     20  H   UNL     1       8.294  -5.008  24.696  0.00  0.00    +0.292 HD
ENDBRANCH  16  19
BRANCH  17  21
ATOM     21  O   UNL     1       7.224  -3.659  21.866  0.00  0.00    -0.491 OA
ATOM     22  C   UNL     1       5.827  -3.419  21.765  0.00  0.00    +0.277 C 
ENDBRANCH  17  21
ENDBRANCH   6  13
BRANCH   2  24
ATOM     23  C   UNL     1      13.187   5.569  22.150  0.00  0.00    +0.277 C 
ATOM     24  O   UNL     1      12.788   5.201  23.474  0.00  0.00    -0.495 OA
ENDBRANCH   2  24
BRANCH  11  25
ATOM     25  O   UNL     1       8.044   5.745  24.068  0.00  0.00    -0.506 OA
ATOM     26  H   UNL     1       7.971   6.469  23.424  0.00  0.00    +0.292 HD
ENDBRANCH  11  25
ENDBRANCH   1   7
BRANCH   1  27
ATOM     27  C   UNL     1       6.246   0.421  25.314  0.00  0.00    +0.340 C 
ATOM     28  O   UNL     1       5.946  -0.979  25.239  0.00  0.00    -0.331 OA
ATOM     29  C   UNL     1       4.898  -1.259  26.185  0.00  0.00    +0.179 C 
ATOM     30  C   UNL     1       4.657  -0.001  27.031  0.00  0.00    +0.180 C 
ATOM     31  C   UNL     1       5.137   1.116  26.120  0.00  0.00    +0.214 C 
BRANCH  30  32
ATOM     32  O   UNL     1       5.383   0.017  28.263  0.00  0.00    -0.386 OA
ATOM     33  H   UNL     1       5.557  -0.892  28.559  0.00  0.00    +0.210 HD
ENDBRANCH  30  32
BRANCH  31  34
ATOM     34  O   UNL     1       4.050   1.562  25.307  0.00  0.00    -0.383 OA
ATOM     35  H   UNL     1       3.310   0.960  25.508  0.00  0.00    +0.210 HD
ENDBRANCH  31  34
BRANCH  29  36
ATOM     36  C   UNL     1       5.294  -2.483  27.011  0.00  0.00    +0.197 C 
BRANCH  36  37
ATOM     37  O   UNL     1       4.704  -3.719  26.610  0.00  0.00    -0.346 OA
BRANCH  37  38
ATOM     38  C   UNL     1       5.187  -4.294  25.389  0.00  0.00    +0.282 C 
ATOM     39  O   UNL     1       4.062  -4.549  24.535  0.00  0.00    -0.341 OA
ATOM     40  C   UNL     1       3.126  -5.494  25.087  0.00  0.00    +0.178 C 
ATOM     41  C   UNL     1       3.798  -6.845  25.422  0.00  0.00    +0.177 C 
ATOM     42  C   UNL     1       5.060  -6.641  26.269  0.00  0.00    +0.179 C 
ATOM     43  C   UNL     1       5.976  -5.605  25.602  0.00  0.00    +0.201 C 
BRANCH  41  44
ATOM     44  O   UNL     1       4.156  -7.531  24.218  0.00  0.00    -0.386 OA
ATOM     45  H   UNL     1       5.126  -7.510  24.130  0.00  0.00    +0.210 HD
ENDBRANCH  41  44
BRANCH  42  46
ATOM     46  O   UNL     1       4.734  -6.261  27.613  0.00  0.00    -0.386 OA
ATOM     47  H   UNL     1       3.761  -6.125  27.659  0.00  0.00    +0.210 HD
ENDBRANCH  42  46
BRANCH  43  48
ATOM     48  O   UNL     1       7.175  -5.428  26.363  0.00  0.00    -0.384 OA
ATOM     49  H   UNL     1       7.247  -6.190  26.970  0.00  0.00    +0.210 HD
ENDBRANCH  43  48
BRANCH  40  50
ATOM     50  C   UNL     1       1.968  -5.679  24.090  0.00  0.00    +0.190 C 
BRANCH  50  51
ATOM     51  O   UNL     1       2.410  -5.685  22.729  0.00  0.00    -0.392 OA
ATOM     52  H   UNL     1       3.199  -5.120  22.661  0.00  0.00    +0.210 HD
ENDBRANCH  50  51
ENDBRANCH  40  50
ENDBRANCH  37  38
ENDBRANCH  36  37
ENDBRANCH  29  36
ENDBRANCH   1  27
TORSDOF 17
ENDMDL
MODEL 3
REMARK VINA RESULT:      -6.9      2.699      8.260
REMARK  Name = 
REMARK  19 active torsions:
REMARK  status: ('A' for Active; 'I' for Inactive)
REMARK    1  A    between atoms: C_1  and  O_2
REMARK    2  A    between atoms: O_2  and  C_3
REMARK    3  A    between atoms: C_5  and  O_50
REMARK    4  A    between atoms: C_10  and  C_41
REMARK    5  A    between atoms: C_11  and  O_14
REMARK    6  A    between atoms: O_14  and  C_15
REMARK    7  A    between atoms: C_17  and  O_40
REMARK    8  A    between atoms: C_19  and  O_39
REMARK    9  A    between atoms: C_20  and  C_23
REMARK   10  A    between atoms: C_23  and  O_24
REMARK   11  A    between atoms: O_24  and  C_25
REMARK   12  A    between atoms: C_27  and  O_38
REMARK   13  A    between atoms: C_28  and  O_37
REMARK   14  A    between atoms: C_30  and  O_36
REMARK   15  A    between atoms: C_32  and  C_34
REMARK   16  A    between atoms: C_34  and  O_35
REMARK   17  A    between atoms: C_43  and  O_48
REMARK   18  A    between atoms: C_44  and  O_47
REMARK   19  A    between atoms: O_48  and  C_49
REMARK                            x       y       z     vdW  Elec       q    Type
REMARK                         _______ _______ _______ _____ _____    ______ ____
ROOT
ATOM      1  O   UNL     1       8.856  -1.599  24.413  0.00  0.00    -0.453 OA
ENDROOT
BRANCH   1   7
ATOM      2  C   UNL     1       4.478   0.070  28.742  0.00  0.00    +0.127 A 
ATOM      3  C   UNL     1       4.529  -1.016  27.857  0.00  0.00    +0.092 A 
ATOM      4  C   UNL     1       5.683  -1.246  27.104  0.00  0.00    +0.147 A 
ATOM      5  O   UNL     1       5.713  -2.319  26.246  0.00  0.00    -0.451 OA
ATOM      6  C   UNL     1       6.751  -2.385  25.305  0.00  0.00    +0.181 A 
ATOM      7  C   UNL     1       7.844  -1.588  25.353  0.00  0.00    +0.214 A 
ATOM      8  C   UNL     1       8.000  -0.777  26.581  0.00  0.00    +0.238 A 
ATOM      9  O   UNL     1       9.115  -0.482  27.011  0.00  0.00    -0.283 OA
ATOM     10  C   UNL     1       6.772  -0.393  27.261  0.00  0.00    +0.109 A 
ATOM     11  C   UNL     1       6.688   0.743  28.060  0.00  0.00    +0.135 A 
ATOM     12  C   UNL     1       5.535   0.982  28.800  0.00  0.00    +0.092 A 
BRANCH   6  13
ATOM     13  C   UNL     1       6.562  -3.467  24.292  0.00  0.00    +0.025 A 
ATOM     14  C   UNL     1       7.662  -4.179  23.775  0.00  0.00    +0.015 A 
ATOM     15  C   UNL     1       7.496  -5.242  22.889  0.00  0.00    +0.050 A 
ATOM     16  C   UNL     1       6.212  -5.627  22.531  0.00  0.00    +0.158 A 
ATOM     17  C   UNL     1       5.088  -4.961  23.029  0.00  0.00    +0.162 A 
ATOM     18  C   UNL     1       5.270  -3.876  23.901  0.00  0.00    +0.061 A 
BRANCH  16  19
ATOM     19  O   UNL     1       6.070  -6.697  21.691  0.00  0.00    -0.503 OA
ATOM     20  H   UNL     1       6.753  -7.335  21.973  0.00  0.00    +0.292 HD
ENDBRANCH  16  19
BRANCH  17  21
ATOM     21  O   UNL     1       3.891  -5.478  22.603  0.00  0.00    -0.491 OA
ATOM     22  C   UNL     1       2.738  -5.139  23.362  0.00  0.00    +0.277 C 
ENDBRANCH  17  21
ENDBRANCH   6  13
BRANCH   2  24
ATOM     23  C   UNL     1       2.511  -0.972  29.483  0.00  0.00    +0.277 C 
ATOM     24  O   UNL     1       3.342   0.193  29.496  0.00  0.00    -0.495 OA
ENDBRANCH   2  24
BRANCH  11  25
ATOM     25  O   UNL     1       7.707   1.650  28.087  0.00  0.00    -0.506 OA
ATOM     26  H   UNL     1       7.970   1.893  27.183  0.00  0.00    +0.292 HD
ENDBRANCH  11  25
ENDBRANCH   1   7
BRANCH   1  27
ATOM     27  C   UNL     1       9.039  -0.373  23.694  0.00  0.00    +0.340 C 
ATOM     28  O   UNL     1       7.789   0.147  23.222  0.00  0.00    -0.331 OA
ATOM     29  C   UNL     1       7.962   0.538  21.848  0.00  0.00    +0.179 C 
ATOM     30  C   UNL     1       9.452   0.428  21.494  0.00  0.00    +0.180 C 
ATOM     31  C   UNL     1       9.959  -0.606  22.485  0.00  0.00    +0.214 C 
BRANCH  30  32
ATOM     32  O   UNL     1      10.174   1.654  21.642  0.00  0.00    -0.386 OA
ATOM     33  H   UNL     1      10.917   1.529  22.255  0.00  0.00    +0.210 HD
ENDBRANCH  30  32
BRANCH  31  34
ATOM     34  O   UNL     1       9.819  -1.910  21.919  0.00  0.00    -0.383 OA
ATOM     35  H   UNL     1       9.200  -2.384  22.504  0.00  0.00    +0.210 HD
ENDBRANCH  31  34
BRANCH  29  36
ATOM     36  C   UNL     1       7.392   1.944  21.659  0.00  0.00    +0.197 C 
BRANCH  36  37
ATOM     37  O   UNL     1       8.064   2.986  22.366  0.00  0.00    -0.346 OA
BRANCH  37  38
ATOM     38  C   UNL     1       7.368   3.554  23.483  0.00  0.00    +0.282 C 
ATOM     39  O   UNL     1       6.863   4.840  23.092  0.00  0.00    -0.341 OA
ATOM     40  C   UNL     1       7.897   5.777  22.737  0.00  0.00    +0.178 C 
ATOM     41  C   UNL     1       8.913   5.982  23.885  0.00  0.00    +0.177 C 
ATOM     42  C   UNL     1       9.434   4.638  24.408  0.00  0.00    +0.179 C 
ATOM     43  C   UNL     1       8.255   3.711  24.738  0.00  0.00    +0.201 C 
BRANCH  41  44
ATOM     44  O   UNL     1       8.300   6.692  24.967  0.00  0.00    -0.386 OA
ATOM     45  H   UNL     1       8.785   7.526  25.099  0.00  0.00    +0.210 HD
ENDBRANCH  41  44
BRANCH  42  46
ATOM     46  O   UNL     1      10.335   4.025  23.475  0.00  0.00    -0.386 OA
ATOM     47  H   UNL     1      10.198   4.453  22.601  0.00  0.00    +0.210 HD
ENDBRANCH  42  46
BRANCH  43  48
ATOM     48  O   UNL     1       8.724   2.464  25.260  0.00  0.00    -0.384 OA
ATOM     49  H   UNL     1       9.054   2.635  26.164  0.00  0.00    +0.210 HD
ENDBRANCH  43  48
BRANCH  40  50
ATOM     50  C   UNL     1       7.237   7.108  22.334  0.00  0.00    +0.190 C 
BRANCH  50  51
ATOM     51  O   UNL     1       6.539   7.020  21.088  0.00  0.00    -0.392 OA
ATOM     52  H   UNL     1       5.639   7.366  21.217  0.00  0.00    +0.210 HD
ENDBRANCH  50  51
ENDBRANCH  40  50
ENDBRANCH  37  38
ENDBRANCH  36  37
ENDBRANCH  29  36
ENDBRANCH   1  27
TORSDOF 17
ENDMDL
MODEL 4
REMARK VINA RESULT:      -6.8      3.231      7.339
REMARK  Name = 
REMARK  19 active torsions:
REMARK  status: ('A' for Active; 'I' for Inactive)
REMARK    1  A    between atoms: C_1  and  O_2
REMARK    2  A    between atoms: O_2  and  C_3
REMARK    3  A    between atoms: C_5  and  O_50
REMARK    4  A    between atoms: C_10  and  C_41
REMARK    5  A    between atoms: C_11  and  O_14
REMARK    6  A    between atoms: O_14  and  C_15
REMARK    7  A    between atoms: C_17  and  O_40
REMARK    8  A    between atoms: C_19  and  O_39
REMARK    9  A    between atoms: C_20  and  C_23
REMARK   10  A    between atoms: C_23  and  O_24
REMARK   11  A    between atoms: O_24  and  C_25
REMARK   12  A    between atoms: C_27  and  O_38
REMARK   13  A    between atoms: C_28  and  O_37
REMARK   14  A    between atoms: C_30  and  O_36
REMARK   15  A    between atoms: C_32  and  C_34
REMARK   16  A    between atoms: C_34  and  O_35
REMARK   17  A    between atoms: C_43  and  O_48
REMARK   18  A    between atoms: C_44  and  O_47
REMARK   19  A    between atoms: O_48  and  C_49
REMARK                            x       y       z     vdW  Elec       q    Type
REMARK                         _______ _______ _______ _____ _____    ______ ____
ROOT
ATOM      1  O   UNL     1       8.590   2.676  24.135  0.00  0.00    -0.453 OA
ENDROOT
BRANCH   1   7
ATOM      2  C   UNL     1       3.481   6.103  22.449  0.00  0.00    +0.127 A 
ATOM      3  C   UNL     1       4.806   6.488  22.696  0.00  0.00    +0.092 A 
ATOM      4  C   UNL     1       5.786   5.515  22.906  0.00  0.00    +0.147 A 
ATOM      5  O   UNL     1       7.079   5.914  23.143  0.00  0.00    -0.451 OA
ATOM      6  C   UNL     1       7.990   4.960  23.619  0.00  0.00    +0.181 A 
ATOM      7  C   UNL     1       7.731   3.631  23.628  0.00  0.00    +0.214 A 
ATOM      8  C   UNL     1       6.511   3.204  22.908  0.00  0.00    +0.238 A 
ATOM      9  O   UNL     1       6.447   2.103  22.361  0.00  0.00    -0.283 OA
ATOM     10  C   UNL     1       5.425   4.171  22.849  0.00  0.00    +0.109 A 
ATOM     11  C   UNL     1       4.095   3.788  22.707  0.00  0.00    +0.135 A 
ATOM     12  C   UNL     1       3.116   4.755  22.511  0.00  0.00    +0.092 A 
BRANCH   6  13
ATOM     13  C   UNL     1       9.295   5.550  24.044  0.00  0.00    +0.025 A 
ATOM     14  C   UNL     1       9.370   6.435  25.138  0.00  0.00    +0.015 A 
ATOM     15  C   UNL     1      10.589   6.934  25.595  0.00  0.00    +0.050 A 
ATOM     16  C   UNL     1      11.760   6.523  24.975  0.00  0.00    +0.158 A 
ATOM     17  C   UNL     1      11.737   5.635  23.895  0.00  0.00    +0.162 A 
ATOM     18  C   UNL     1      10.502   5.160  23.428  0.00  0.00    +0.061 A 
BRANCH  16  19
ATOM     19  O   UNL     1      12.947   6.993  25.464  0.00  0.00    -0.503 OA
ATOM     20  H   UNL     1      12.808   7.949  25.597  0.00  0.00    +0.292 HD
ENDBRANCH  16  19
BRANCH  17  21
ATOM     21  O   UNL     1      12.978   5.306  23.410  0.00  0.00    -0.491 OA
ATOM     22  C   UNL     1      13.234   5.606  22.045  0.00  0.00    +0.277 C 
ENDBRANCH  17  21
ENDBRANCH   6  13
BRANCH   2  24
ATOM     23  C   UNL     1       1.527   6.722  21.308  0.00  0.00    +0.277 C 
ATOM     24  O   UNL     1       2.590   7.108  22.185  0.00  0.00    -0.495 OA
ENDBRANCH   2  24
BRANCH  11  25
ATOM     25  O   UNL     1       3.736   2.475  22.804  0.00  0.00    -0.506 OA
ATOM     26  H   UNL     1       3.517   2.117  21.928  0.00  0.00    +0.292 HD
ENDBRANCH  11  25
ENDBRANCH   1   7
BRANCH   1  27
ATOM     27  C   UNL     1       8.681   1.465  23.374  0.00  0.00    +0.340 C 
ATOM     28  O   UNL     1       9.242   0.400  24.152  0.00  0.00    -0.331 OA
ATOM     29  C   UNL     1      10.239  -0.258  23.349  0.00  0.00    +0.179 C 
ATOM     30  C   UNL     1      10.168   0.309  21.924  0.00  0.00    +0.180 C 
ATOM     31  C   UNL     1       9.568   1.688  22.138  0.00  0.00    +0.214 C 
BRANCH  30  32
ATOM     32  O   UNL     1       9.350  -0.457  21.036  0.00  0.00    -0.386 OA
ATOM     33  H   UNL     1       9.071  -1.280  21.468  0.00  0.00    +0.210 HD
ENDBRANCH  30  32
BRANCH  31  34
ATOM     34  O   UNL     1      10.618   2.629  22.366  0.00  0.00    -0.383 OA
ATOM     35  H   UNL     1      10.717   3.117  21.528  0.00  0.00    +0.210 HD
ENDBRANCH  31  34
BRANCH  29  36
ATOM     36  C   UNL     1      10.009  -1.768  23.417  0.00  0.00    +0.197 C 
BRANCH  36  37
ATOM     37  O   UNL     1       8.715  -2.217  23.018  0.00  0.00    -0.346 OA
BRANCH  37  38
ATOM     38  C   UNL     1       8.068  -3.160  23.883  0.00  0.00    +0.282 C 
ATOM     39  O   UNL     1       7.635  -4.276  23.091  0.00  0.00    -0.341 OA
ATOM     40  C   UNL     1       6.671  -3.922  22.082  0.00  0.00    +0.178 C 
ATOM     41  C   UNL     1       5.422  -3.242  22.688  0.00  0.00    +0.177 C 
ATOM     42  C   UNL     1       5.816  -2.086  23.615  0.00  0.00    +0.179 C 
ATOM     43  C   UNL     1       6.858  -2.565  24.636  0.00  0.00    +0.201 C 
BRANCH  41  44
ATOM     44  O   UNL     1       4.656  -4.193  23.436  0.00  0.00    -0.386 OA
ATOM     45  H   UNL     1       4.556  -3.858  24.346  0.00  0.00    +0.210 HD
ENDBRANCH  41  44
BRANCH  42  46
ATOM     46  O   UNL     1       6.295  -0.957  22.872  0.00  0.00    -0.386 OA
ATOM     47  H   UNL     1       6.087  -1.112  21.923  0.00  0.00    +0.210 HD
ENDBRANCH  42  46
BRANCH  43  48
ATOM     48  O   UNL     1       7.212  -1.506  25.531  0.00  0.00    -0.384 OA
ATOM     49  H   UNL     1       6.392  -1.222  25.981  0.00  0.00    +0.210 HD
ENDBRANCH  43  48
BRANCH  40  50
ATOM     50  C   UNL     1       6.290  -5.191  21.299  0.00  0.00    +0.190 C 
BRANCH  50  51
ATOM     51  O   UNL     1       6.044  -6.311  22.154  0.00  0.00    -0.392 OA
ATOM     52  H   UNL     1       5.084  -6.461  22.193  0.00  0.00    +0.210 HD
ENDBRANCH  50  51
ENDBRANCH  40  50
ENDBRANCH  37  38
ENDBRANCH  36  37
ENDBRANCH  29  36
ENDBRANCH   1  27
TORSDOF 17
ENDMDL
MODEL 5
REMARK VINA RESULT:      -6.6      2.290      6.645
REMARK  Name = 
REMARK  19 active torsions:
REMARK  status: ('A' for Active; 'I' for Inactive)
REMARK    1  A    between atoms: C_1  and  O_2
REMARK    2  A    between atoms: O_2  and  C_3
REMARK    3  A    between atoms: C_5  and  O_50
REMARK    4  A    between atoms: C_10  and  C_41
REMARK    5  A    between atoms: C_11  and  O_14
REMARK    6  A    between atoms: O_14  and  C_15
REMARK    7  A    between atoms: C_17  and  O_40
REMARK    8  A    between atoms: C_19  and  O_39
REMARK    9  A    between atoms: C_20  and  C_23
REMARK   10  A    between atoms: C_23  and  O_24
REMARK   11  A    between atoms: O_24  and  C_25
REMARK   12  A    between atoms: C_27  and  O_38
REMARK   13  A    between atoms: C_28  and  O_37
REMARK   14  A    between atoms: C_30  and  O_36
REMARK   15  A    between atoms: C_32  and  C_34
REMARK   16  A    between atoms: C_34  and  O_35
REMARK   17  A    between atoms: C_43  and  O_48
REMARK   18  A    between atoms: C_44  and  O_47
REMARK   19  A    between atoms: O_48  and  C_49
REMARK                            x       y       z     vdW  Elec       q    Type
REMARK                         _______ _______ _______ _____ _____    ______ ____
ROOT
ATOM      1  O   UNL     1       8.759  -2.886  25.723  0.00  0.00    -0.453 OA
ENDROOT
BRANCH   1   7
ATOM      2  C   UNL     1       3.814  -6.145  23.356  0.00  0.00    +0.127 A 
ATOM      3  C   UNL     1       4.561  -5.089  22.817  0.00  0.00    +0.092 A 
ATOM      4  C   UNL     1       5.707  -4.640  23.477  0.00  0.00    +0.147 A 
ATOM      5  O   UNL     1       6.428  -3.606  22.930  0.00  0.00    -0.451 OA
ATOM      6  C   UNL     1       7.404  -2.986  23.723  0.00  0.00    +0.181 A 
ATOM      7  C   UNL     1       7.836  -3.499  24.899  0.00  0.00    +0.214 A 
ATOM      8  C   UNL     1       7.381  -4.872  25.212  0.00  0.00    +0.238 A 
ATOM      9  O   UNL     1       8.080  -5.639  25.875  0.00  0.00    -0.283 OA
ATOM     10  C   UNL     1       6.094  -5.267  24.659  0.00  0.00    +0.109 A 
ATOM     11  C   UNL     1       5.299  -6.245  25.249  0.00  0.00    +0.135 A 
ATOM     12  C   UNL     1       4.151  -6.684  24.600  0.00  0.00    +0.092 A 
BRANCH   6  13
ATOM     13  C   UNL     1       7.966  -1.746  23.107  0.00  0.00    +0.025 A 
ATOM     14  C   UNL     1       9.208  -1.763  22.444  0.00  0.00    +0.015 A 
ATOM     15  C   UNL     1       9.710  -0.635  21.798  0.00  0.00    +0.050 A 
ATOM     16  C   UNL     1       8.951   0.526  21.783  0.00  0.00    +0.158 A 
ATOM     17  C   UNL     1       7.705   0.588  22.415  0.00  0.00    +0.162 A 
ATOM     18  C   UNL     1       7.222  -0.548  23.083  0.00  0.00    +0.061 A 
BRANCH  16  19
ATOM     19  O   UNL     1       9.443   1.610  21.110  0.00  0.00    -0.503 OA
ATOM     20  H   UNL     1       9.748   1.261  20.251  0.00  0.00    +0.292 HD
ENDBRANCH  16  19
BRANCH  17  21
ATOM     21  O   UNL     1       7.067   1.796  22.287  0.00  0.00    -0.491 OA
ATOM     22  C   UNL     1       6.891   2.558  23.474  0.00  0.00    +0.277 C 
ENDBRANCH  17  21
ENDBRANCH   6  13
BRANCH   2  24
ATOM     23  C   UNL     1       1.504  -5.961  22.985  0.00  0.00    +0.277 C 
ATOM     24  O   UNL     1       2.743  -6.576  22.619  0.00  0.00    -0.495 OA
ENDBRANCH   2  24
BRANCH  11  25
ATOM     25  O   UNL     1       5.610  -6.743  26.481  0.00  0.00    -0.506 OA
ATOM     26  H   UNL     1       6.554  -6.972  26.527  0.00  0.00    +0.292 HD
ENDBRANCH  11  25
ENDBRANCH   1   7
BRANCH   1  27
ATOM     27  C   UNL     1       8.209  -2.034  26.735  0.00  0.00    +0.340 C 
ATOM     28  O   UNL     1       6.835  -1.724  26.466  0.00  0.00    -0.331 OA
ATOM     29  C   UNL     1       6.654  -0.309  26.657  0.00  0.00    +0.179 C 
ATOM     30  C   UNL     1       7.943   0.270  27.259  0.00  0.00    +0.180 C 
ATOM     31  C   UNL     1       9.002  -0.719  26.803  0.00  0.00    +0.214 C 
BRANCH  30  32
ATOM     32  O   UNL     1       7.927   0.358  28.687  0.00  0.00    -0.386 OA
ATOM     33  H   UNL     1       8.483   1.098  28.980  0.00  0.00    +0.210 HD
ENDBRANCH  30  32
BRANCH  31  34
ATOM     34  O   UNL     1       9.515  -0.309  25.534  0.00  0.00    -0.383 OA
ATOM     35  H   UNL     1       8.957   0.441  25.257  0.00  0.00    +0.210 HD
ENDBRANCH  31  34
BRANCH  29  36
ATOM     36  C   UNL     1       5.419  -0.083  27.529  0.00  0.00    +0.197 C 
BRANCH  36  37
ATOM     37  O   UNL     1       4.263  -0.840  27.175  0.00  0.00    -0.346 OA
BRANCH  37  38
ATOM     38  C   UNL     1       3.441  -1.299  28.256  0.00  0.00    +0.282 C 
ATOM     39  O   UNL     1       4.151  -2.334  28.954  0.00  0.00    -0.341 OA
ATOM     40  C   UNL     1       4.431  -3.487  28.138  0.00  0.00    +0.178 C 
ATOM     41  C   UNL     1       3.144  -4.099  27.540  0.00  0.00    +0.177 C 
ATOM     42  C   UNL     1       2.293  -3.029  26.846  0.00  0.00    +0.179 C 
ATOM     43  C   UNL     1       2.071  -1.841  27.794  0.00  0.00    +0.201 C 
BRANCH  41  44
ATOM     44  O   UNL     1       2.363  -4.713  28.571  0.00  0.00    -0.386 OA
ATOM     45  H   UNL     1       2.971  -5.106  29.223  0.00  0.00    +0.210 HD
ENDBRANCH  41  44
BRANCH  42  46
ATOM     46  O   UNL     1       2.885  -2.607  25.610  0.00  0.00    -0.386 OA
ATOM     47  H   UNL     1       3.769  -3.031  25.541  0.00  0.00    +0.210 HD
ENDBRANCH  42  46
BRANCH  43  48
ATOM     48  O   UNL     1       1.249  -0.847  27.173  0.00  0.00    -0.384 OA
ATOM     49  H   UNL     1       1.324  -0.973  26.207  0.00  0.00    +0.210 HD
ENDBRANCH  43  48
BRANCH  40  50
ATOM     50  C   UNL     1       5.195  -4.517  28.989  0.00  0.00    +0.190 C 
BRANCH  50  51
ATOM     51  O   UNL     1       6.443  -4.898  28.402  0.00  0.00    -0.392 OA
ATOM     52  H   UNL     1       6.537  -4.432  27.554  0.00  0.00    +0.210 HD
ENDBRANCH  50  51
ENDBRANCH  40  50
ENDBRANCH  37  38
ENDBRANCH  36  37
ENDBRANCH  29  36
ENDBRANCH   1  27
TORSDOF 17
ENDMDL
MODEL 6
REMARK VINA RESULT:      -6.6      2.219      6.659
REMARK  Name = 
REMARK  19 active torsions:
REMARK  status: ('A' for Active; 'I' for Inactive)
REMARK    1  A    between atoms: C_1  and  O_2
REMARK    2  A    between atoms: O_2  and  C_3
REMARK    3  A    between atoms: C_5  and  O_50
REMARK    4  A    between atoms: C_10  and  C_41
REMARK    5  A    between atoms: C_11  and  O_14
REMARK    6  A    between atoms: O_14  and  C_15
REMARK    7  A    between atoms: C_17  and  O_40
REMARK    8  A    between atoms: C_19  and  O_39
REMARK    9  A    between atoms: C_20  and  C_23
REMARK   10  A    between atoms: C_23  and  O_24
REMARK   11  A    between atoms: O_24  and  C_25
REMARK   12  A    between atoms: C_27  and  O_38
REMARK   13  A    between atoms: C_28  and  O_37
REMARK   14  A    between atoms: C_30  and  O_36
REMARK   15  A    between atoms: C_32  and  C_34
REMARK   16  A    between atoms: C_34  and  O_35
REMARK   17  A    between atoms: C_43  and  O_48
REMARK   18  A    between atoms: C_44  and  O_47
REMARK   19  A    between atoms: O_48  and  C_49
REMARK                            x       y       z     vdW  Elec       q    Type
REMARK                         _______ _______ _______ _____ _____    ______ ____
ROOT
ATOM      1  O   UNL     1       6.268  -2.852  27.314  0.00  0.00    -0.453 OA
ENDROOT
BRANCH   1   7
ATOM      2  C   UNL     1       5.633   3.176  25.328  0.00  0.00    +0.127 A 
ATOM      3  C   UNL     1       5.048   1.989  24.866  0.00  0.00    +0.092 A 
ATOM      4  C   UNL     1       5.234   0.801  25.575  0.00  0.00    +0.147 A 
ATOM      5  O   UNL     1       4.648  -0.351  25.107  0.00  0.00    -0.451 OA
ATOM      6  C   UNL     1       5.056  -1.574  25.658  0.00  0.00    +0.181 A 
ATOM      7  C   UNL     1       5.811  -1.664  26.778  0.00  0.00    +0.214 A 
ATOM      8  C   UNL     1       6.011  -0.404  27.527  0.00  0.00    +0.238 A 
ATOM      9  O   UNL     1       6.149  -0.405  28.751  0.00  0.00    -0.283 OA
ATOM     10  C   UNL     1       5.991   0.823  26.744  0.00  0.00    +0.109 A 
ATOM     11  C   UNL     1       6.657   1.975  27.148  0.00  0.00    +0.135 A 
ATOM     12  C   UNL     1       6.485   3.157  26.437  0.00  0.00    +0.092 A 
BRANCH   6  13
ATOM     13  C   UNL     1       4.517  -2.760  24.927  0.00  0.00    +0.025 A 
ATOM     14  C   UNL     1       3.295  -3.351  25.302  0.00  0.00    +0.015 A 
ATOM     15  C   UNL     1       2.741  -4.409  24.584  0.00  0.00    +0.050 A 
ATOM     16  C   UNL     1       3.397  -4.872  23.453  0.00  0.00    +0.158 A 
ATOM     17  C   UNL     1       4.606  -4.309  23.033  0.00  0.00    +0.162 A 
ATOM     18  C   UNL     1       5.165  -3.260  23.779  0.00  0.00    +0.061 A 
BRANCH  16  19
ATOM     19  O   UNL     1       2.817  -5.884  22.740  0.00  0.00    -0.503 OA
ATOM     20  H   UNL     1       2.067  -5.470  22.272  0.00  0.00    +0.292 HD
ENDBRANCH  16  19
BRANCH  17  21
ATOM     21  O   UNL     1       5.114  -4.858  21.883  0.00  0.00    -0.491 OA
ATOM     22  C   UNL     1       6.513  -5.108  21.854  0.00  0.00    +0.277 C 
ENDBRANCH  17  21
ENDBRANCH   6  13
BRANCH   2  24
ATOM     23  C   UNL     1       6.141   4.469  23.437  0.00  0.00    +0.277 C 
ATOM     24  O   UNL     1       5.352   4.314  24.621  0.00  0.00    -0.495 OA
ENDBRANCH   2  24
BRANCH  11  25
ATOM     25  O   UNL     1       7.516   1.946  28.208  0.00  0.00    -0.506 OA
ATOM     26  H   UNL     1       8.321   1.452  27.979  0.00  0.00    +0.292 HD
ENDBRANCH  11  25
ENDBRANCH   1   7
BRANCH   1  27
ATOM     27  C   UNL     1       7.590  -3.236  26.918  0.00  0.00    +0.340 C 
ATOM     28  O   UNL     1       7.980  -2.587  25.701  0.00  0.00    -0.331 OA
ATOM     29  C   UNL     1       8.567  -3.578  24.837  0.00  0.00    +0.179 C 
ATOM     30  C   UNL     1       8.722  -4.884  25.630  0.00  0.00    +0.180 C 
ATOM     31  C   UNL     1       7.653  -4.757  26.702  0.00  0.00    +0.214 C 
BRANCH  30  32
ATOM     32  O   UNL     1      10.010  -5.048  26.230  0.00  0.00    -0.386 OA
ATOM     33  H   UNL     1      10.386  -5.907  25.979  0.00  0.00    +0.210 HD
ENDBRANCH  30  32
BRANCH  31  34
ATOM     34  O   UNL     1       6.427  -5.304  26.213  0.00  0.00    -0.383 OA
ATOM     35  H   UNL     1       6.107  -5.897  26.917  0.00  0.00    +0.210 HD
ENDBRANCH  31  34
BRANCH  29  36
ATOM     36  C   UNL     1       9.887  -3.036  24.290  0.00  0.00    +0.197 C 
BRANCH  36  37
ATOM     37  O   UNL     1       9.950  -1.622  24.109  0.00  0.00    -0.346 OA
BRANCH  37  38
ATOM     38  C   UNL     1      10.304  -1.158  22.800  0.00  0.00    +0.282 C 
ATOM     39  O   UNL     1      10.953   0.115  22.933  0.00  0.00    -0.341 OA
ATOM     40  C   UNL     1      10.110   1.130  23.510  0.00  0.00    +0.178 C 
ATOM     41  C   UNL     1       8.808   1.330  22.700  0.00  0.00    +0.177 C 
ATOM     42  C   UNL     1       8.101  -0.007  22.450  0.00  0.00    +0.179 C 
ATOM     43  C   UNL     1       9.091  -1.019  21.854  0.00  0.00    +0.201 C 
BRANCH  41  44
ATOM     44  O   UNL     1       9.099   1.942  21.439  0.00  0.00    -0.386 OA
ATOM     45  H   UNL     1       9.449   1.258  20.841  0.00  0.00    +0.210 HD
ENDBRANCH  41  44
BRANCH  42  46
ATOM     46  O   UNL     1       7.495  -0.513  23.648  0.00  0.00    -0.386 OA
ATOM     47  H   UNL     1       6.709   0.044  23.845  0.00  0.00    +0.210 HD
ENDBRANCH  42  46
BRANCH  43  48
ATOM     48  O   UNL     1       8.438  -2.263  21.583  0.00  0.00    -0.384 OA
ATOM     49  H   UNL     1       9.135  -2.917  21.380  0.00  0.00    +0.210 HD
ENDBRANCH  43  48
BRANCH  40  50
ATOM     50  C   UNL     1      10.913   2.440  23.606  0.00  0.00    +0.190 C 
BRANCH  50  51
ATOM     51  O   UNL     1      10.119   3.595  23.320  0.00  0.00    -0.392 OA
ATOM     52  H   UNL     1       9.490   3.367  22.614  0.00  0.00    +0.210 HD
ENDBRANCH  50  51
ENDBRANCH  40  50
ENDBRANCH  37  38
ENDBRANCH  36  37
ENDBRANCH  29  36
ENDBRANCH   1  27
TORSDOF 17
ENDMDL
MODEL 7
REMARK VINA RESULT:      -6.5      2.774      6.162
REMARK  Name = 
REMARK  19 active torsions:
REMARK  status: ('A' for Active; 'I' for Inactive)
REMARK    1  A    between atoms: C_1  and  O_2
REMARK    2  A    between atoms: O_2  and  C_3
REMARK    3  A    between atoms: C_5  and  O_50
REMARK    4  A    between atoms: C_10  and  C_41
REMARK    5  A    between atoms: C_11  and  O_14
REMARK    6  A    between atoms: O_14  and  C_15
REMARK    7  A    between atoms: C_17  and  O_40
REMARK    8  A    between atoms: C_19  and  O_39
REMARK    9  A    between atoms: C_20  and  C_23
REMARK   10  A    between atoms: C_23  and  O_24
REMARK   11  A    between atoms: O_24  and  C_25
REMARK   12  A    between atoms: C_27  and  O_38
REMARK   13  A    between atoms: C_28  and  O_37
REMARK   14  A    between atoms: C_30  and  O_36
REMARK   15  A    between atoms: C_32  and  C_34
REMARK   16  A    between atoms: C_34  and  O_35
REMARK   17  A    between atoms: C_43  and  O_48
REMARK   18  A    between atoms: C_44  and  O_47
REMARK   19  A    between atoms: O_48  and  C_49
REMARK                            x       y       z     vdW  Elec       q    Type
REMARK                         _______ _______ _______ _____ _____    ______ ____
ROOT
ATOM      1  O   UNL     1       8.677   2.225  24.792  0.00  0.00    -0.453 OA
ENDROOT
BRANCH   1   7
ATOM      2  C   UNL     1       4.444   6.414  22.507  0.00  0.00    +0.127 A 
ATOM      3  C   UNL     1       4.329   5.447  23.517  0.00  0.00    +0.092 A 
ATOM      4  C   UNL     1       5.460   4.747  23.941  0.00  0.00    +0.147 A 
ATOM      5  O   UNL     1       5.326   3.807  24.934  0.00  0.00    -0.451 OA
ATOM      6  C   UNL     1       6.393   2.926  25.161  0.00  0.00    +0.181 A 
ATOM      7  C   UNL     1       7.624   3.102  24.625  0.00  0.00    +0.214 A 
ATOM      8  C   UNL     1       7.857   4.399  23.952  0.00  0.00    +0.238 A 
ATOM      9  O   UNL     1       8.974   4.916  23.936  0.00  0.00    -0.283 OA
ATOM     10  C   UNL     1       6.691   5.036  23.357  0.00  0.00    +0.109 A 
ATOM     11  C   UNL     1       6.791   5.918  22.286  0.00  0.00    +0.135 A 
ATOM     12  C   UNL     1       5.664   6.607  21.853  0.00  0.00    +0.092 A 
BRANCH   6  13
ATOM     13  C   UNL     1       6.054   1.819  26.105  0.00  0.00    +0.025 A 
ATOM     14  C   UNL     1       6.798   1.616  27.284  0.00  0.00    +0.015 A 
ATOM     15  C   UNL     1       6.448   0.638  28.213  0.00  0.00    +0.050 A 
ATOM     16  C   UNL     1       5.320  -0.136  27.983  0.00  0.00    +0.158 A 
ATOM     17  C   UNL     1       4.541   0.038  26.835  0.00  0.00    +0.162 A 
ATOM     18  C   UNL     1       4.918   1.009  25.896  0.00  0.00    +0.061 A 
BRANCH  16  19
ATOM     19  O   UNL     1       4.971  -1.063  28.926  0.00  0.00    -0.503 OA
ATOM     20  H   UNL     1       4.724  -1.861  28.420  0.00  0.00    +0.292 HD
ENDBRANCH  16  19
BRANCH  17  21
ATOM     21  O   UNL     1       3.444  -0.784  26.768  0.00  0.00    -0.491 OA
ATOM     22  C   UNL     1       2.205  -0.240  27.201  0.00  0.00    +0.277 C 
ENDBRANCH  17  21
ENDBRANCH   6  13
BRANCH   2  24
ATOM     23  C   UNL     1       2.360   6.351  21.431  0.00  0.00    +0.277 C 
ATOM     24  O   UNL     1       3.307   7.108  22.191  0.00  0.00    -0.495 OA
ENDBRANCH   2  24
BRANCH  11  25
ATOM     25  O   UNL     1       7.974   6.079  21.626  0.00  0.00    -0.506 OA
ATOM     26  H   UNL     1       7.979   6.919  21.138  0.00  0.00    +0.292 HD
ENDBRANCH  11  25
ENDBRANCH   1   7
BRANCH   1  27
ATOM     27  C   UNL     1       8.707   1.120  23.880  0.00  0.00    +0.340 C 
ATOM     28  O   UNL     1       9.359  -0.018  24.459  0.00  0.00    -0.331 OA
ATOM     29  C   UNL     1      10.279  -0.546  23.486  0.00  0.00    +0.179 C 
ATOM     30  C   UNL     1      10.055   0.190  22.156  0.00  0.00    +0.180 C 
ATOM     31  C   UNL     1       9.461   1.516  22.600  0.00  0.00    +0.214 C 
BRANCH  30  32
ATOM     32  O   UNL     1       9.161  -0.482  21.265  0.00  0.00    -0.386 OA
ATOM     33  H   UNL     1       8.290  -0.054  21.284  0.00  0.00    +0.210 HD
ENDBRANCH  30  32
BRANCH  31  34
ATOM     34  O   UNL     1      10.516   2.450  22.838  0.00  0.00    -0.383 OA
ATOM     35  H   UNL     1      11.135   2.339  22.093  0.00  0.00    +0.210 HD
ENDBRANCH  31  34
BRANCH  29  36
ATOM     36  C   UNL     1      10.078  -2.058  23.387  0.00  0.00    +0.197 C 
BRANCH  36  37
ATOM     37  O   UNL     1       8.782  -2.486  22.970  0.00  0.00    -0.346 OA
BRANCH  37  38
ATOM     38  C   UNL     1       8.096  -3.396  23.840  0.00  0.00    +0.282 C 
ATOM     39  O   UNL     1       7.658  -4.520  23.061  0.00  0.00    -0.341 OA
ATOM     40  C   UNL     1       6.724  -4.168  22.023  0.00  0.00    +0.178 C 
ATOM     41  C   UNL     1       5.476  -3.449  22.586  0.00  0.00    +0.177 C 
ATOM     42  C   UNL     1       5.874  -2.282  23.497  0.00  0.00    +0.179 C 
ATOM     43  C   UNL     1       6.882  -2.761  24.552  0.00  0.00    +0.201 C 
BRANCH  41  44
ATOM     44  O   UNL     1       4.673  -4.367  23.337  0.00  0.00    -0.386 OA
ATOM     45  H   UNL     1       5.236  -4.781  24.015  0.00  0.00    +0.210 HD
ENDBRANCH  41  44
BRANCH  42  46
ATOM     46  O   UNL     1       6.393  -1.179  22.741  0.00  0.00    -0.386 OA
ATOM     47  H   UNL     1       5.950  -1.182  21.864  0.00  0.00    +0.210 HD
ENDBRANCH  42  46
BRANCH  43  48
ATOM     48  O   UNL     1       7.238  -1.690  25.432  0.00  0.00    -0.384 OA
ATOM     49  H   UNL     1       7.010  -1.973  26.339  0.00  0.00    +0.210 HD
ENDBRANCH  43  48
BRANCH  40  50
ATOM     50  C   UNL     1       6.334  -5.445  21.259  0.00  0.00    +0.190 C 
BRANCH  50  51
ATOM     51  O   UNL     1       6.032  -6.538  22.131  0.00  0.00    -0.392 OA
ATOM     52  H   UNL     1       5.732  -7.288  21.590  0.00  0.00    +0.210 HD
ENDBRANCH  50  51
ENDBRANCH  40  50
ENDBRANCH  37  38
ENDBRANCH  36  37
ENDBRANCH  29  36
ENDBRANCH   1  27
TORSDOF 17
ENDMDL
MODEL 8
REMARK VINA RESULT:      -6.5      2.502      7.825
REMARK  Name = 
REMARK  19 active torsions:
REMARK  status: ('A' for Active; 'I' for Inactive)
REMARK    1  A    between atoms: C_1  and  O_2
REMARK    2  A    between atoms: O_2  and  C_3
REMARK    3  A    between atoms: C_5  and  O_50
REMARK    4  A    between atoms: C_10  and  C_41
REMARK    5  A    between atoms: C_11  and  O_14
REMARK    6  A    between atoms: O_14  and  C_15
REMARK    7  A    between atoms: C_17  and  O_40
REMARK    8  A    between atoms: C_19  and  O_39
REMARK    9  A    between atoms: C_20  and  C_23
REMARK   10  A    between atoms: C_23  and  O_24
REMARK   11  A    between atoms: O_24  and  C_25
REMARK   12  A    between atoms: C_27  and  O_38
REMARK   13  A    between atoms: C_28  and  O_37
REMARK   14  A    between atoms: C_30  and  O_36
REMARK   15  A    between atoms: C_32  and  C_34
REMARK   16  A    between atoms: C_34  and  O_35
REMARK   17  A    between atoms: C_43  and  O_48
REMARK   18  A    between atoms: C_44  and  O_47
REMARK   19  A    between atoms: O_48  and  C_49
REMARK                            x       y       z     vdW  Elec       q    Type
REMARK                         _______ _______ _______ _____ _____    ______ ____
ROOT
ATOM      1  O   UNL     1       8.087  -2.214  25.277  0.00  0.00    -0.453 OA
ENDROOT
BRANCH   1   7
ATOM      2  C   UNL     1       3.863   0.924  28.882  0.00  0.00    +0.127 A 
ATOM      3  C   UNL     1       3.821  -0.362  28.325  0.00  0.00    +0.092 A 
ATOM      4  C   UNL     1       4.952  -0.883  27.692  0.00  0.00    +0.147 A 
ATOM      5  O   UNL     1       4.891  -2.147  27.158  0.00  0.00    -0.451 OA
ATOM      6  C   UNL     1       5.921  -2.552  26.296  0.00  0.00    +0.181 A 
ATOM      7  C   UNL     1       7.079  -1.865  26.153  0.00  0.00    +0.214 A 
ATOM      8  C   UNL     1       7.302  -0.766  27.119  0.00  0.00    +0.238 A 
ATOM      9  O   UNL     1       8.438  -0.458  27.481  0.00  0.00    -0.283 OA
ATOM     10  C   UNL     1       6.111  -0.112  27.639  0.00  0.00    +0.109 A 
ATOM     11  C   UNL     1       6.124   1.201  28.098  0.00  0.00    +0.135 A 
ATOM     12  C   UNL     1       4.995   1.726  28.717  0.00  0.00    +0.092 A 
BRANCH   6  13
ATOM     13  C   UNL     1       5.641  -3.849  25.609  0.00  0.00    +0.025 A 
ATOM     14  C   UNL     1       5.438  -5.033  26.346  0.00  0.00    +0.015 A 
ATOM     15  C   UNL     1       5.100  -6.234  25.726  0.00  0.00    +0.050 A 
ATOM     16  C   UNL     1       4.929  -6.257  24.350  0.00  0.00    +0.158 A 
ATOM     17  C   UNL     1       5.105  -5.105  23.576  0.00  0.00    +0.162 A 
ATOM     18  C   UNL     1       5.469  -3.907  24.210  0.00  0.00    +0.061 A 
BRANCH  16  19
ATOM     19  O   UNL     1       4.559  -7.436  23.765  0.00  0.00    -0.503 OA
ATOM     20  H   UNL     1       5.102  -7.502  22.957  0.00  0.00    +0.292 HD
ENDBRANCH  16  19
BRANCH  17  21
ATOM     21  O   UNL     1       4.873  -5.284  22.236  0.00  0.00    -0.491 OA
ATOM     22  C   UNL     1       6.014  -5.416  21.399  0.00  0.00    +0.277 C 
ENDBRANCH  17  21
ENDBRANCH   6  13
BRANCH   2  24
ATOM     23  C   UNL     1       1.692   1.793  28.683  0.00  0.00    +0.277 C 
ATOM     24  O   UNL     1       2.741   1.341  29.546  0.00  0.00    -0.495 OA
ENDBRANCH   2  24
BRANCH  11  25
ATOM     25  O   UNL     1       7.217   1.995  27.904  0.00  0.00    -0.506 OA
ATOM     26  H   UNL     1       7.025   2.681  27.243  0.00  0.00    +0.292 HD
ENDBRANCH  11  25
ENDBRANCH   1   7
BRANCH   1  27
ATOM     27  C   UNL     1       8.664  -1.129  24.540  0.00  0.00    +0.340 C 
ATOM     28  O   UNL     1       7.854  -0.777  23.410  0.00  0.00    -0.331 OA
ATOM     29  C   UNL     1       8.722  -0.630  22.271  0.00  0.00    +0.179 C 
ATOM     30  C   UNL     1      10.177  -0.713  22.754  0.00  0.00    +0.180 C 
ATOM     31  C   UNL     1      10.062  -1.521  24.036  0.00  0.00    +0.214 C 
BRANCH  30  32
ATOM     32  O   UNL     1      10.773   0.559  23.020  0.00  0.00    -0.386 OA
ATOM     33  H   UNL     1      10.592   1.170  22.287  0.00  0.00    +0.210 HD
ENDBRANCH  30  32
BRANCH  31  34
ATOM     34  O   UNL     1      10.177  -2.911  23.729  0.00  0.00    -0.383 OA
ATOM     35  H   UNL     1      10.155  -3.371  24.589  0.00  0.00    +0.210 HD
ENDBRANCH  31  34
BRANCH  29  36
ATOM     36  C   UNL     1       8.389   0.682  21.563  0.00  0.00    +0.197 C 
BRANCH  36  37
ATOM     37  O   UNL     1       8.098   1.791  22.414  0.00  0.00    -0.346 OA
BRANCH  37  38
ATOM     38  C   UNL     1       6.829   2.429  22.224  0.00  0.00    +0.282 C 
ATOM     39  O   UNL     1       7.062   3.808  21.900  0.00  0.00    -0.341 OA
ATOM     40  C   UNL     1       7.732   4.537  22.947  0.00  0.00    +0.178 C 
ATOM     41  C   UNL     1       6.956   4.475  24.283  0.00  0.00    +0.177 C 
ATOM     42  C   UNL     1       6.600   3.030  24.650  0.00  0.00    +0.179 C 
ATOM     43  C   UNL     1       5.911   2.342  23.463  0.00  0.00    +0.201 C 
BRANCH  41  44
ATOM     44  O   UNL     1       5.747   5.238  24.188  0.00  0.00    -0.386 OA
ATOM     45  H   UNL     1       5.108   4.732  23.656  0.00  0.00    +0.210 HD
ENDBRANCH  41  44
BRANCH  42  46
ATOM     46  O   UNL     1       7.757   2.297  25.078  0.00  0.00    -0.386 OA
ATOM     47  H   UNL     1       8.489   2.941  25.206  0.00  0.00    +0.210 HD
ENDBRANCH  42  46
BRANCH  43  48
ATOM     48  O   UNL     1       5.542   1.001  23.802  0.00  0.00    -0.384 OA
ATOM     49  H   UNL     1       5.462   0.503  22.965  0.00  0.00    +0.210 HD
ENDBRANCH  43  48
BRANCH  40  50
ATOM     50  C   UNL     1       7.930   5.991  22.484  0.00  0.00    +0.190 C 
BRANCH  50  51
ATOM     51  O   UNL     1       7.049   6.354  21.417  0.00  0.00    -0.392 OA
ATOM     52  H   UNL     1       7.587   6.661  20.667  0.00  0.00    +0.210 HD
ENDBRANCH  50  51
ENDBRANCH  40  50
ENDBRANCH  37  38
ENDBRANCH  36  37
ENDBRANCH  29  36
ENDBRANCH   1  27
TORSDOF 17
ENDMDL
MODEL 9
REMARK VINA RESULT:      -6.3      1.932      7.570
REMARK  Name = 
REMARK  19 active torsions:
REMARK  status: ('A' for Active; 'I' for Inactive)
REMARK    1  A    between atoms: C_1  and  O_2
REMARK    2  A    between atoms: O_2  and  C_3
REMARK    3  A    between atoms: C_5  and  O_50
REMARK    4  A    between atoms: C_10  and  C_41
REMARK    5  A    between atoms: C_11  and  O_14
REMARK    6  A    between atoms: O_14  and  C_15
REMARK    7  A    between atoms: C_17  and  O_40
REMARK    8  A    between atoms: C_19  and  O_39
REMARK    9  A    between atoms: C_20  and  C_23
REMARK   10  A    between atoms: C_23  and  O_24
REMARK   11  A    between atoms: O_24  and  C_25
REMARK   12  A    between atoms: C_27  and  O_38
REMARK   13  A    between atoms: C_28  and  O_37
REMARK   14  A    between atoms: C_30  and  O_36
REMARK   15  A    between atoms: C_32  and  C_34
REMARK   16  A    between atoms: C_34  and  O_35
REMARK   17  A    between atoms: C_43  and  O_48
REMARK   18  A    between atoms: C_44  and  O_47
REMARK   19  A    between atoms: O_48  and  C_49
REMARK                            x       y       z     vdW  Elec       q    Type
REMARK                         _______ _______ _______ _____ _____    ______ ____
ROOT
ATOM      1  O   UNL     1       8.106  -2.092  26.265  0.00  0.00    -0.453 OA
ENDROOT
BRANCH   1   7
ATOM      2  C   UNL     1       3.843   2.616  26.856  0.00  0.00    +0.127 A 
ATOM      3  C   UNL     1       3.682   1.268  26.505  0.00  0.00    +0.092 A 
ATOM      4  C   UNL     1       4.766   0.392  26.594  0.00  0.00    +0.147 A 
ATOM      5  O   UNL     1       4.585  -0.925  26.250  0.00  0.00    -0.451 OA
ATOM      6  C   UNL     1       5.723  -1.728  26.079  0.00  0.00    +0.181 A 
ATOM      7  C   UNL     1       6.962  -1.344  26.465  0.00  0.00    +0.214 A 
ATOM      8  C   UNL     1       7.034  -0.110  27.279  0.00  0.00    +0.238 A 
ATOM      9  O   UNL     1       7.912   0.042  28.129  0.00  0.00    -0.283 OA
ATOM     10  C   UNL     1       5.990   0.878  27.048  0.00  0.00    +0.109 A 
ATOM     11  C   UNL     1       6.180   2.233  27.298  0.00  0.00    +0.135 A 
ATOM     12  C   UNL     1       5.105   3.109  27.197  0.00  0.00    +0.092 A 
BRANCH   6  13
ATOM     13  C   UNL     1       5.417  -3.070  25.498  0.00  0.00    +0.025 A 
ATOM     14  C   UNL     1       5.133  -3.220  24.127  0.00  0.00    +0.015 A 
ATOM     15  C   UNL     1       4.922  -4.473  23.555  0.00  0.00    +0.050 A 
ATOM     16  C   UNL     1       5.025  -5.604  24.352  0.00  0.00    +0.158 A 
ATOM     17  C   UNL     1       5.320  -5.507  25.716  0.00  0.00    +0.162 A 
ATOM     18  C   UNL     1       5.505  -4.237  26.285  0.00  0.00    +0.061 A 
BRANCH  16  19
ATOM     19  O   UNL     1       4.854  -6.826  23.764  0.00  0.00    -0.503 OA
ATOM     20  H   UNL     1       4.244  -6.668  23.019  0.00  0.00    +0.292 HD
ENDBRANCH  16  19
BRANCH  17  21
ATOM     21  O   UNL     1       5.414  -6.714  26.360  0.00  0.00    -0.491 OA
ATOM     22  C   UNL     1       5.028  -6.745  27.728  0.00  0.00    +0.277 C 
ENDBRANCH  17  21
ENDBRANCH   6  13
BRANCH   2  24
ATOM     23  C   UNL     1       2.149   3.512  25.502  0.00  0.00    +0.277 C 
ATOM     24  O   UNL     1       2.721   3.400  26.809  0.00  0.00    -0.495 OA
ENDBRANCH   2  24
BRANCH  11  25
ATOM     25  O   UNL     1       7.420   2.718  27.594  0.00  0.00    -0.506 OA
ATOM     26  H   UNL     1       7.968   2.764  26.792  0.00  0.00    +0.292 HD
ENDBRANCH  11  25
ENDBRANCH   1   7
BRANCH   1  27
ATOM     27  C   UNL     1       8.890  -1.723  25.124  0.00  0.00    +0.340 C 
ATOM     28  O   UNL     1       8.113  -0.981  24.174  0.00  0.00    -0.331 OA
ATOM     29  C   UNL     1       8.377  -1.522  22.867  0.00  0.00    +0.179 C 
ATOM     30  C   UNL     1       9.523  -2.537  22.982  0.00  0.00    +0.180 C 
ATOM     31  C   UNL     1       9.436  -2.982  24.432  0.00  0.00    +0.214 C 
BRANCH  30  32
ATOM     32  O   UNL     1      10.814  -1.986  22.708  0.00  0.00    -0.386 OA
ATOM     33  H   UNL     1      10.721  -1.124  22.271  0.00  0.00    +0.210 HD
ENDBRANCH  30  32
BRANCH  31  34
ATOM     34  O   UNL     1       8.553  -4.101  24.530  0.00  0.00    -0.383 OA
ATOM     35  H   UNL     1       8.955  -4.694  25.191  0.00  0.00    +0.210 HD
ENDBRANCH  31  34
BRANCH  29  36
ATOM     36  C   UNL     1       8.676  -0.370  21.908  0.00  0.00    +0.197 C 
BRANCH  36  37
ATOM     37  O   UNL     1       9.304   0.773  22.488  0.00  0.00    -0.346 OA
BRANCH  37  38
ATOM     38  C   UNL     1       9.165   2.010  21.777  0.00  0.00    +0.282 C 
ATOM     39  O   UNL     1      10.368   2.772  21.960  0.00  0.00    -0.341 OA
ATOM     40  C   UNL     1      10.622   3.119  23.334  0.00  0.00    +0.178 C 
ATOM     41  C   UNL     1       9.447   3.906  23.960  0.00  0.00    +0.177 C 
ATOM     42  C   UNL     1       8.113   3.186  23.729  0.00  0.00    +0.179 C 
ATOM     43  C   UNL     1       7.953   2.847  22.240  0.00  0.00    +0.201 C 
BRANCH  41  44
ATOM     44  O   UNL     1       9.369   5.216  23.387  0.00  0.00    -0.386 OA
ATOM     45  H   UNL     1       8.666   5.214  22.714  0.00  0.00    +0.210 HD
ENDBRANCH  41  44
BRANCH  42  46
ATOM     46  O   UNL     1       8.002   2.012  24.546  0.00  0.00    -0.386 OA
ATOM     47  H   UNL     1       7.517   2.262  25.364  0.00  0.00    +0.210 HD
ENDBRANCH  42  46
BRANCH  43  48
ATOM     48  O   UNL     1       6.696   2.204  22.002  0.00  0.00    -0.384 OA
ATOM     49  H   UNL     1       6.656   1.991  21.049  0.00  0.00    +0.210 HD
ENDBRANCH  43  48
BRANCH  40  50
ATOM     50  C   UNL     1      11.932   3.924  23.404  0.00  0.00    +0.190 C 
BRANCH  50  51
ATOM     51  O   UNL     1      12.049   4.878  22.344  0.00  0.00    -0.392 OA
ATOM     52  H   UNL     1      11.155   5.099  22.032  0.00  0.00    +0.210 HD
ENDBRANCH  50  51
ENDBRANCH  40  50
ENDBRANCH  37  38
ENDBRANCH  36  37
ENDBRANCH  29  36
ENDBRANCH   1  27
TORSDOF 17
ENDMDL
