MODEL 1
REMARK VINA RESULT:      -7.3      0.000      0.000
REMARK  Name = 
REMARK  22 active torsions:
REMARK  status: ('A' for Active; 'I' for Inactive)
REMARK    1  A    between atoms: C_3  and  O_58
REMARK    2  A    between atoms: C_4  and  O_57
REMARK    3  A    between atoms: C_6  and  C_7
REMARK    4  A    between atoms: C_8  and  O_20
REMARK    5  A    between atoms: C_12  and  O_19
REMARK    6  A    between atoms: C_14  and  O_18
REMARK    7  A    between atoms: O_20  and  C_21
REMARK    8  A    between atoms: C_23  and  O_45
REMARK    9  A    between atoms: C_24  and  O_44
REMARK   10  A    between atoms: C_26  and  O_43
REMARK   11  A    between atoms: C_28  and  C_30
REMARK   12  A    between atoms: C_30  and  O_31
REMARK   13  A    between atoms: O_31  and  C_32
REMARK   14  A    between atoms: C_32  and  C_34
REMARK   15  A    between atoms: C_36  and  O_42
REMARK   16  A    between atoms: C_37  and  O_41
REMARK   17  A    between atoms: C_38  and  O_40
REMARK   18  A    between atoms: O_45  and  C_46
REMARK   19  A    between atoms: C_46  and  C_48
REMARK   20  A    between atoms: C_50  and  O_56
REMARK   21  A    between atoms: C_51  and  O_55
REMARK   22  A    between atoms: C_52  and  O_54
REMARK                            x       y       z     vdW  Elec       q    Type
REMARK                         _______ _______ _______ _____ _____    ______ ____
ROOT
ATOM      1  C   UNL     1       7.516   0.022  24.568  0.00  0.00    +0.352 C 
ATOM      2  O   UNL     1       7.221  -1.084  23.666  0.00  0.00    -0.329 OA
ATOM      3  C   UNL     1       8.308  -1.873  23.142  0.00  0.00    +0.191 C 
ATOM      4  C   UNL     1       9.545  -1.073  22.699  0.00  0.00    +0.179 C 
ATOM      5  C   UNL     1       9.827   0.112  23.614  0.00  0.00    +0.192 C 
ATOM      6  C   UNL     1       8.513   0.934  23.846  0.00  0.00    +0.276 C 
ENDROOT
BRANCH   5   7
ATOM      7  O   UNL     1      10.454  -0.474  24.767  0.00  0.00    -0.385 OA
ATOM      8  H   UNL     1      11.408  -0.590  24.593  0.00  0.00    +0.210 HD
ENDBRANCH   5   7
BRANCH   4   9
ATOM      9  O   UNL     1      10.672  -1.968  22.654  0.00  0.00    -0.386 OA
ATOM     10  H   UNL     1      10.666  -2.348  21.749  0.00  0.00    +0.210 HD
ENDBRANCH   4   9
BRANCH   6  11
ATOM     11  O   UNL     1       8.797   2.178  24.532  0.00  0.00    -0.449 OA
BRANCH  11  12
ATOM     12  C   UNL     1       7.885   2.894  25.248  0.00  0.00    +0.340 C 
ATOM     13  O   UNL     1       7.689   2.831  26.451  0.00  0.00    -0.245 OA
BRANCH  12  14
ATOM     14  C   UNL     1       7.182   3.855  24.308  0.00  0.00    +0.066 A 
ATOM     15  C   UNL     1       5.800   4.035  24.514  0.00  0.00    +0.064 A 
ATOM     16  C   UNL     1       5.056   4.836  23.665  0.00  0.00    +0.163 A 
ATOM     17  C   UNL     1       5.648   5.509  22.622  0.00  0.00    +0.201 A 
ATOM     18  C   UNL     1       7.024   5.373  22.415  0.00  0.00    +0.163 A 
ATOM     19  C   UNL     1       7.794   4.544  23.251  0.00  0.00    +0.064 A 
BRANCH  18  20
ATOM     20  O   UNL     1       7.531   6.095  21.360  0.00  0.00    -0.503 OA
ATOM     21  H   UNL     1       7.734   7.002  21.648  0.00  0.00    +0.292 HD
ENDBRANCH  18  20
BRANCH  17  22
ATOM     22  O   UNL     1       4.872   6.292  21.824  0.00  0.00    -0.501 OA
ATOM     23  H   UNL     1       4.873   5.854  20.950  0.00  0.00    +0.292 HD
ENDBRANCH  17  22
BRANCH  16  24
ATOM     24  O   UNL     1       3.715   4.930  23.889  0.00  0.00    -0.503 OA
ATOM     25  H   UNL     1       3.360   4.047  23.669  0.00  0.00    +0.292 HD
ENDBRANCH  16  24
ENDBRANCH  12  14
ENDBRANCH  11  12
ENDBRANCH   6  11
BRANCH   3  26
ATOM     26  C   UNL     1       7.887  -2.666  21.869  0.00  0.00    +0.266 C 
BRANCH  26  27
ATOM     27  O   UNL     1       6.738  -3.482  22.074  0.00  0.00    -0.458 OA
BRANCH  27  28
ATOM     28  C   UNL     1       6.925  -4.450  23.003  0.00  0.00    +0.340 C 
ATOM     29  O   UNL     1       7.979  -4.945  23.364  0.00  0.00    -0.245 OA
BRANCH  28  30
ATOM     30  C   UNL     1       5.611  -4.850  23.520  0.00  0.00    +0.066 A 
ATOM     31  C   UNL     1       4.748  -3.841  23.955  0.00  0.00    +0.064 A 
ATOM     32  C   UNL     1       3.515  -4.199  24.467  0.00  0.00    +0.163 A 
ATOM     33  C   UNL     1       3.135  -5.537  24.522  0.00  0.00    +0.201 A 
ATOM     34  C   UNL     1       3.990  -6.536  24.067  0.00  0.00    +0.163 A 
ATOM     35  C   UNL     1       5.238  -6.205  23.561  0.00  0.00    +0.064 A 
BRANCH  34  36
ATOM     36  O   UNL     1       3.560  -7.831  24.144  0.00  0.00    -0.503 OA
ATOM     37  H   UNL     1       4.117  -8.303  24.787  0.00  0.00    +0.292 HD
ENDBRANCH  34  36
BRANCH  33  38
ATOM     38  O   UNL     1       1.909  -5.858  25.037  0.00  0.00    -0.501 OA
ATOM     39  H   UNL     1       1.938  -6.832  25.130  0.00  0.00    +0.292 HD
ENDBRANCH  33  38
BRANCH  32  40
ATOM     40  O   UNL     1       2.677  -3.229  24.933  0.00  0.00    -0.503 OA
ATOM     41  H   UNL     1       1.903  -3.715  25.278  0.00  0.00    +0.292 HD
ENDBRANCH  32  40
ENDBRANCH  28  30
ENDBRANCH  27  28
ENDBRANCH  26  27
ENDBRANCH   3  26
BRANCH   1  42
ATOM     42  O   UNL     1       8.005  -0.443  25.854  0.00  0.00    -0.452 OA
BRANCH  42  53
ATOM     43  C   UNL     1       6.009  -1.083  27.132  0.00  0.00    +0.181 A 
ATOM     44  O   UNL     1       5.183  -2.088  27.655  0.00  0.00    -0.451 OA
ATOM     45  C   UNL     1       5.475  -3.409  27.493  0.00  0.00    +0.147 A 
ATOM     46  C   UNL     1       6.691  -3.843  27.003  0.00  0.00    +0.109 A 
ATOM     47  C   UNL     1       6.948  -5.225  26.931  0.00  0.00    +0.135 A 
ATOM     48  C   UNL     1       5.979  -6.159  27.307  0.00  0.00    +0.091 A 
ATOM     49  C   UNL     1       4.747  -5.706  27.753  0.00  0.00    +0.124 A 
ATOM     50  C   UNL     1       7.632  -2.811  26.542  0.00  0.00    +0.238 A 
ATOM     51  O   UNL     1       8.714  -3.180  26.107  0.00  0.00    -0.283 OA
ATOM     52  C   UNL     1       4.491  -4.339  27.859  0.00  0.00    +0.092 A 
ATOM     53  C   UNL     1       7.227  -1.353  26.587  0.00  0.00    +0.214 A 
BRANCH  43  55
ATOM     54  C   UNL     1       5.484   1.033  28.384  0.00  0.00    +0.015 A 
ATOM     55  C   UNL     1       5.315   0.248  27.211  0.00  0.00    +0.025 A 
ATOM     56  C   UNL     1       4.433   0.754  26.247  0.00  0.00    +0.060 A 
ATOM     57  C   UNL     1       3.741   1.944  26.469  0.00  0.00    +0.159 A 
ATOM     58  C   UNL     1       3.872   2.654  27.657  0.00  0.00    +0.158 A 
ATOM     59  C   UNL     1       4.763   2.213  28.613  0.00  0.00    +0.050 A 
BRANCH  58  60
ATOM     60  O   UNL     1       3.085   3.752  27.842  0.00  0.00    -0.503 OA
ATOM     61  H   UNL     1       3.320   4.412  27.166  0.00  0.00    +0.292 HD
ENDBRANCH  58  60
BRANCH  57  62
ATOM     62  O   UNL     1       2.886   2.401  25.505  0.00  0.00    -0.503 OA
ATOM     63  H   UNL     1       3.056   3.365  25.453  0.00  0.00    +0.292 HD
ENDBRANCH  57  62
ENDBRANCH  43  55
BRANCH  49  64
ATOM     64  O   UNL     1       3.754  -6.575  28.104  0.00  0.00    -0.507 OA
ATOM     65  H   UNL     1       3.972  -6.975  28.965  0.00  0.00    +0.292 HD
ENDBRANCH  49  64
BRANCH  47  66
ATOM     66  O   UNL     1       8.132  -5.757  26.497  0.00  0.00    -0.506 OA
ATOM     67  H   UNL     1       8.092  -5.869  25.522  0.00  0.00    +0.292 HD
ENDBRANCH  47  66
ENDBRANCH  42  53
ENDBRANCH   1  42
TORSDOF 22
ENDMDL
MODEL 2
REMARK VINA RESULT:      -7.3      1.843      2.718
REMARK  Name = 
REMARK  22 active torsions:
REMARK  status: ('A' for Active; 'I' for Inactive)
REMARK    1  A    between atoms: C_3  and  O_58
REMARK    2  A    between atoms: C_4  and  O_57
REMARK    3  A    between atoms: C_6  and  C_7
REMARK    4  A    between atoms: C_8  and  O_20
REMARK    5  A    between atoms: C_12  and  O_19
REMARK    6  A    between atoms: C_14  and  O_18
REMARK    7  A    between atoms: O_20  and  C_21
REMARK    8  A    between atoms: C_23  and  O_45
REMARK    9  A    between atoms: C_24  and  O_44
REMARK   10  A    between atoms: C_26  and  O_43
REMARK   11  A    between atoms: C_28  and  C_30
REMARK   12  A    between atoms: C_30  and  O_31
REMARK   13  A    between atoms: O_31  and  C_32
REMARK   14  A    between atoms: C_32  and  C_34
REMARK   15  A    between atoms: C_36  and  O_42
REMARK   16  A    between atoms: C_37  and  O_41
REMARK   17  A    between atoms: C_38  and  O_40
REMARK   18  A    between atoms: O_45  and  C_46
REMARK   19  A    between atoms: C_46  and  C_48
REMARK   20  A    between atoms: C_50  and  O_56
REMARK   21  A    between atoms: C_51  and  O_55
REMARK   22  A    between atoms: C_52  and  O_54
REMARK                            x       y       z     vdW  Elec       q    Type
REMARK                         _______ _______ _______ _____ _____    ______ ____
ROOT
ATOM      1  C   UNL     1       7.551  -0.006  24.251  0.00  0.00    +0.352 C 
ATOM      2  O   UNL     1       7.268  -1.215  23.488  0.00  0.00    -0.329 OA
ATOM      3  C   UNL     1       8.363  -2.053  23.067  0.00  0.00    +0.191 C 
ATOM      4  C   UNL     1       9.596  -1.302  22.535  0.00  0.00    +0.179 C 
ATOM      5  C   UNL     1       9.866  -0.013  23.303  0.00  0.00    +0.192 C 
ATOM      6  C   UNL     1       8.545   0.820  23.429  0.00  0.00    +0.276 C 
ENDROOT
BRANCH   5   7
ATOM      7  O   UNL     1      10.492  -0.452  24.520  0.00  0.00    -0.385 OA
ATOM      8  H   UNL     1       9.823  -0.869  25.096  0.00  0.00    +0.210 HD
ENDBRANCH   5   7
BRANCH   4   9
ATOM      9  O   UNL     1      10.729  -2.188  22.603  0.00  0.00    -0.386 OA
ATOM     10  H   UNL     1      10.488  -2.870  23.266  0.00  0.00    +0.210 HD
ENDBRANCH   4   9
BRANCH   6  11
ATOM     11  O   UNL     1       8.816   2.140  23.961  0.00  0.00    -0.449 OA
BRANCH  11  12
ATOM     12  C   UNL     1       8.795   3.290  23.230  0.00  0.00    +0.340 C 
ATOM     13  O   UNL     1       7.958   3.613  22.403  0.00  0.00    -0.245 OA
BRANCH  12  14
ATOM     14  C   UNL     1       9.961   4.158  23.663  0.00  0.00    +0.066 A 
ATOM     15  C   UNL     1       9.666   5.201  24.563  0.00  0.00    +0.064 A 
ATOM     16  C   UNL     1      10.648   6.092  24.961  0.00  0.00    +0.163 A 
ATOM     17  C   UNL     1      11.945   5.961  24.523  0.00  0.00    +0.201 A 
ATOM     18  C   UNL     1      12.272   4.915  23.655  0.00  0.00    +0.163 A 
ATOM     19  C   UNL     1      11.283   4.014  23.218  0.00  0.00    +0.064 A 
BRANCH  18  20
ATOM     20  O   UNL     1      13.595   4.854  23.284  0.00  0.00    -0.503 OA
ATOM     21  H   UNL     1      13.839   5.659  22.797  0.00  0.00    +0.292 HD
ENDBRANCH  18  20
BRANCH  17  22
ATOM     22  O   UNL     1      12.875   6.858  24.955  0.00  0.00    -0.501 OA
ATOM     23  H   UNL     1      13.716   6.580  24.539  0.00  0.00    +0.292 HD
ENDBRANCH  17  22
BRANCH  16  24
ATOM     24  O   UNL     1      10.288   7.108  25.794  0.00  0.00    -0.503 OA
ATOM     25  H   UNL     1      10.720   7.902  25.425  0.00  0.00    +0.292 HD
ENDBRANCH  16  24
ENDBRANCH  12  14
ENDBRANCH  11  12
ENDBRANCH   6  11
BRANCH   3  26
ATOM     26  C   UNL     1       7.954  -2.996  21.897  0.00  0.00    +0.266 C 
BRANCH  26  27
ATOM     27  O   UNL     1       6.743  -3.704  22.147  0.00  0.00    -0.458 OA
BRANCH  27  28
ATOM     28  C   UNL     1       6.869  -4.666  23.093  0.00  0.00    +0.340 C 
ATOM     29  O   UNL     1       7.886  -5.239  23.445  0.00  0.00    -0.245 OA
BRANCH  28  30
ATOM     30  C   UNL     1       5.537  -4.947  23.642  0.00  0.00    +0.066 A 
ATOM     31  C   UNL     1       5.146  -6.284  23.750  0.00  0.00    +0.064 A 
ATOM     32  C   UNL     1       3.886  -6.568  24.242  0.00  0.00    +0.163 A 
ATOM     33  C   UNL     1       3.037  -5.541  24.643  0.00  0.00    +0.201 A 
ATOM     34  C   UNL     1       3.440  -4.212  24.552  0.00  0.00    +0.163 A 
ATOM     35  C   UNL     1       4.694  -3.899  24.050  0.00  0.00    +0.064 A 
BRANCH  34  36
ATOM     36  O   UNL     1       2.563  -3.248  24.965  0.00  0.00    -0.503 OA
ATOM     37  H   UNL     1       2.071  -2.927  24.189  0.00  0.00    +0.292 HD
ENDBRANCH  34  36
BRANCH  33  38
ATOM     38  O   UNL     1       1.795  -5.856  25.123  0.00  0.00    -0.501 OA
ATOM     39  H   UNL     1       1.514  -5.049  25.602  0.00  0.00    +0.292 HD
ENDBRANCH  33  38
BRANCH  32  40
ATOM     40  O   UNL     1       3.475  -7.867  24.317  0.00  0.00    -0.503 OA
ATOM     41  H   UNL     1       3.946  -8.317  23.590  0.00  0.00    +0.292 HD
ENDBRANCH  32  40
ENDBRANCH  28  30
ENDBRANCH  27  28
ENDBRANCH  26  27
ENDBRANCH   3  26
BRANCH   1  42
ATOM     42  O   UNL     1       8.037  -0.309  25.586  0.00  0.00    -0.452 OA
BRANCH  42  53
ATOM     43  C   UNL     1       6.104  -0.908  26.975  0.00  0.00    +0.181 A 
ATOM     44  O   UNL     1       5.312  -1.895  27.578  0.00  0.00    -0.451 OA
ATOM     45  C   UNL     1       5.611  -3.220  27.465  0.00  0.00    +0.147 A 
ATOM     46  C   UNL     1       6.811  -3.664  26.943  0.00  0.00    +0.109 A 
ATOM     47  C   UNL     1       7.080  -5.046  26.924  0.00  0.00    +0.135 A 
ATOM     48  C   UNL     1       6.137  -5.970  27.382  0.00  0.00    +0.091 A 
ATOM     49  C   UNL     1       4.920  -5.509  27.860  0.00  0.00    +0.124 A 
ATOM     50  C   UNL     1       7.720  -2.646  26.397  0.00  0.00    +0.238 A 
ATOM     51  O   UNL     1       8.787  -3.025  25.933  0.00  0.00    -0.283 OA
ATOM     52  C   UNL     1       4.655  -4.141  27.914  0.00  0.00    +0.092 A 
ATOM     53  C   UNL     1       7.301  -1.192  26.392  0.00  0.00    +0.214 A 
BRANCH  43  55
ATOM     54  C   UNL     1       5.701   1.311  28.088  0.00  0.00    +0.015 A 
ATOM     55  C   UNL     1       5.399   0.419  27.024  0.00  0.00    +0.025 A 
ATOM     56  C   UNL     1       4.390   0.826  26.141  0.00  0.00    +0.060 A 
ATOM     57  C   UNL     1       3.709   2.026  26.342  0.00  0.00    +0.159 A 
ATOM     58  C   UNL     1       3.978   2.843  27.435  0.00  0.00    +0.158 A 
ATOM     59  C   UNL     1       4.993   2.500  28.302  0.00  0.00    +0.050 A 
BRANCH  58  60
ATOM     60  O   UNL     1       3.199   3.947  27.620  0.00  0.00    -0.503 OA
ATOM     61  H   UNL     1       2.413   3.683  28.130  0.00  0.00    +0.292 HD
ENDBRANCH  58  60
BRANCH  57  62
ATOM     62  O   UNL     1       2.727   2.385  25.460  0.00  0.00    -0.503 OA
ATOM     63  H   UNL     1       2.959   3.297  25.182  0.00  0.00    +0.292 HD
ENDBRANCH  57  62
ENDBRANCH  43  55
BRANCH  49  64
ATOM     64  O   UNL     1       3.953  -6.370  28.292  0.00  0.00    -0.507 OA
ATOM     65  H   UNL     1       3.211  -6.355  27.662  0.00  0.00    +0.292 HD
ENDBRANCH  49  64
BRANCH  47  66
ATOM     66  O   UNL     1       8.250  -5.586  26.464  0.00  0.00    -0.506 OA
ATOM     67  H   UNL     1       8.460  -5.193  25.589  0.00  0.00    +0.292 HD
ENDBRANCH  47  66
ENDBRANCH  42  53
ENDBRANCH   1  42
TORSDOF 22
ENDMDL
MODEL 3
REMARK VINA RESULT:      -7.3      2.174      4.958
REMARK  Name = 
REMARK  22 active torsions:
REMARK  status: ('A' for Active; 'I' for Inactive)
REMARK    1  A    between atoms: C_3  and  O_58
REMARK    2  A    between atoms: C_4  and  O_57
REMARK    3  A    between atoms: C_6  and  C_7
REMARK    4  A    between atoms: C_8  and  O_20
REMARK    5  A    between atoms: C_12  and  O_19
REMARK    6  A    between atoms: C_14  and  O_18
REMARK    7  A    between atoms: O_20  and  C_21
REMARK    8  A    between atoms: C_23  and  O_45
REMARK    9  A    between atoms: C_24  and  O_44
REMARK   10  A    between atoms: C_26  and  O_43
REMARK   11  A    between atoms: C_28  and  C_30
REMARK   12  A    between atoms: C_30  and  O_31
REMARK   13  A    between atoms: O_31  and  C_32
REMARK   14  A    between atoms: C_32  and  C_34
REMARK   15  A    between atoms: C_36  and  O_42
REMARK   16  A    between atoms: C_37  and  O_41
REMARK   17  A    between atoms: C_38  and  O_40
REMARK   18  A    between atoms: O_45  and  C_46
REMARK   19  A    between atoms: C_46  and  C_48
REMARK   20  A    between atoms: C_50  and  O_56
REMARK   21  A    between atoms: C_51  and  O_55
REMARK   22  A    between atoms: C_52  and  O_54
REMARK                            x       y       z     vdW  Elec       q    Type
REMARK                         _______ _______ _______ _____ _____    ______ ____
ROOT
ATOM      1  C   UNL     1       7.448   0.193  23.744  0.00  0.00    +0.352 C 
ATOM      2  O   UNL     1       7.090  -1.042  23.059  0.00  0.00    -0.329 OA
ATOM      3  C   UNL     1       7.942  -2.196  23.200  0.00  0.00    +0.191 C 
ATOM      4  C   UNL     1       9.452  -1.910  23.134  0.00  0.00    +0.179 C 
ATOM      5  C   UNL     1       9.822  -0.594  23.810  0.00  0.00    +0.192 C 
ATOM      6  C   UNL     1       8.873   0.549  23.310  0.00  0.00    +0.276 C 
ENDROOT
BRANCH   5   7
ATOM      7  O   UNL     1       9.806  -0.902  25.213  0.00  0.00    -0.385 OA
ATOM      8  H   UNL     1      10.612  -1.402  25.444  0.00  0.00    +0.210 HD
ENDBRANCH   5   7
BRANCH   4   9
ATOM      9  O   UNL     1      10.149  -3.013  23.741  0.00  0.00    -0.386 OA
ATOM     10  H   UNL     1      10.503  -3.541  22.992  0.00  0.00    +0.210 HD
ENDBRANCH   4   9
BRANCH   6  11
ATOM     11  O   UNL     1       9.338   1.842  23.768  0.00  0.00    -0.449 OA
BRANCH  11  12
ATOM     12  C   UNL     1       9.132   3.018  23.111  0.00  0.00    +0.340 C 
ATOM     13  O   UNL     1       8.208   3.281  22.357  0.00  0.00    -0.245 OA
BRANCH  12  14
ATOM     14  C   UNL     1      10.215   3.996  23.523  0.00  0.00    +0.066 A 
ATOM     15  C   UNL     1       9.810   5.078  24.330  0.00  0.00    +0.064 A 
ATOM     16  C   UNL     1      10.709   6.063  24.698  0.00  0.00    +0.163 A 
ATOM     17  C   UNL     1      12.031   5.995  24.322  0.00  0.00    +0.201 A 
ATOM     18  C   UNL     1      12.467   4.915  23.548  0.00  0.00    +0.163 A 
ATOM     19  C   UNL     1      11.563   3.916  23.142  0.00  0.00    +0.064 A 
BRANCH  18  20
ATOM     20  O   UNL     1      13.806   4.923  23.235  0.00  0.00    -0.503 OA
ATOM     21  H   UNL     1      14.329   5.134  24.027  0.00  0.00    +0.292 HD
ENDBRANCH  18  20
BRANCH  17  22
ATOM     22  O   UNL     1      12.876   6.985  24.722  0.00  0.00    -0.501 OA
ATOM     23  H   UNL     1      12.649   7.759  24.168  0.00  0.00    +0.292 HD
ENDBRANCH  17  22
BRANCH  16  24
ATOM     24  O   UNL     1      10.244   7.108  25.438  0.00  0.00    -0.503 OA
ATOM     25  H   UNL     1       9.569   6.719  26.028  0.00  0.00    +0.292 HD
ENDBRANCH  16  24
ENDBRANCH  12  14
ENDBRANCH  11  12
ENDBRANCH   6  11
BRANCH   3  26
ATOM     26  C   UNL     1       7.699  -3.237  22.067  0.00  0.00    +0.266 C 
BRANCH  26  27
ATOM     27  O   UNL     1       6.540  -4.037  22.282  0.00  0.00    -0.458 OA
BRANCH  27  28
ATOM     28  C   UNL     1       6.727  -5.017  23.201  0.00  0.00    +0.340 C 
ATOM     29  O   UNL     1       7.759  -5.615  23.456  0.00  0.00    -0.245 OA
BRANCH  28  30
ATOM     30  C   UNL     1       5.442  -5.280  23.858  0.00  0.00    +0.066 A 
ATOM     31  C   UNL     1       4.553  -4.210  24.002  0.00  0.00    +0.064 A 
ATOM     32  C   UNL     1       3.347  -4.432  24.640  0.00  0.00    +0.163 A 
ATOM     33  C   UNL     1       3.018  -5.702  25.106  0.00  0.00    +0.201 A 
ATOM     34  C   UNL     1       3.898  -6.767  24.941  0.00  0.00    +0.163 A 
ATOM     35  C   UNL     1       5.120  -6.569  24.316  0.00  0.00    +0.064 A 
BRANCH  34  36
ATOM     36  O   UNL     1       3.517  -7.991  25.417  0.00  0.00    -0.503 OA
ATOM     37  H   UNL     1       2.805  -8.333  24.849  0.00  0.00    +0.292 HD
ENDBRANCH  34  36
BRANCH  33  38
ATOM     38  O   UNL     1       1.818  -5.887  25.735  0.00  0.00    -0.501 OA
ATOM     39  H   UNL     1       1.480  -6.726  25.358  0.00  0.00    +0.292 HD
ENDBRANCH  33  38
BRANCH  32  40
ATOM     40  O   UNL     1       2.487  -3.390  24.823  0.00  0.00    -0.503 OA
ATOM     41  H   UNL     1       1.861  -3.703  25.506  0.00  0.00    +0.292 HD
ENDBRANCH  32  40
ENDBRANCH  28  30
ENDBRANCH  27  28
ENDBRANCH  26  27
ENDBRANCH   3  26
BRANCH   1  42
ATOM     42  O   UNL     1       7.310   0.074  25.185  0.00  0.00    -0.452 OA
BRANCH  42  53
ATOM     43  C   UNL     1       5.465  -0.926  26.458  0.00  0.00    +0.181 A 
ATOM     44  O   UNL     1       4.274  -0.768  27.181  0.00  0.00    -0.451 OA
ATOM     45  C   UNL     1       3.700   0.456  27.354  0.00  0.00    +0.147 A 
ATOM     46  C   UNL     1       4.121   1.574  26.662  0.00  0.00    +0.109 A 
ATOM     47  C   UNL     1       3.434   2.790  26.839  0.00  0.00    +0.135 A 
ATOM     48  C   UNL     1       2.364   2.888  27.734  0.00  0.00    +0.091 A 
ATOM     49  C   UNL     1       1.984   1.767  28.454  0.00  0.00    +0.124 A 
ATOM     50  C   UNL     1       5.306   1.423  25.806  0.00  0.00    +0.238 A 
ATOM     51  O   UNL     1       5.690   2.405  25.185  0.00  0.00    -0.283 OA
ATOM     52  C   UNL     1       2.637   0.549  28.264  0.00  0.00    +0.092 A 
ATOM     53  C   UNL     1       6.024   0.091  25.747  0.00  0.00    +0.214 A 
BRANCH  43  55
ATOM     54  C   UNL     1       5.244  -3.242  27.414  0.00  0.00    +0.015 A 
ATOM     55  C   UNL     1       6.011  -2.312  26.661  0.00  0.00    +0.025 A 
ATOM     56  C   UNL     1       7.272  -2.749  26.234  0.00  0.00    +0.060 A 
ATOM     57  C   UNL     1       7.742  -4.016  26.579  0.00  0.00    +0.159 A 
ATOM     58  C   UNL     1       6.997  -4.877  27.378  0.00  0.00    +0.158 A 
ATOM     59  C   UNL     1       5.734  -4.502  27.781  0.00  0.00    +0.050 A 
BRANCH  58  60
ATOM     60  O   UNL     1       7.566  -6.057  27.757  0.00  0.00    -0.503 OA
ATOM     61  H   UNL     1       7.887  -5.960  28.671  0.00  0.00    +0.292 HD
ENDBRANCH  58  60
BRANCH  57  62
ATOM     62  O   UNL     1       8.980  -4.402  26.147  0.00  0.00    -0.503 OA
ATOM     63  H   UNL     1       9.076  -5.329  26.454  0.00  0.00    +0.292 HD
ENDBRANCH  57  62
ENDBRANCH  43  55
BRANCH  49  64
ATOM     64  O   UNL     1       0.966   1.816  29.363  0.00  0.00    -0.507 OA
ATOM     65  H   UNL     1       0.663   2.737  29.450  0.00  0.00    +0.292 HD
ENDBRANCH  49  64
BRANCH  47  66
ATOM     66  O   UNL     1       3.746   3.944  26.175  0.00  0.00    -0.506 OA
ATOM     67  H   UNL     1       3.489   3.848  25.232  0.00  0.00    +0.292 HD
ENDBRANCH  47  66
ENDBRANCH  42  53
ENDBRANCH   1  42
TORSDOF 22
ENDMDL
MODEL 4
REMARK VINA RESULT:      -7.2      1.791      8.835
REMARK  Name = 
REMARK  22 active torsions:
REMARK  status: ('A' for Active; 'I' for Inactive)
REMARK    1  A    between atoms: C_3  and  O_58
REMARK    2  A    between atoms: C_4  and  O_57
REMARK    3  A    between atoms: C_6  and  C_7
REMARK    4  A    between atoms: C_8  and  O_20
REMARK    5  A    between atoms: C_12  and  O_19
REMARK    6  A    between atoms: C_14  and  O_18
REMARK    7  A    between atoms: O_20  and  C_21
REMARK    8  A    between atoms: C_23  and  O_45
REMARK    9  A    between atoms: C_24  and  O_44
REMARK   10  A    between atoms: C_26  and  O_43
REMARK   11  A    between atoms: C_28  and  C_30
REMARK   12  A    between atoms: C_30  and  O_31
REMARK   13  A    between atoms: O_31  and  C_32
REMARK   14  A    between atoms: C_32  and  C_34
REMARK   15  A    between atoms: C_36  and  O_42
REMARK   16  A    between atoms: C_37  and  O_41
REMARK   17  A    between atoms: C_38  and  O_40
REMARK   18  A    between atoms: O_45  and  C_46
REMARK   19  A    between atoms: C_46  and  C_48
REMARK   20  A    between atoms: C_50  and  O_56
REMARK   21  A    between atoms: C_51  and  O_55
REMARK   22  A    between atoms: C_52  and  O_54
REMARK                            x       y       z     vdW  Elec       q    Type
REMARK                         _______ _______ _______ _____ _____    ______ ____
ROOT
ATOM      1  C   UNL     1       5.235  -0.081  25.837  0.00  0.00    +0.352 C 
ATOM      2  O   UNL     1       4.458   1.088  25.444  0.00  0.00    -0.329 OA
ATOM      3  C   UNL     1       3.647   1.756  26.430  0.00  0.00    +0.191 C 
ATOM      4  C   UNL     1       2.867   0.827  27.377  0.00  0.00    +0.179 C 
ATOM      5  C   UNL     1       3.661  -0.418  27.752  0.00  0.00    +0.192 C 
ATOM      6  C   UNL     1       4.258  -1.080  26.462  0.00  0.00    +0.276 C 
ENDROOT
BRANCH   5   7
ATOM      7  O   UNL     1       4.588   0.041  28.750  0.00  0.00    -0.385 OA
ATOM      8  H   UNL     1       5.496  -0.005  28.394  0.00  0.00    +0.210 HD
ENDBRANCH   5   7
BRANCH   4   9
ATOM      9  O   UNL     1       2.504   1.578  28.551  0.00  0.00    -0.386 OA
ATOM     10  H   UNL     1       2.240   0.908  29.218  0.00  0.00    +0.210 HD
ENDBRANCH   4   9
BRANCH   6  11
ATOM     11  O   UNL     1       4.831  -2.375  26.765  0.00  0.00    -0.449 OA
BRANCH  11  12
ATOM     12  C   UNL     1       4.165  -3.560  26.667  0.00  0.00    +0.340 C 
ATOM     13  O   UNL     1       3.437  -4.060  27.509  0.00  0.00    -0.245 OA
BRANCH  12  14
ATOM     14  C   UNL     1       4.419  -4.142  25.290  0.00  0.00    +0.066 A 
ATOM     15  C   UNL     1       4.326  -5.543  25.174  0.00  0.00    +0.064 A 
ATOM     16  C   UNL     1       4.610  -6.176  23.977  0.00  0.00    +0.163 A 
ATOM     17  C   UNL     1       4.952  -5.455  22.856  0.00  0.00    +0.201 A 
ATOM     18  C   UNL     1       5.020  -4.061  22.935  0.00  0.00    +0.163 A 
ATOM     19  C   UNL     1       4.760  -3.400  24.150  0.00  0.00    +0.064 A 
BRANCH  18  20
ATOM     20  O   UNL     1       5.353  -3.424  21.762  0.00  0.00    -0.503 OA
ATOM     21  H   UNL     1       6.045  -3.925  21.299  0.00  0.00    +0.292 HD
ENDBRANCH  18  20
BRANCH  17  22
ATOM     22  O   UNL     1       5.210  -6.126  21.700  0.00  0.00    -0.501 OA
ATOM     23  H   UNL     1       5.830  -6.841  21.948  0.00  0.00    +0.292 HD
ENDBRANCH  17  22
BRANCH  16  24
ATOM     24  O   UNL     1       4.549  -7.536  23.943  0.00  0.00    -0.503 OA
ATOM     25  H   UNL     1       3.831  -7.742  23.314  0.00  0.00    +0.292 HD
ENDBRANCH  16  24
ENDBRANCH  12  14
ENDBRANCH  11  12
ENDBRANCH   6  11
BRANCH   3  26
ATOM     26  C   UNL     1       2.549   2.643  25.773  0.00  0.00    +0.266 C 
BRANCH  26  27
ATOM     27  O   UNL     1       2.833   2.970  24.416  0.00  0.00    -0.458 OA
BRANCH  27  28
ATOM     28  C   UNL     1       3.521   4.130  24.276  0.00  0.00    +0.340 C 
ATOM     29  O   UNL     1       3.217   5.234  24.696  0.00  0.00    -0.245 OA
BRANCH  28  30
ATOM     30  C   UNL     1       4.729   3.854  23.489  0.00  0.00    +0.066 A 
ATOM     31  C   UNL     1       5.096   2.518  23.306  0.00  0.00    +0.064 A 
ATOM     32  C   UNL     1       6.244   2.239  22.589  0.00  0.00    +0.163 A 
ATOM     33  C   UNL     1       7.001   3.269  22.040  0.00  0.00    +0.201 A 
ATOM     34  C   UNL     1       6.619   4.597  22.208  0.00  0.00    +0.163 A 
ATOM     35  C   UNL     1       5.479   4.905  22.934  0.00  0.00    +0.064 A 
BRANCH  34  36
ATOM     36  O   UNL     1       7.402   5.564  21.642  0.00  0.00    -0.503 OA
ATOM     37  H   UNL     1       8.258   5.577  22.105  0.00  0.00    +0.292 HD
ENDBRANCH  34  36
BRANCH  33  38
ATOM     38  O   UNL     1       8.133   2.958  21.338  0.00  0.00    -0.501 OA
ATOM     39  H   UNL     1       8.861   3.287  21.904  0.00  0.00    +0.292 HD
ENDBRANCH  33  38
BRANCH  32  40
ATOM     40  O   UNL     1       6.636   0.942  22.436  0.00  0.00    -0.503 OA
ATOM     41  H   UNL     1       5.895   0.415  22.793  0.00  0.00    +0.292 HD
ENDBRANCH  32  40
ENDBRANCH  28  30
ENDBRANCH  27  28
ENDBRANCH  26  27
ENDBRANCH   3  26
BRANCH   1  42
ATOM     42  O   UNL     1       6.330   0.270  26.726  0.00  0.00    -0.452 OA
BRANCH  42  53
ATOM     43  C   UNL     1       8.444   0.004  25.506  0.00  0.00    +0.181 A 
ATOM     44  O   UNL     1       9.500   0.577  24.784  0.00  0.00    -0.451 OA
ATOM     45  C   UNL     1       9.568   1.921  24.563  0.00  0.00    +0.147 A 
ATOM     46  C   UNL     1       8.737   2.819  25.205  0.00  0.00    +0.109 A 
ATOM     47  C   UNL     1       8.913   4.197  24.980  0.00  0.00    +0.135 A 
ATOM     48  C   UNL     1       9.884   4.663  24.088  0.00  0.00    +0.091 A 
ATOM     49  C   UNL     1      10.677   3.745  23.418  0.00  0.00    +0.124 A 
ATOM     50  C   UNL     1       7.681   2.258  26.060  0.00  0.00    +0.238 A 
ATOM     51  O   UNL     1       6.939   3.042  26.636  0.00  0.00    -0.283 OA
ATOM     52  C   UNL     1      10.534   2.379  23.656  0.00  0.00    +0.092 A 
ATOM     53  C   UNL     1       7.524   0.756  26.171  0.00  0.00    +0.214 A 
BRANCH  43  55
ATOM     54  C   UNL     1       8.650  -2.044  24.063  0.00  0.00    +0.015 A 
ATOM     55  C   UNL     1       8.471  -1.492  25.360  0.00  0.00    +0.025 A 
ATOM     56  C   UNL     1       8.248  -2.406  26.398  0.00  0.00    +0.060 A 
ATOM     57  C   UNL     1       8.170  -3.774  26.139  0.00  0.00    +0.159 A 
ATOM     58  C   UNL     1       8.277  -4.279  24.848  0.00  0.00    +0.158 A 
ATOM     59  C   UNL     1       8.540  -3.417  23.805  0.00  0.00    +0.050 A 
BRANCH  58  60
ATOM     60  O   UNL     1       8.086  -5.616  24.662  0.00  0.00    -0.503 OA
ATOM     61  H   UNL     1       8.946  -6.020  24.450  0.00  0.00    +0.292 HD
ENDBRANCH  58  60
BRANCH  57  62
ATOM     62  O   UNL     1       7.946  -4.632  27.180  0.00  0.00    -0.503 OA
ATOM     63  H   UNL     1       8.369  -4.205  27.955  0.00  0.00    +0.292 HD
ENDBRANCH  57  62
ENDBRANCH  43  55
BRANCH  49  64
ATOM     64  O   UNL     1      11.619   4.145  22.514  0.00  0.00    -0.507 OA
ATOM     65  H   UNL     1      11.239   4.837  21.944  0.00  0.00    +0.292 HD
ENDBRANCH  49  64
BRANCH  47  66
ATOM     66  O   UNL     1       8.170   5.169  25.593  0.00  0.00    -0.506 OA
ATOM     67  H   UNL     1       8.666   5.504  26.372  0.00  0.00    +0.292 HD
ENDBRANCH  47  66
ENDBRANCH  42  53
ENDBRANCH   1  42
TORSDOF 22
ENDMDL
MODEL 5
REMARK VINA RESULT:      -7.1      1.725      5.529
REMARK  Name = 
REMARK  22 active torsions:
REMARK  status: ('A' for Active; 'I' for Inactive)
REMARK    1  A    between atoms: C_3  and  O_58
REMARK    2  A    between atoms: C_4  and  O_57
REMARK    3  A    between atoms: C_6  and  C_7
REMARK    4  A    between atoms: C_8  and  O_20
REMARK    5  A    between atoms: C_12  and  O_19
REMARK    6  A    between atoms: C_14  and  O_18
REMARK    7  A    between atoms: O_20  and  C_21
REMARK    8  A    between atoms: C_23  and  O_45
REMARK    9  A    between atoms: C_24  and  O_44
REMARK   10  A    between atoms: C_26  and  O_43
REMARK   11  A    between atoms: C_28  and  C_30
REMARK   12  A    between atoms: C_30  and  O_31
REMARK   13  A    between atoms: O_31  and  C_32
REMARK   14  A    between atoms: C_32  and  C_34
REMARK   15  A    between atoms: C_36  and  O_42
REMARK   16  A    between atoms: C_37  and  O_41
REMARK   17  A    between atoms: C_38  and  O_40
REMARK   18  A    between atoms: O_45  and  C_46
REMARK   19  A    between atoms: C_46  and  C_48
REMARK   20  A    between atoms: C_50  and  O_56
REMARK   21  A    between atoms: C_51  and  O_55
REMARK   22  A    between atoms: C_52  and  O_54
REMARK                            x       y       z     vdW  Elec       q    Type
REMARK                         _______ _______ _______ _____ _____    ______ ____
ROOT
ATOM      1  C   UNL     1       6.166   0.039  26.783  0.00  0.00    +0.352 C 
ATOM      2  O   UNL     1       5.443  -0.686  27.820  0.00  0.00    -0.329 OA
ATOM      3  C   UNL     1       4.231  -0.122  28.358  0.00  0.00    +0.191 C 
ATOM      4  C   UNL     1       4.276   1.392  28.627  0.00  0.00    +0.179 C 
ATOM      5  C   UNL     1       5.071   2.146  27.568  0.00  0.00    +0.192 C 
ATOM      6  C   UNL     1       6.450   1.440  27.331  0.00  0.00    +0.276 C 
ENDROOT
BRANCH   5   7
ATOM      7  O   UNL     1       4.172   2.237  26.450  0.00  0.00    -0.385 OA
ATOM      8  H   UNL     1       4.442   1.596  25.765  0.00  0.00    +0.210 HD
ENDBRANCH   5   7
BRANCH   4   9
ATOM      9  O   UNL     1       2.923   1.880  28.699  0.00  0.00    -0.386 OA
ATOM     10  H   UNL     1       2.973   2.712  29.217  0.00  0.00    +0.210 HD
ENDBRANCH   4   9
BRANCH   6  11
ATOM     11  O   UNL     1       7.308   2.253  26.493  0.00  0.00    -0.449 OA
BRANCH  11  12
ATOM     12  C   UNL     1       7.402   3.610  26.566  0.00  0.00    +0.340 C 
ATOM     13  O   UNL     1       7.554   4.279  27.575  0.00  0.00    -0.245 OA
BRANCH  12  14
ATOM     14  C   UNL     1       7.358   4.172  25.157  0.00  0.00    +0.066 A 
ATOM     15  C   UNL     1       8.567   4.687  24.650  0.00  0.00    +0.064 A 
ATOM     16  C   UNL     1       8.613   5.287  23.403  0.00  0.00    +0.163 A 
ATOM     17  C   UNL     1       7.493   5.361  22.608  0.00  0.00    +0.201 A 
ATOM     18  C   UNL     1       6.287   4.828  23.075  0.00  0.00    +0.163 A 
ATOM     19  C   UNL     1       6.213   4.238  24.350  0.00  0.00    +0.064 A 
BRANCH  18  20
ATOM     20  O   UNL     1       5.226   4.933  22.206  0.00  0.00    -0.503 OA
ATOM     21  H   UNL     1       5.540   4.845  21.290  0.00  0.00    +0.292 HD
ENDBRANCH  18  20
BRANCH  17  22
ATOM     22  O   UNL     1       7.596   5.951  21.385  0.00  0.00    -0.501 OA
ATOM     23  H   UNL     1       8.466   5.670  21.035  0.00  0.00    +0.292 HD
ENDBRANCH  17  22
BRANCH  16  24
ATOM     24  O   UNL     1       9.802   5.810  22.990  0.00  0.00    -0.503 OA
ATOM     25  H   UNL     1       9.661   6.776  22.976  0.00  0.00    +0.292 HD
ENDBRANCH  16  24
ENDBRANCH  12  14
ENDBRANCH  11  12
ENDBRANCH   6  11
BRANCH   3  26
ATOM     26  C   UNL     1       3.863  -0.746  29.736  0.00  0.00    +0.266 C 
BRANCH  26  27
ATOM     27  O   UNL     1       4.192  -2.129  29.829  0.00  0.00    -0.458 OA
BRANCH  27  28
ATOM     28  C   UNL     1       3.289  -2.938  29.222  0.00  0.00    +0.340 C 
ATOM     29  O   UNL     1       2.137  -2.677  28.921  0.00  0.00    -0.245 OA
BRANCH  28  30
ATOM     30  C   UNL     1       3.924  -4.240  28.990  0.00  0.00    +0.066 A 
ATOM     31  C   UNL     1       3.151  -5.387  29.193  0.00  0.00    +0.064 A 
ATOM     32  C   UNL     1       3.738  -6.624  29.003  0.00  0.00    +0.163 A 
ATOM     33  C   UNL     1       5.064  -6.719  28.592  0.00  0.00    +0.201 A 
ATOM     34  C   UNL     1       5.823  -5.574  28.371  0.00  0.00    +0.163 A 
ATOM     35  C   UNL     1       5.262  -4.321  28.568  0.00  0.00    +0.064 A 
BRANCH  34  36
ATOM     36  O   UNL     1       7.118  -5.733  27.966  0.00  0.00    -0.503 OA
ATOM     37  H   UNL     1       7.117  -6.029  27.039  0.00  0.00    +0.292 HD
ENDBRANCH  34  36
BRANCH  33  38
ATOM     38  O   UNL     1       5.616  -7.959  28.415  0.00  0.00    -0.501 OA
ATOM     39  H   UNL     1       4.843  -8.543  28.268  0.00  0.00    +0.292 HD
ENDBRANCH  33  38
BRANCH  32  40
ATOM     40  O   UNL     1       3.009  -7.752  29.235  0.00  0.00    -0.503 OA
ATOM     41  H   UNL     1       3.258  -8.361  28.513  0.00  0.00    +0.292 HD
ENDBRANCH  32  40
ENDBRANCH  28  30
ENDBRANCH  27  28
ENDBRANCH  26  27
ENDBRANCH   3  26
BRANCH   1  42
ATOM     42  O   UNL     1       5.435   0.060  25.528  0.00  0.00    -0.452 OA
BRANCH  42  53
ATOM     43  C   UNL     1       6.653  -1.043  23.704  0.00  0.00    +0.181 A 
ATOM     44  O   UNL     1       6.932  -2.204  22.970  0.00  0.00    -0.451 OA
ATOM     45  C   UNL     1       6.313  -3.388  23.241  0.00  0.00    +0.147 A 
ATOM     46  C   UNL     1       5.231  -3.477  24.096  0.00  0.00    +0.109 A 
ATOM     47  C   UNL     1       4.598  -4.721  24.273  0.00  0.00    +0.135 A 
ATOM     48  C   UNL     1       5.074  -5.869  23.632  0.00  0.00    +0.091 A 
ATOM     49  C   UNL     1       6.188  -5.769  22.814  0.00  0.00    +0.124 A 
ATOM     50  C   UNL     1       4.838  -2.251  24.806  0.00  0.00    +0.238 A 
ATOM     51  O   UNL     1       3.881  -2.315  25.566  0.00  0.00    -0.283 OA
ATOM     52  C   UNL     1       6.805  -4.536  22.606  0.00  0.00    +0.092 A 
ATOM     53  C   UNL     1       5.636  -0.980  24.607  0.00  0.00    +0.214 A 
BRANCH  43  55
ATOM     54  C   UNL     1       7.398   0.907  22.302  0.00  0.00    +0.015 A 
ATOM     55  C   UNL     1       7.662   0.025  23.384  0.00  0.00    +0.025 A 
ATOM     56  C   UNL     1       8.902   0.174  24.019  0.00  0.00    +0.060 A 
ATOM     57  C   UNL     1       9.824   1.118  23.568  0.00  0.00    +0.159 A 
ATOM     58  C   UNL     1       9.566   1.919  22.461  0.00  0.00    +0.158 A 
ATOM     59  C   UNL     1       8.341   1.833  21.836  0.00  0.00    +0.050 A 
BRANCH  58  60
ATOM     60  O   UNL     1      10.557   2.744  22.018  0.00  0.00    -0.503 OA
ATOM     61  H   UNL     1      10.612   3.505  22.622  0.00  0.00    +0.292 HD
ENDBRANCH  58  60
BRANCH  57  62
ATOM     62  O   UNL     1      11.025   1.229  24.212  0.00  0.00    -0.503 OA
ATOM     63  H   UNL     1      11.589   1.754  23.605  0.00  0.00    +0.292 HD
ENDBRANCH  57  62
ENDBRANCH  43  55
BRANCH  49  64
ATOM     64  O   UNL     1       6.712  -6.864  22.188  0.00  0.00    -0.507 OA
ATOM     65  H   UNL     1       6.448  -7.665  22.676  0.00  0.00    +0.292 HD
ENDBRANCH  49  64
BRANCH  47  66
ATOM     66  O   UNL     1       3.499  -4.910  25.066  0.00  0.00    -0.506 OA
ATOM     67  H   UNL     1       3.406  -4.140  25.668  0.00  0.00    +0.292 HD
ENDBRANCH  47  66
ENDBRANCH  42  53
ENDBRANCH   1  42
TORSDOF 22
ENDMDL
MODEL 6
REMARK VINA RESULT:      -7.1      2.019      5.848
REMARK  Name = 
REMARK  22 active torsions:
REMARK  status: ('A' for Active; 'I' for Inactive)
REMARK    1  A    between atoms: C_3  and  O_58
REMARK    2  A    between atoms: C_4  and  O_57
REMARK    3  A    between atoms: C_6  and  C_7
REMARK    4  A    between atoms: C_8  and  O_20
REMARK    5  A    between atoms: C_12  and  O_19
REMARK    6  A    between atoms: C_14  and  O_18
REMARK    7  A    between atoms: O_20  and  C_21
REMARK    8  A    between atoms: C_23  and  O_45
REMARK    9  A    between atoms: C_24  and  O_44
REMARK   10  A    between atoms: C_26  and  O_43
REMARK   11  A    between atoms: C_28  and  C_30
REMARK   12  A    between atoms: C_30  and  O_31
REMARK   13  A    between atoms: O_31  and  C_32
REMARK   14  A    between atoms: C_32  and  C_34
REMARK   15  A    between atoms: C_36  and  O_42
REMARK   16  A    between atoms: C_37  and  O_41
REMARK   17  A    between atoms: C_38  and  O_40
REMARK   18  A    between atoms: O_45  and  C_46
REMARK   19  A    between atoms: C_46  and  C_48
REMARK   20  A    between atoms: C_50  and  O_56
REMARK   21  A    between atoms: C_51  and  O_55
REMARK   22  A    between atoms: C_52  and  O_54
REMARK                            x       y       z     vdW  Elec       q    Type
REMARK                         _______ _______ _______ _____ _____    ______ ____
ROOT
ATOM      1  C   UNL     1       5.675  -0.781  26.683  0.00  0.00    +0.352 C 
ATOM      2  O   UNL     1       5.092  -1.247  27.935  0.00  0.00    -0.329 OA
ATOM      3  C   UNL     1       3.947  -0.559  28.477  0.00  0.00    +0.191 C 
ATOM      4  C   UNL     1       4.006   0.977  28.396  0.00  0.00    +0.179 C 
ATOM      5  C   UNL     1       4.658   1.465  27.107  0.00  0.00    +0.192 C 
ATOM      6  C   UNL     1       6.006   0.702  26.868  0.00  0.00    +0.276 C 
ENDROOT
BRANCH   5   7
ATOM      7  O   UNL     1       3.629   1.319  26.114  0.00  0.00    -0.385 OA
ATOM      8  H   UNL     1       3.511   2.166  25.645  0.00  0.00    +0.210 HD
ENDBRANCH   5   7
BRANCH   4   9
ATOM      9  O   UNL     1       2.667   1.489  28.521  0.00  0.00    -0.386 OA
ATOM     10  H   UNL     1       2.435   1.383  29.469  0.00  0.00    +0.210 HD
ENDBRANCH   4   9
BRANCH   6  11
ATOM     11  O   UNL     1       6.747   1.295  25.773  0.00  0.00    -0.449 OA
BRANCH  11  12
ATOM     12  C   UNL     1       8.062   1.058  25.508  0.00  0.00    +0.340 C 
ATOM     13  O   UNL     1       8.661   0.006  25.666  0.00  0.00    -0.245 OA
BRANCH  12  14
ATOM     14  C   UNL     1       8.667   2.313  24.908  0.00  0.00    +0.066 A 
ATOM     15  C   UNL     1       8.014   3.526  25.203  0.00  0.00    +0.064 A 
ATOM     16  C   UNL     1       8.446   4.717  24.644  0.00  0.00    +0.163 A 
ATOM     17  C   UNL     1       9.545   4.756  23.818  0.00  0.00    +0.201 A 
ATOM     18  C   UNL     1      10.230   3.571  23.534  0.00  0.00    +0.163 A 
ATOM     19  C   UNL     1       9.792   2.346  24.072  0.00  0.00    +0.064 A 
BRANCH  18  20
ATOM     20  O   UNL     1      11.326   3.710  22.714  0.00  0.00    -0.503 OA
ATOM     21  H   UNL     1      11.797   4.533  22.930  0.00  0.00    +0.292 HD
ENDBRANCH  18  20
BRANCH  17  22
ATOM     22  O   UNL     1       9.935   5.956  23.304  0.00  0.00    -0.501 OA
ATOM     23  H   UNL     1       9.400   6.626  23.776  0.00  0.00    +0.292 HD
ENDBRANCH  17  22
BRANCH  16  24
ATOM     24  O   UNL     1       7.743   5.848  24.930  0.00  0.00    -0.503 OA
ATOM     25  H   UNL     1       7.646   6.309  24.074  0.00  0.00    +0.292 HD
ENDBRANCH  16  24
ENDBRANCH  12  14
ENDBRANCH  11  12
ENDBRANCH   6  11
BRANCH   3  26
ATOM     26  C   UNL     1       3.756  -0.856  29.993  0.00  0.00    +0.266 C 
BRANCH  26  27
ATOM     27  O   UNL     1       3.985  -2.222  30.328  0.00  0.00    -0.458 OA
BRANCH  27  28
ATOM     28  C   UNL     1       3.066  -3.066  29.797  0.00  0.00    +0.340 C 
ATOM     29  O   UNL     1       1.866  -2.884  29.678  0.00  0.00    -0.245 OA
BRANCH  28  30
ATOM     30  C   UNL     1       3.755  -4.295  29.388  0.00  0.00    +0.066 A 
ATOM     31  C   UNL     1       3.086  -5.508  29.569  0.00  0.00    +0.064 A 
ATOM     32  C   UNL     1       3.728  -6.679  29.212  0.00  0.00    +0.163 A 
ATOM     33  C   UNL     1       5.005  -6.643  28.660  0.00  0.00    +0.201 A 
ATOM     34  C   UNL     1       5.659  -5.431  28.463  0.00  0.00    +0.163 A 
ATOM     35  C   UNL     1       5.042  -4.242  28.824  0.00  0.00    +0.064 A 
BRANCH  34  36
ATOM     36  O   UNL     1       6.910  -5.460  27.914  0.00  0.00    -0.503 OA
ATOM     37  H   UNL     1       7.529  -5.811  28.577  0.00  0.00    +0.292 HD
ENDBRANCH  34  36
BRANCH  33  38
ATOM     38  O   UNL     1       5.613  -7.821  28.320  0.00  0.00    -0.501 OA
ATOM     39  H   UNL     1       6.548  -7.689  28.583  0.00  0.00    +0.292 HD
ENDBRANCH  33  38
BRANCH  32  40
ATOM     40  O   UNL     1       3.103  -7.874  29.420  0.00  0.00    -0.503 OA
ATOM     41  H   UNL     1       2.261  -7.800  28.931  0.00  0.00    +0.292 HD
ENDBRANCH  32  40
ENDBRANCH  28  30
ENDBRANCH  27  28
ENDBRANCH  26  27
ENDBRANCH   3  26
BRANCH   1  42
ATOM     42  O   UNL     1       4.796  -1.027  25.552  0.00  0.00    -0.452 OA
BRANCH  42  53
ATOM     43  C   UNL     1       5.499  -3.142  24.523  0.00  0.00    +0.181 A 
ATOM     44  O   UNL     1       5.300  -4.517  24.337  0.00  0.00    -0.451 OA
ATOM     45  C   UNL     1       4.252  -5.172  24.912  0.00  0.00    +0.147 A 
ATOM     46  C   UNL     1       3.211  -4.504  25.527  0.00  0.00    +0.109 A 
ATOM     47  C   UNL     1       2.127  -5.244  26.036  0.00  0.00    +0.135 A 
ATOM     48  C   UNL     1       2.111  -6.640  25.966  0.00  0.00    +0.091 A 
ATOM     49  C   UNL     1       3.186  -7.296  25.386  0.00  0.00    +0.124 A 
ATOM     50  C   UNL     1       3.332  -3.044  25.646  0.00  0.00    +0.238 A 
ATOM     51  O   UNL     1       2.417  -2.438  26.187  0.00  0.00    -0.283 OA
ATOM     52  C   UNL     1       4.251  -6.573  24.851  0.00  0.00    +0.092 A 
ATOM     53  C   UNL     1       4.578  -2.350  25.138  0.00  0.00    +0.214 A 
BRANCH  43  55
ATOM     54  C   UNL     1       6.945  -1.744  23.014  0.00  0.00    +0.015 A 
ATOM     55  C   UNL     1       6.859  -2.745  24.018  0.00  0.00    +0.025 A 
ATOM     56  C   UNL     1       8.065  -3.347  24.400  0.00  0.00    +0.060 A 
ATOM     57  C   UNL     1       9.265  -2.994  23.783  0.00  0.00    +0.159 A 
ATOM     58  C   UNL     1       9.307  -2.061  22.752  0.00  0.00    +0.158 A 
ATOM     59  C   UNL     1       8.149  -1.415  22.377  0.00  0.00    +0.050 A 
BRANCH  58  60
ATOM     60  O   UNL     1      10.501  -1.845  22.129  0.00  0.00    -0.503 OA
ATOM     61  H   UNL     1      10.337  -1.782  21.172  0.00  0.00    +0.292 HD
ENDBRANCH  58  60
BRANCH  57  62
ATOM     62  O   UNL     1      10.419  -3.608  24.181  0.00  0.00    -0.503 OA
ATOM     63  H   UNL     1      11.078  -2.885  24.252  0.00  0.00    +0.292 HD
ENDBRANCH  57  62
ENDBRANCH  43  55
BRANCH  49  64
ATOM     64  O   UNL     1       3.235  -8.658  25.319  0.00  0.00    -0.507 OA
ATOM     65  H   UNL     1       4.134  -8.955  25.546  0.00  0.00    +0.292 HD
ENDBRANCH  49  64
BRANCH  47  66
ATOM     66  O   UNL     1       1.031  -4.677  26.628  0.00  0.00    -0.506 OA
ATOM     67  H   UNL     1       1.292  -4.322  27.506  0.00  0.00    +0.292 HD
ENDBRANCH  47  66
ENDBRANCH  42  53
ENDBRANCH   1  42
TORSDOF 22
ENDMDL
MODEL 7
REMARK VINA RESULT:      -7.1      1.509      8.228
REMARK  Name = 
REMARK  22 active torsions:
REMARK  status: ('A' for Active; 'I' for Inactive)
REMARK    1  A    between atoms: C_3  and  O_58
REMARK    2  A    between atoms: C_4  and  O_57
REMARK    3  A    between atoms: C_6  and  C_7
REMARK    4  A    between atoms: C_8  and  O_20
REMARK    5  A    between atoms: C_12  and  O_19
REMARK    6  A    between atoms: C_14  and  O_18
REMARK    7  A    between atoms: O_20  and  C_21
REMARK    8  A    between atoms: C_23  and  O_45
REMARK    9  A    between atoms: C_24  and  O_44
REMARK   10  A    between atoms: C_26  and  O_43
REMARK   11  A    between atoms: C_28  and  C_30
REMARK   12  A    between atoms: C_30  and  O_31
REMARK   13  A    between atoms: O_31  and  C_32
REMARK   14  A    between atoms: C_32  and  C_34
REMARK   15  A    between atoms: C_36  and  O_42
REMARK   16  A    between atoms: C_37  and  O_41
REMARK   17  A    between atoms: C_38  and  O_40
REMARK   18  A    between atoms: O_45  and  C_46
REMARK   19  A    between atoms: C_46  and  C_48
REMARK   20  A    between atoms: C_50  and  O_56
REMARK   21  A    between atoms: C_51  and  O_55
REMARK   22  A    between atoms: C_52  and  O_54
REMARK                            x       y       z     vdW  Elec       q    Type
REMARK                         _______ _______ _______ _____ _____    ______ ____
ROOT
ATOM      1  C   UNL     1       7.728  -2.590  25.024  0.00  0.00    +0.352 C 
ATOM      2  O   UNL     1       8.704  -1.508  25.017  0.00  0.00    -0.329 OA
ATOM      3  C   UNL     1       9.073  -0.902  23.763  0.00  0.00    +0.191 C 
ATOM      4  C   UNL     1       9.281  -1.884  22.597  0.00  0.00    +0.179 C 
ATOM      5  C   UNL     1       8.291  -3.041  22.629  0.00  0.00    +0.192 C 
ATOM      6  C   UNL     1       8.246  -3.666  24.066  0.00  0.00    +0.276 C 
ENDROOT
BRANCH   5   7
ATOM      7  O   UNL     1       7.073  -2.478  22.113  0.00  0.00    -0.385 OA
ATOM      8  H   UNL     1       7.233  -1.554  21.845  0.00  0.00    +0.210 HD
ENDBRANCH   5   7
BRANCH   4   9
ATOM      9  O   UNL     1       9.175  -1.150  21.362  0.00  0.00    -0.386 OA
ATOM     10  H   UNL     1       8.798  -1.783  20.715  0.00  0.00    +0.210 HD
ENDBRANCH   4   9
BRANCH   6  11
ATOM     11  O   UNL     1       7.479  -4.895  24.070  0.00  0.00    -0.449 OA
BRANCH  11  12
ATOM     12  C   UNL     1       6.675  -5.311  23.051  0.00  0.00    +0.340 C 
ATOM     13  O   UNL     1       7.015  -5.551  21.904  0.00  0.00    -0.245 OA
BRANCH  12  14
ATOM     14  C   UNL     1       5.271  -5.500  23.592  0.00  0.00    +0.066 A 
ATOM     15  C   UNL     1       4.989  -6.748  24.182  0.00  0.00    +0.064 A 
ATOM     16  C   UNL     1       3.717  -7.044  24.641  0.00  0.00    +0.163 A 
ATOM     17  C   UNL     1       2.703  -6.116  24.570  0.00  0.00    +0.201 A 
ATOM     18  C   UNL     1       2.964  -4.859  24.019  0.00  0.00    +0.163 A 
ATOM     19  C   UNL     1       4.244  -4.547  23.524  0.00  0.00    +0.064 A 
BRANCH  18  20
ATOM     20  O   UNL     1       1.896  -3.992  24.006  0.00  0.00    -0.503 OA
ATOM     21  H   UNL     1       2.046  -3.275  24.645  0.00  0.00    +0.292 HD
ENDBRANCH  18  20
BRANCH  17  22
ATOM     22  O   UNL     1       1.473  -6.455  25.047  0.00  0.00    -0.501 OA
ATOM     23  H   UNL     1       0.881  -5.725  24.776  0.00  0.00    +0.292 HD
ENDBRANCH  17  22
BRANCH  16  24
ATOM     24  O   UNL     1       3.497  -8.285  25.156  0.00  0.00    -0.503 OA
ATOM     25  H   UNL     1       2.702  -8.614  24.693  0.00  0.00    +0.292 HD
ENDBRANCH  16  24
ENDBRANCH  12  14
ENDBRANCH  11  12
ENDBRANCH   6  11
BRANCH   3  26
ATOM     26  C   UNL     1      10.424  -0.135  23.865  0.00  0.00    +0.266 C 
BRANCH  26  27
ATOM     27  O   UNL     1      10.258   1.270  24.036  0.00  0.00    -0.458 OA
BRANCH  27  28
ATOM     28  C   UNL     1       9.846   1.902  22.910  0.00  0.00    +0.340 C 
ATOM     29  O   UNL     1      10.167   1.662  21.758  0.00  0.00    -0.245 OA
BRANCH  28  30
ATOM     30  C   UNL     1       8.933   2.983  23.300  0.00  0.00    +0.066 A 
ATOM     31  C   UNL     1       9.179   3.639  24.509  0.00  0.00    +0.064 A 
ATOM     32  C   UNL     1       8.316   4.644  24.905  0.00  0.00    +0.163 A 
ATOM     33  C   UNL     1       7.240   5.008  24.101  0.00  0.00    +0.201 A 
ATOM     34  C   UNL     1       7.012   4.364  22.889  0.00  0.00    +0.163 A 
ATOM     35  C   UNL     1       7.855   3.344  22.473  0.00  0.00    +0.064 A 
BRANCH  34  36
ATOM     36  O   UNL     1       5.941   4.768  22.142  0.00  0.00    -0.503 OA
ATOM     37  H   UNL     1       5.127   4.468  22.583  0.00  0.00    +0.292 HD
ENDBRANCH  34  36
BRANCH  33  38
ATOM     38  O   UNL     1       6.404   6.004  24.524  0.00  0.00    -0.501 OA
ATOM     39  H   UNL     1       6.947   6.517  25.157  0.00  0.00    +0.292 HD
ENDBRANCH  33  38
BRANCH  32  40
ATOM     40  O   UNL     1       8.521   5.267  26.101  0.00  0.00    -0.503 OA
ATOM     41  H   UNL     1       8.403   6.218  25.907  0.00  0.00    +0.292 HD
ENDBRANCH  32  40
ENDBRANCH  28  30
ENDBRANCH  27  28
ENDBRANCH  26  27
ENDBRANCH   3  26
BRANCH   1  42
ATOM     42  O   UNL     1       6.396  -2.121  24.681  0.00  0.00    -0.452 OA
BRANCH  42  53
ATOM     43  C   UNL     1       5.161  -2.139  26.803  0.00  0.00    +0.181 A 
ATOM     44  O   UNL     1       4.577  -1.433  27.864  0.00  0.00    -0.451 OA
ATOM     45  C   UNL     1       4.582  -0.071  27.905  0.00  0.00    +0.147 A 
ATOM     46  C   UNL     1       4.961   0.700  26.823  0.00  0.00    +0.109 A 
ATOM     47  C   UNL     1       4.873   2.102  26.915  0.00  0.00    +0.135 A 
ATOM     48  C   UNL     1       4.449   2.721  28.095  0.00  0.00    +0.091 A 
ATOM     49  C   UNL     1       4.117   1.933  29.186  0.00  0.00    +0.124 A 
ATOM     50  C   UNL     1       5.480  -0.011  25.646  0.00  0.00    +0.238 A 
ATOM     51  O   UNL     1       5.819   0.659  24.679  0.00  0.00    -0.283 OA
ATOM     52  C   UNL     1       4.170   0.543  29.097  0.00  0.00    +0.092 A 
ATOM     53  C   UNL     1       5.612  -1.519  25.678  0.00  0.00    +0.214 A 
BRANCH  43  55
ATOM     54  C   UNL     1       4.060  -4.320  27.398  0.00  0.00    +0.015 A 
ATOM     55  C   UNL     1       5.259  -3.599  27.147  0.00  0.00    +0.025 A 
ATOM     56  C   UNL     1       6.457  -4.304  27.326  0.00  0.00    +0.060 A 
ATOM     57  C   UNL     1       6.445  -5.627  27.767  0.00  0.00    +0.159 A 
ATOM     58  C   UNL     1       5.258  -6.284  28.074  0.00  0.00    +0.158 A 
ATOM     59  C   UNL     1       4.057  -5.639  27.869  0.00  0.00    +0.050 A 
BRANCH  58  60
ATOM     60  O   UNL     1       5.335  -7.541  28.597  0.00  0.00    -0.503 OA
ATOM     61  H   UNL     1       5.649  -8.142  27.900  0.00  0.00    +0.292 HD
ENDBRANCH  58  60
BRANCH  57  62
ATOM     62  O   UNL     1       7.636  -6.279  27.933  0.00  0.00    -0.503 OA
ATOM     63  H   UNL     1       7.399  -7.134  28.350  0.00  0.00    +0.292 HD
ENDBRANCH  57  62
ENDBRANCH  43  55
BRANCH  49  64
ATOM     64  O   UNL     1       3.726   2.487  30.371  0.00  0.00    -0.507 OA
ATOM     65  H   UNL     1       3.001   3.116  30.203  0.00  0.00    +0.292 HD
ENDBRANCH  49  64
BRANCH  47  66
ATOM     66  O   UNL     1       5.187   2.953  25.890  0.00  0.00    -0.506 OA
ATOM     67  H   UNL     1       5.817   2.503  25.286  0.00  0.00    +0.292 HD
ENDBRANCH  47  66
ENDBRANCH  42  53
ENDBRANCH   1  42
TORSDOF 22
ENDMDL
MODEL 8
REMARK VINA RESULT:      -6.8      1.874      5.445
REMARK  Name = 
REMARK  22 active torsions:
REMARK  status: ('A' for Active; 'I' for Inactive)
REMARK    1  A    between atoms: C_3  and  O_58
REMARK    2  A    between atoms: C_4  and  O_57
REMARK    3  A    between atoms: C_6  and  C_7
REMARK    4  A    between atoms: C_8  and  O_20
REMARK    5  A    between atoms: C_12  and  O_19
REMARK    6  A    between atoms: C_14  and  O_18
REMARK    7  A    between atoms: O_20  and  C_21
REMARK    8  A    between atoms: C_23  and  O_45
REMARK    9  A    between atoms: C_24  and  O_44
REMARK   10  A    between atoms: C_26  and  O_43
REMARK   11  A    between atoms: C_28  and  C_30
REMARK   12  A    between atoms: C_30  and  O_31
REMARK   13  A    between atoms: O_31  and  C_32
REMARK   14  A    between atoms: C_32  and  C_34
REMARK   15  A    between atoms: C_36  and  O_42
REMARK   16  A    between atoms: C_37  and  O_41
REMARK   17  A    between atoms: C_38  and  O_40
REMARK   18  A    between atoms: O_45  and  C_46
REMARK   19  A    between atoms: C_46  and  C_48
REMARK   20  A    between atoms: C_50  and  O_56
REMARK   21  A    between atoms: C_51  and  O_55
REMARK   22  A    between atoms: C_52  and  O_54
REMARK                            x       y       z     vdW  Elec       q    Type
REMARK                         _______ _______ _______ _____ _____    ______ ____
ROOT
ATOM      1  C   UNL     1       7.896  -0.380  22.720  0.00  0.00    +0.352 C 
ATOM      2  O   UNL     1       7.274  -1.636  22.319  0.00  0.00    -0.329 OA
ATOM      3  C   UNL     1       7.618  -2.846  23.021  0.00  0.00    +0.191 C 
ATOM      4  C   UNL     1       9.112  -3.013  23.349  0.00  0.00    +0.179 C 
ATOM      5  C   UNL     1       9.774  -1.692  23.723  0.00  0.00    +0.192 C 
ATOM      6  C   UNL     1       9.411  -0.594  22.667  0.00  0.00    +0.276 C 
ENDROOT
BRANCH   5   7
ATOM      7  O   UNL     1       9.365  -1.466  25.082  0.00  0.00    -0.385 OA
ATOM      8  H   UNL     1       9.445  -2.297  25.587  0.00  0.00    +0.210 HD
ENDBRANCH   5   7
BRANCH   4   9
ATOM      9  O   UNL     1       9.237  -3.973  24.415  0.00  0.00    -0.386 OA
ATOM     10  H   UNL     1      10.164  -4.293  24.369  0.00  0.00    +0.210 HD
ENDBRANCH   4   9
BRANCH   6  11
ATOM     11  O   UNL     1      10.197   0.605  22.879  0.00  0.00    -0.449 OA
BRANCH  11  12
ATOM     12  C   UNL     1      10.515   1.117  24.101  0.00  0.00    +0.340 C 
ATOM     13  O   UNL     1      11.060   0.527  25.020  0.00  0.00    -0.245 OA
BRANCH  12  14
ATOM     14  C   UNL     1      10.141   2.587  24.120  0.00  0.00    +0.066 A 
ATOM     15  C   UNL     1      10.994   3.460  23.415  0.00  0.00    +0.064 A 
ATOM     16  C   UNL     1      10.779   4.827  23.432  0.00  0.00    +0.163 A 
ATOM     17  C   UNL     1       9.707   5.369  24.102  0.00  0.00    +0.201 A 
ATOM     18  C   UNL     1       8.827   4.522  24.783  0.00  0.00    +0.163 A 
ATOM     19  C   UNL     1       9.042   3.132  24.799  0.00  0.00    +0.064 A 
BRANCH  18  20
ATOM     20  O   UNL     1       7.776   5.152  25.409  0.00  0.00    -0.503 OA
ATOM     21  H   UNL     1       7.059   4.515  25.570  0.00  0.00    +0.292 HD
ENDBRANCH  18  20
BRANCH  17  22
ATOM     22  O   UNL     1       9.535   6.720  24.077  0.00  0.00    -0.501 OA
ATOM     23  H   UNL     1       9.985   7.053  24.879  0.00  0.00    +0.292 HD
ENDBRANCH  17  22
BRANCH  16  24
ATOM     24  O   UNL     1      11.667   5.621  22.771  0.00  0.00    -0.503 OA
ATOM     25  H   UNL     1      11.404   5.567  21.832  0.00  0.00    +0.292 HD
ENDBRANCH  16  24
ENDBRANCH  12  14
ENDBRANCH  11  12
ENDBRANCH   6  11
BRANCH   3  26
ATOM     26  C   UNL     1       7.262  -4.117  22.194  0.00  0.00    +0.266 C 
BRANCH  26  27
ATOM     27  O   UNL     1       6.865  -5.219  23.005  0.00  0.00    -0.458 OA
BRANCH  27  28
ATOM     28  C   UNL     1       5.554  -5.187  23.349  0.00  0.00    +0.340 C 
ATOM     29  O   UNL     1       4.620  -4.759  22.693  0.00  0.00    -0.245 OA
BRANCH  28  30
ATOM     30  C   UNL     1       5.421  -5.750  24.698  0.00  0.00    +0.066 A 
ATOM     31  C   UNL     1       6.485  -5.572  25.586  0.00  0.00    +0.064 A 
ATOM     32  C   UNL     1       6.389  -6.115  26.854  0.00  0.00    +0.163 A 
ATOM     33  C   UNL     1       5.242  -6.803  27.241  0.00  0.00    +0.201 A 
ATOM     34  C   UNL     1       4.177  -6.959  26.359  0.00  0.00    +0.163 A 
ATOM     35  C   UNL     1       4.254  -6.435  25.077  0.00  0.00    +0.064 A 
BRANCH  34  36
ATOM     36  O   UNL     1       3.078  -7.642  26.799  0.00  0.00    -0.503 OA
ATOM     37  H   UNL     1       3.307  -8.585  26.864  0.00  0.00    +0.292 HD
ENDBRANCH  34  36
BRANCH  33  38
ATOM     38  O   UNL     1       5.180  -7.330  28.502  0.00  0.00    -0.501 OA
ATOM     39  H   UNL     1       5.891  -6.864  28.989  0.00  0.00    +0.292 HD
ENDBRANCH  33  38
BRANCH  32  40
ATOM     40  O   UNL     1       7.435  -5.984  27.718  0.00  0.00    -0.503 OA
ATOM     41  H   UNL     1       7.104  -5.387  28.417  0.00  0.00    +0.292 HD
ENDBRANCH  32  40
ENDBRANCH  28  30
ENDBRANCH  27  28
ENDBRANCH  26  27
ENDBRANCH   3  26
BRANCH   1  42
ATOM     42  O   UNL     1       7.433   0.061  24.024  0.00  0.00    -0.452 OA
BRANCH  42  53
ATOM     43  C   UNL     1       5.305   0.774  25.020  0.00  0.00    +0.181 A 
ATOM     44  O   UNL     1       4.321   1.759  25.184  0.00  0.00    -0.451 OA
ATOM     45  C   UNL     1       4.403   2.964  24.553  0.00  0.00    +0.147 A 
ATOM     46  C   UNL     1       5.327   3.215  23.556  0.00  0.00    +0.109 A 
ATOM     47  C   UNL     1       5.306   4.460  22.899  0.00  0.00    +0.135 A 
ATOM     48  C   UNL     1       4.395   5.454  23.269  0.00  0.00    +0.091 A 
ATOM     49  C   UNL     1       3.506   5.201  24.302  0.00  0.00    +0.124 A 
ATOM     50  C   UNL     1       6.313   2.160  23.278  0.00  0.00    +0.238 A 
ATOM     51  O   UNL     1       7.136   2.368  22.397  0.00  0.00    -0.283 OA
ATOM     52  C   UNL     1       3.497   3.961  24.939  0.00  0.00    +0.092 A 
ATOM     53  C   UNL     1       6.301   0.888  24.098  0.00  0.00    +0.214 A 
BRANCH  43  55
ATOM     54  C   UNL     1       5.087  -1.668  25.577  0.00  0.00    +0.015 A 
ATOM     55  C   UNL     1       5.112  -0.321  26.031  0.00  0.00    +0.025 A 
ATOM     56  C   UNL     1       4.866  -0.121  27.396  0.00  0.00    +0.060 A 
ATOM     57  C   UNL     1       4.576  -1.198  28.233  0.00  0.00    +0.159 A 
ATOM     58  C   UNL     1       4.488  -2.498  27.745  0.00  0.00    +0.158 A 
ATOM     59  C   UNL     1       4.766  -2.742  26.418  0.00  0.00    +0.050 A 
BRANCH  58  60
ATOM     60  O   UNL     1       4.098  -3.482  28.605  0.00  0.00    -0.503 OA
ATOM     61  H   UNL     1       4.896  -3.928  28.939  0.00  0.00    +0.292 HD
ENDBRANCH  58  60
BRANCH  57  62
ATOM     62  O   UNL     1       4.337  -0.960  29.558  0.00  0.00    -0.503 OA
ATOM     63  H   UNL     1       4.750  -0.088  29.736  0.00  0.00    +0.292 HD
ENDBRANCH  57  62
ENDBRANCH  43  55
BRANCH  49  64
ATOM     64  O   UNL     1       2.617   6.148  24.722  0.00  0.00    -0.507 OA
ATOM     65  H   UNL     1       2.709   6.264  25.685  0.00  0.00    +0.292 HD
ENDBRANCH  49  64
BRANCH  47  66
ATOM     66  O   UNL     1       6.151   4.794  21.876  0.00  0.00    -0.506 OA
ATOM     67  H   UNL     1       6.705   5.554  22.158  0.00  0.00    +0.292 HD
ENDBRANCH  47  66
ENDBRANCH  42  53
ENDBRANCH   1  42
TORSDOF 22
ENDMDL
MODEL 9
REMARK VINA RESULT:      -6.8      1.587      4.614
REMARK  Name = 
REMARK  22 active torsions:
REMARK  status: ('A' for Active; 'I' for Inactive)
REMARK    1  A    between atoms: C_3  and  O_58
REMARK    2  A    between atoms: C_4  and  O_57
REMARK    3  A    between atoms: C_6  and  C_7
REMARK    4  A    between atoms: C_8  and  O_20
REMARK    5  A    between atoms: C_12  and  O_19
REMARK    6  A    between atoms: C_14  and  O_18
REMARK    7  A    between atoms: O_20  and  C_21
REMARK    8  A    between atoms: C_23  and  O_45
REMARK    9  A    between atoms: C_24  and  O_44
REMARK   10  A    between atoms: C_26  and  O_43
REMARK   11  A    between atoms: C_28  and  C_30
REMARK   12  A    between atoms: C_30  and  O_31
REMARK   13  A    between atoms: O_31  and  C_32
REMARK   14  A    between atoms: C_32  and  C_34
REMARK   15  A    between atoms: C_36  and  O_42
REMARK   16  A    between atoms: C_37  and  O_41
REMARK   17  A    between atoms: C_38  and  O_40
REMARK   18  A    between atoms: O_45  and  C_46
REMARK   19  A    between atoms: C_46  and  C_48
REMARK   20  A    between atoms: C_50  and  O_56
REMARK   21  A    between atoms: C_51  and  O_55
REMARK   22  A    between atoms: C_52  and  O_54
REMARK                            x       y       z     vdW  Elec       q    Type
REMARK                         _______ _______ _______ _____ _____    ______ ____
ROOT
ATOM      1  C   UNL     1       7.337  -0.476  23.817  0.00  0.00    +0.352 C 
ATOM      2  O   UNL     1       6.952  -1.750  23.223  0.00  0.00    -0.329 OA
ATOM      3  C   UNL     1       7.726  -2.928  23.522  0.00  0.00    +0.191 C 
ATOM      4  C   UNL     1       9.251  -2.726  23.532  0.00  0.00    +0.179 C 
ATOM      5  C   UNL     1       9.653  -1.374  24.110  0.00  0.00    +0.192 C 
ATOM      6  C   UNL     1       8.803  -0.236  23.448  0.00  0.00    +0.276 C 
ENDROOT
BRANCH   5   7
ATOM      7  O   UNL     1       9.534  -1.548  25.531  0.00  0.00    -0.385 OA
ATOM      8  H   UNL     1       8.750  -1.063  25.852  0.00  0.00    +0.210 HD
ENDBRANCH   5   7
BRANCH   4   9
ATOM      9  O   UNL     1       9.846  -3.803  24.280  0.00  0.00    -0.386 OA
ATOM     10  H   UNL     1       9.617  -4.620  23.787  0.00  0.00    +0.210 HD
ENDBRANCH   4   9
BRANCH   6  11
ATOM     11  O   UNL     1       9.312   1.069  23.819  0.00  0.00    -0.449 OA
BRANCH  11  12
ATOM     12  C   UNL     1       9.530   2.093  22.946  0.00  0.00    +0.340 C 
ATOM     13  O   UNL     1      10.267   2.078  21.973  0.00  0.00    -0.245 OA
BRANCH  12  14
ATOM     14  C   UNL     1       8.644   3.259  23.340  0.00  0.00    +0.066 A 
ATOM     15  C   UNL     1       8.825   3.775  24.638  0.00  0.00    +0.064 A 
ATOM     16  C   UNL     1       8.016   4.791  25.116  0.00  0.00    +0.163 A 
ATOM     17  C   UNL     1       7.040   5.352  24.327  0.00  0.00    +0.201 A 
ATOM     18  C   UNL     1       6.860   4.881  23.023  0.00  0.00    +0.163 A 
ATOM     19  C   UNL     1       7.655   3.831  22.526  0.00  0.00    +0.064 A 
BRANCH  18  20
ATOM     20  O   UNL     1       5.872   5.513  22.303  0.00  0.00    -0.503 OA
ATOM     21  H   UNL     1       5.007   5.128  22.522  0.00  0.00    +0.292 HD
ENDBRANCH  18  20
BRANCH  17  22
ATOM     22  O   UNL     1       6.279   6.357  24.842  0.00  0.00    -0.501 OA
ATOM     23  H   UNL     1       5.408   6.273  24.406  0.00  0.00    +0.292 HD
ENDBRANCH  17  22
BRANCH  16  24
ATOM     24  O   UNL     1       8.210   5.212  26.397  0.00  0.00    -0.503 OA
ATOM     25  H   UNL     1       7.874   6.129  26.415  0.00  0.00    +0.292 HD
ENDBRANCH  16  24
ENDBRANCH  12  14
ENDBRANCH  11  12
ENDBRANCH   6  11
BRANCH   3  26
ATOM     26  C   UNL     1       7.495  -4.056  22.474  0.00  0.00    +0.266 C 
BRANCH  26  27
ATOM     27  O   UNL     1       6.964  -5.249  23.044  0.00  0.00    -0.458 OA
BRANCH  27  28
ATOM     28  C   UNL     1       5.734  -5.568  22.571  0.00  0.00    +0.340 C 
ATOM     29  O   UNL     1       5.421  -5.834  21.423  0.00  0.00    -0.245 OA
BRANCH  28  30
ATOM     30  C   UNL     1       4.787  -5.524  23.692  0.00  0.00    +0.066 A 
ATOM     31  C   UNL     1       3.988  -4.385  23.824  0.00  0.00    +0.064 A 
ATOM     32  C   UNL     1       3.107  -4.314  24.887  0.00  0.00    +0.163 A 
ATOM     33  C   UNL     1       3.003  -5.368  25.789  0.00  0.00    +0.201 A 
ATOM     34  C   UNL     1       3.786  -6.509  25.640  0.00  0.00    +0.163 A 
ATOM     35  C   UNL     1       4.688  -6.600  24.590  0.00  0.00    +0.064 A 
BRANCH  34  36
ATOM     36  O   UNL     1       3.636  -7.512  26.556  0.00  0.00    -0.503 OA
ATOM     37  H   UNL     1       2.799  -7.973  26.374  0.00  0.00    +0.292 HD
ENDBRANCH  34  36
BRANCH  33  38
ATOM     38  O   UNL     1       2.123  -5.265  26.831  0.00  0.00    -0.501 OA
ATOM     39  H   UNL     1       1.517  -6.024  26.705  0.00  0.00    +0.292 HD
ENDBRANCH  33  38
BRANCH  32  40
ATOM     40  O   UNL     1       2.349  -3.192  25.052  0.00  0.00    -0.503 OA
ATOM     41  H   UNL     1       2.931  -2.458  24.774  0.00  0.00    +0.292 HD
ENDBRANCH  32  40
ENDBRANCH  28  30
ENDBRANCH  27  28
ENDBRANCH  26  27
ENDBRANCH   3  26
BRANCH   1  42
ATOM     42  O   UNL     1       7.103  -0.454  25.250  0.00  0.00    -0.452 OA
BRANCH  42  53
ATOM     43  C   UNL     1       5.102  -1.147  26.491  0.00  0.00    +0.181 A 
ATOM     44  O   UNL     1       3.893  -0.810  27.115  0.00  0.00    -0.451 OA
ATOM     45  C   UNL     1       3.429   0.472  27.129  0.00  0.00    +0.147 A 
ATOM     46  C   UNL     1       3.994   1.471  26.359  0.00  0.00    +0.109 A 
ATOM     47  C   UNL     1       3.417   2.754  26.371  0.00  0.00    +0.135 A 
ATOM     48  C   UNL     1       2.313   3.041  27.179  0.00  0.00    +0.091 A 
ATOM     49  C   UNL     1       1.788   2.038  27.980  0.00  0.00    +0.124 A 
ATOM     50  C   UNL     1       5.206   1.126  25.602  0.00  0.00    +0.238 A 
ATOM     51  O   UNL     1       5.716   2.000  24.915  0.00  0.00    -0.283 OA
ATOM     52  C   UNL     1       2.331   0.754  27.954  0.00  0.00    +0.092 A 
ATOM     53  C   UNL     1       5.795  -0.264  25.722  0.00  0.00    +0.214 A 
BRANCH  43  55
ATOM     54  C   UNL     1       4.875  -3.158  27.985  0.00  0.00    +0.015 A 
ATOM     55  C   UNL     1       5.502  -2.548  26.865  0.00  0.00    +0.025 A 
ATOM     56  C   UNL     1       6.517  -3.287  26.243  0.00  0.00    +0.060 A 
ATOM     57  C   UNL     1       6.900  -4.532  26.742  0.00  0.00    +0.159 A 
ATOM     58  C   UNL     1       6.316  -5.071  27.884  0.00  0.00    +0.158 A 
ATOM     59  C   UNL     1       5.284  -4.395  28.498  0.00  0.00    +0.050 A 
BRANCH  58  60
ATOM     60  O   UNL     1       6.815  -6.244  28.369  0.00  0.00    -0.503 OA
ATOM     61  H   UNL     1       7.627  -6.046  28.868  0.00  0.00    +0.292 HD
ENDBRANCH  58  60
BRANCH  57  62
ATOM     62  O   UNL     1       7.898  -5.219  26.109  0.00  0.00    -0.503 OA
ATOM     63  H   UNL     1       8.724  -4.753  26.362  0.00  0.00    +0.292 HD
ENDBRANCH  57  62
ENDBRANCH  43  55
BRANCH  49  64
ATOM     64  O   UNL     1       0.730   2.272  28.810  0.00  0.00    -0.507 OA
ATOM     65  H   UNL     1       0.881   1.811  29.654  0.00  0.00    +0.292 HD
ENDBRANCH  49  64
BRANCH  47  66
ATOM     66  O   UNL     1       3.875   3.801  25.618  0.00  0.00    -0.506 OA
ATOM     67  H   UNL     1       4.418   4.389  26.187  0.00  0.00    +0.292 HD
ENDBRANCH  47  66
ENDBRANCH  42  53
ENDBRANCH   1  42
TORSDOF 22
ENDMDL
