MODEL 1
REMARK VINA RESULT:      -7.5      0.000      0.000
REMARK  Name = 
REMARK  10 active torsions:
REMARK  status: ('A' for Active; 'I' for Inactive)
REMARK    1  A    between atoms: C_2  and  O_35
REMARK    2  A    between atoms: C_4  and  O_34
REMARK    3  A    between atoms: C_6  and  O_33
REMARK    4  A    between atoms: C_8  and  O_11
REMARK    5  A    between atoms: O_11  and  C_12
REMARK    6  A    between atoms: C_13  and  C_25
REMARK    7  A    between atoms: C_17  and  O_24
REMARK    8  A    between atoms: C_19  and  O_23
REMARK    9  A    between atoms: C_27  and  O_32
REMARK   10  A    between atoms: C_28  and  O_31
REMARK                            x       y       z     vdW  Elec       q    Type
REMARK                         _______ _______ _______ _____ _____    ______ ____
ROOT
ATOM      1  C   UNL     1       8.960  -2.004  23.517  0.00  0.00    +0.214 A 
ATOM      2  C   UNL     1       9.485  -0.796  22.818  0.00  0.00    +0.238 A 
ATOM      3  O   UNL     1      10.238  -0.878  21.855  0.00  0.00    -0.283 OA
ATOM      4  C   UNL     1       9.134   0.508  23.395  0.00  0.00    +0.109 A 
ATOM      5  C   UNL     1       8.707   0.524  24.721  0.00  0.00    +0.147 A 
ATOM      6  C   UNL     1       8.454   1.742  25.356  0.00  0.00    +0.092 A 
ATOM      7  C   UNL     1       8.629   2.931  24.650  0.00  0.00    +0.124 A 
ATOM      8  C   UNL     1       9.030   2.926  23.319  0.00  0.00    +0.091 A 
ATOM      9  O   UNL     1       8.543  -0.625  25.463  0.00  0.00    -0.451 OA
ATOM     10  C   UNL     1       9.276   1.711  22.686  0.00  0.00    +0.135 A 
ATOM     11  C   UNL     1       8.601  -1.853  24.812  0.00  0.00    +0.181 A 
ENDROOT
BRANCH  11  12
ATOM     12  C   UNL     1       8.240  -3.007  25.694  0.00  0.00    +0.025 A 
ATOM     13  C   UNL     1       9.116  -4.099  25.845  0.00  0.00    +0.015 A 
ATOM     14  C   UNL     1       8.785  -5.194  26.657  0.00  0.00    +0.050 A 
ATOM     15  C   UNL     1       7.571  -5.201  27.326  0.00  0.00    +0.158 A 
ATOM     16  C   UNL     1       6.678  -4.148  27.174  0.00  0.00    +0.159 A 
ATOM     17  C   UNL     1       6.995  -3.067  26.353  0.00  0.00    +0.060 A 
BRANCH  15  18
ATOM     18  O   UNL     1       7.258  -6.251  28.140  0.00  0.00    -0.503 OA
ATOM     19  H   UNL     1       6.282  -6.223  28.206  0.00  0.00    +0.292 HD
ENDBRANCH  15  18
BRANCH  16  20
ATOM     20  O   UNL     1       5.494  -4.213  27.854  0.00  0.00    -0.503 OA
ATOM     21  H   UNL     1       4.792  -4.432  27.216  0.00  0.00    +0.292 HD
ENDBRANCH  16  20
ENDBRANCH  11  12
BRANCH   7  22
ATOM     22  O   UNL     1       8.414   4.144  25.225  0.00  0.00    -0.507 OA
ATOM     23  H   UNL     1       7.470   4.251  25.403  0.00  0.00    +0.292 HD
ENDBRANCH   7  22
BRANCH  10  24
ATOM     24  O   UNL     1       9.625   1.711  21.367  0.00  0.00    -0.506 OA
ATOM     25  H   UNL     1       8.829   1.672  20.814  0.00  0.00    +0.292 HD
ENDBRANCH  10  24
BRANCH   1  26
ATOM     26  O   UNL     1       8.939  -3.238  22.877  0.00  0.00    -0.453 OA
BRANCH  26  29
ATOM     27  C   UNL     1       5.412  -2.965  22.018  0.00  0.00    +0.198 C 
ATOM     28  O   UNL     1       6.663  -2.652  22.638  0.00  0.00    -0.337 OA
ATOM     29  C   UNL     1       7.666  -3.639  22.347  0.00  0.00    +0.339 C 
ATOM     30  C   UNL     1       7.273  -5.009  22.948  0.00  0.00    +0.214 C 
ATOM     31  C   UNL     1       5.871  -5.388  22.427  0.00  0.00    +0.180 C 
ATOM     32  C   UNL     1       4.862  -4.250  22.630  0.00  0.00    +0.171 C 
BRANCH  30  33
ATOM     33  O   UNL     1       8.246  -6.005  22.575  0.00  0.00    -0.383 OA
ATOM     34  H   UNL     1       7.986  -6.847  22.989  0.00  0.00    +0.210 HD
ENDBRANCH  30  33
BRANCH  31  35
ATOM     35  O   UNL     1       5.433  -6.611  23.032  0.00  0.00    -0.386 OA
ATOM     36  H   UNL     1       5.846  -6.670  23.915  0.00  0.00    +0.210 HD
ENDBRANCH  31  35
BRANCH  32  37
ATOM     37  O   UNL     1       4.623  -4.061  24.033  0.00  0.00    -0.387 OA
ATOM     38  H   UNL     1       3.823  -4.571  24.268  0.00  0.00    +0.210 HD
ENDBRANCH  32  37
ENDBRANCH  26  29
ENDBRANCH   1  26
TORSDOF 10
ENDMDL
MODEL 2
REMARK VINA RESULT:      -7.5      2.379      7.540
REMARK  Name = 
REMARK  10 active torsions:
REMARK  status: ('A' for Active; 'I' for Inactive)
REMARK    1  A    between atoms: C_2  and  O_35
REMARK    2  A    between atoms: C_4  and  O_34
REMARK    3  A    between atoms: C_6  and  O_33
REMARK    4  A    between atoms: C_8  and  O_11
REMARK    5  A    between atoms: O_11  and  C_12
REMARK    6  A    between atoms: C_13  and  C_25
REMARK    7  A    between atoms: C_17  and  O_24
REMARK    8  A    between atoms: C_19  and  O_23
REMARK    9  A    between atoms: C_27  and  O_32
REMARK   10  A    between atoms: C_28  and  O_31
REMARK                            x       y       z     vdW  Elec       q    Type
REMARK                         _______ _______ _______ _____ _____    ______ ____
ROOT
ATOM      1  C   UNL     1       7.222  -3.742  25.633  0.00  0.00    +0.214 A 
ATOM      2  C   UNL     1       6.764  -5.033  26.224  0.00  0.00    +0.238 A 
ATOM      3  O   UNL     1       7.315  -5.535  27.196  0.00  0.00    -0.283 OA
ATOM      4  C   UNL     1       5.674  -5.730  25.529  0.00  0.00    +0.109 A 
ATOM      5  C   UNL     1       5.432  -5.374  24.205  0.00  0.00    +0.147 A 
ATOM      6  C   UNL     1       4.476  -6.069  23.460  0.00  0.00    +0.092 A 
ATOM      7  C   UNL     1       3.770  -7.111  24.057  0.00  0.00    +0.124 A 
ATOM      8  C   UNL     1       3.984  -7.459  25.386  0.00  0.00    +0.091 A 
ATOM      9  O   UNL     1       6.122  -4.366  23.568  0.00  0.00    -0.451 OA
ATOM     10  C   UNL     1       4.933  -6.761  26.127  0.00  0.00    +0.135 A 
ATOM     11  C   UNL     1       6.939  -3.535  24.327  0.00  0.00    +0.181 A 
ENDROOT
BRANCH  11  12
ATOM     12  C   UNL     1       7.495  -2.382  23.550  0.00  0.00    +0.025 A 
ATOM     13  C   UNL     1       6.786  -1.169  23.456  0.00  0.00    +0.015 A 
ATOM     14  C   UNL     1       7.287  -0.085  22.721  0.00  0.00    +0.050 A 
ATOM     15  C   UNL     1       8.507  -0.210  22.074  0.00  0.00    +0.158 A 
ATOM     16  C   UNL     1       9.214  -1.403  22.130  0.00  0.00    +0.159 A 
ATOM     17  C   UNL     1       8.710  -2.490  22.844  0.00  0.00    +0.060 A 
BRANCH  15  18
ATOM     18  O   UNL     1       9.012   0.852  21.382  0.00  0.00    -0.503 OA
ATOM     19  H   UNL     1       9.189   1.527  22.068  0.00  0.00    +0.292 HD
ENDBRANCH  15  18
BRANCH  16  20
ATOM     20  O   UNL     1      10.409  -1.469  21.468  0.00  0.00    -0.503 OA
ATOM     21  H   UNL     1      11.077  -1.010  22.006  0.00  0.00    +0.292 HD
ENDBRANCH  16  20
ENDBRANCH  11  12
BRANCH   7  22
ATOM     22  O   UNL     1       2.841  -7.832  23.374  0.00  0.00    -0.507 OA
ATOM     23  H   UNL     1       2.183  -7.231  22.999  0.00  0.00    +0.292 HD
ENDBRANCH   7  22
BRANCH  10  24
ATOM     24  O   UNL     1       5.107  -7.077  27.444  0.00  0.00    -0.506 OA
ATOM     25  H   UNL     1       5.787  -7.762  27.532  0.00  0.00    +0.292 HD
ENDBRANCH  10  24
BRANCH   1  26
ATOM     26  O   UNL     1       7.984  -2.853  26.381  0.00  0.00    -0.453 OA
BRANCH  26  29
ATOM     27  C   UNL     1       5.074  -1.011  27.559  0.00  0.00    +0.198 C 
ATOM     28  O   UNL     1       5.866  -1.869  26.732  0.00  0.00    -0.337 OA
ATOM     29  C   UNL     1       7.241  -1.893  27.148  0.00  0.00    +0.339 C 
ATOM     30  C   UNL     1       7.885  -0.497  26.979  0.00  0.00    +0.214 C 
ATOM     31  C   UNL     1       7.031   0.533  27.747  0.00  0.00    +0.180 C 
ATOM     32  C   UNL     1       5.545   0.429  27.376  0.00  0.00    +0.171 C 
BRANCH  30  33
ATOM     33  O   UNL     1       9.237  -0.518  27.478  0.00  0.00    -0.383 OA
ATOM     34  H   UNL     1       9.388   0.309  27.969  0.00  0.00    +0.210 HD
ENDBRANCH  30  33
BRANCH  31  35
ATOM     35  O   UNL     1       7.546   1.854  27.540  0.00  0.00    -0.386 OA
ATOM     36  H   UNL     1       7.549   2.025  26.578  0.00  0.00    +0.210 HD
ENDBRANCH  31  35
BRANCH  32  37
ATOM     37  O   UNL     1       5.359   0.836  26.012  0.00  0.00    -0.387 OA
ATOM     38  H   UNL     1       5.158   0.034  25.489  0.00  0.00    +0.210 HD
ENDBRANCH  32  37
ENDBRANCH  26  29
ENDBRANCH   1  26
TORSDOF 10
ENDMDL
MODEL 3
REMARK VINA RESULT:      -7.4      2.074      3.160
REMARK  Name = 
REMARK  10 active torsions:
REMARK  status: ('A' for Active; 'I' for Inactive)
REMARK    1  A    between atoms: C_2  and  O_35
REMARK    2  A    between atoms: C_4  and  O_34
REMARK    3  A    between atoms: C_6  and  O_33
REMARK    4  A    between atoms: C_8  and  O_11
REMARK    5  A    between atoms: O_11  and  C_12
REMARK    6  A    between atoms: C_13  and  C_25
REMARK    7  A    between atoms: C_17  and  O_24
REMARK    8  A    between atoms: C_19  and  O_23
REMARK    9  A    between atoms: C_27  and  O_32
REMARK   10  A    between atoms: C_28  and  O_31
REMARK                            x       y       z     vdW  Elec       q    Type
REMARK                         _______ _______ _______ _____ _____    ______ ____
ROOT
ATOM      1  C   UNL     1       7.774  -3.048  24.708  0.00  0.00    +0.214 A 
ATOM      2  C   UNL     1       8.994  -2.581  23.988  0.00  0.00    +0.238 A 
ATOM      3  O   UNL     1      10.065  -3.169  24.074  0.00  0.00    -0.283 OA
ATOM      4  C   UNL     1       8.880  -1.321  23.242  0.00  0.00    +0.109 A 
ATOM      5  C   UNL     1       7.825  -0.476  23.574  0.00  0.00    +0.147 A 
ATOM      6  C   UNL     1       7.721   0.780  22.970  0.00  0.00    +0.092 A 
ATOM      7  C   UNL     1       8.677   1.168  22.033  0.00  0.00    +0.124 A 
ATOM      8  C   UNL     1       9.720   0.323  21.673  0.00  0.00    +0.091 A 
ATOM      9  O   UNL     1       6.872  -0.810  24.511  0.00  0.00    -0.451 OA
ATOM     10  C   UNL     1       9.818  -0.929  22.273  0.00  0.00    +0.135 A 
ATOM     11  C   UNL     1       6.836  -2.115  24.989  0.00  0.00    +0.181 A 
ENDROOT
BRANCH  11  12
ATOM     12  C   UNL     1       5.656  -2.391  25.867  0.00  0.00    +0.025 A 
ATOM     13  C   UNL     1       5.829  -2.697  27.230  0.00  0.00    +0.015 A 
ATOM     14  C   UNL     1       4.733  -2.972  28.062  0.00  0.00    +0.050 A 
ATOM     15  C   UNL     1       3.453  -2.940  27.531  0.00  0.00    +0.158 A 
ATOM     16  C   UNL     1       3.257  -2.666  26.184  0.00  0.00    +0.159 A 
ATOM     17  C   UNL     1       4.344  -2.412  25.350  0.00  0.00    +0.060 A 
BRANCH  15  18
ATOM     18  O   UNL     1       2.382  -3.177  28.344  0.00  0.00    -0.503 OA
ATOM     19  H   UNL     1       1.763  -3.689  27.784  0.00  0.00    +0.292 HD
ENDBRANCH  15  18
BRANCH  16  20
ATOM     20  O   UNL     1       1.972  -2.654  25.717  0.00  0.00    -0.503 OA
ATOM     21  H   UNL     1       1.909  -3.302  24.993  0.00  0.00    +0.292 HD
ENDBRANCH  16  20
ENDBRANCH  11  12
BRANCH   7  22
ATOM     22  O   UNL     1       8.633   2.385  21.427  0.00  0.00    -0.507 OA
ATOM     23  H   UNL     1       7.987   2.945  21.879  0.00  0.00    +0.292 HD
ENDBRANCH   7  22
BRANCH  10  24
ATOM     24  O   UNL     1      10.818  -1.773  21.883  0.00  0.00    -0.506 OA
ATOM     25  H   UNL     1      10.483  -2.682  21.836  0.00  0.00    +0.292 HD
ENDBRANCH  10  24
BRANCH   1  26
ATOM     26  O   UNL     1       7.671  -4.364  25.144  0.00  0.00    -0.453 OA
BRANCH  26  29
ATOM     27  C   UNL     1       5.986  -5.484  22.118  0.00  0.00    +0.198 C 
ATOM     28  O   UNL     1       6.616  -4.593  23.043  0.00  0.00    -0.337 OA
ATOM     29  C   UNL     1       6.932  -5.245  24.284  0.00  0.00    +0.339 C 
ATOM     30  C   UNL     1       5.642  -5.697  25.006  0.00  0.00    +0.214 C 
ATOM     31  C   UNL     1       4.824  -6.580  24.041  0.00  0.00    +0.180 C 
ATOM     32  C   UNL     1       4.630  -5.904  22.677  0.00  0.00    +0.171 C 
BRANCH  30  33
ATOM     33  O   UNL     1       5.979  -6.422  26.205  0.00  0.00    -0.383 OA
ATOM     34  H   UNL     1       6.944  -6.371  26.324  0.00  0.00    +0.210 HD
ENDBRANCH  30  33
BRANCH  31  35
ATOM     35  O   UNL     1       3.576  -6.947  24.643  0.00  0.00    -0.386 OA
ATOM     36  H   UNL     1       2.875  -6.415  24.220  0.00  0.00    +0.210 HD
ENDBRANCH  31  35
BRANCH  32  37
ATOM     37  O   UNL     1       3.784  -4.753  22.826  0.00  0.00    -0.387 OA
ATOM     38  H   UNL     1       4.096  -4.074  22.194  0.00  0.00    +0.210 HD
ENDBRANCH  32  37
ENDBRANCH  26  29
ENDBRANCH   1  26
TORSDOF 10
ENDMDL
MODEL 4
REMARK VINA RESULT:      -7.3      1.882      4.371
REMARK  Name = 
REMARK  10 active torsions:
REMARK  status: ('A' for Active; 'I' for Inactive)
REMARK    1  A    between atoms: C_2  and  O_35
REMARK    2  A    between atoms: C_4  and  O_34
REMARK    3  A    between atoms: C_6  and  O_33
REMARK    4  A    between atoms: C_8  and  O_11
REMARK    5  A    between atoms: O_11  and  C_12
REMARK    6  A    between atoms: C_13  and  C_25
REMARK    7  A    between atoms: C_17  and  O_24
REMARK    8  A    between atoms: C_19  and  O_23
REMARK    9  A    between atoms: C_27  and  O_32
REMARK   10  A    between atoms: C_28  and  O_31
REMARK                            x       y       z     vdW  Elec       q    Type
REMARK                         _______ _______ _______ _____ _____    ______ ____
ROOT
ATOM      1  C   UNL     1       7.916  -2.643  25.056  0.00  0.00    +0.214 A 
ATOM      2  C   UNL     1       8.704  -1.435  25.433  0.00  0.00    +0.238 A 
ATOM      3  O   UNL     1       9.003  -1.190  26.596  0.00  0.00    -0.283 OA
ATOM      4  C   UNL     1       9.030  -0.493  24.354  0.00  0.00    +0.109 A 
ATOM      5  C   UNL     1       8.270  -0.570  23.190  0.00  0.00    +0.147 A 
ATOM      6  C   UNL     1       8.465   0.363  22.168  0.00  0.00    +0.092 A 
ATOM      7  C   UNL     1       9.426   1.359  22.326  0.00  0.00    +0.124 A 
ATOM      8  C   UNL     1      10.209   1.430  23.473  0.00  0.00    +0.091 A 
ATOM      9  O   UNL     1       7.293  -1.523  23.002  0.00  0.00    -0.451 OA
ATOM     10  C   UNL     1      10.017   0.497  24.487  0.00  0.00    +0.135 A 
ATOM     11  C   UNL     1       7.203  -2.573  23.909  0.00  0.00    +0.181 A 
ENDROOT
BRANCH  11  12
ATOM     12  C   UNL     1       6.221  -3.626  23.499  0.00  0.00    +0.025 A 
ATOM     13  C   UNL     1       4.868  -3.533  23.877  0.00  0.00    +0.015 A 
ATOM     14  C   UNL     1       3.939  -4.518  23.513  0.00  0.00    +0.050 A 
ATOM     15  C   UNL     1       4.360  -5.605  22.763  0.00  0.00    +0.158 A 
ATOM     16  C   UNL     1       5.694  -5.734  22.399  0.00  0.00    +0.159 A 
ATOM     17  C   UNL     1       6.625  -4.767  22.776  0.00  0.00    +0.060 A 
BRANCH  15  18
ATOM     18  O   UNL     1       3.453  -6.551  22.382  0.00  0.00    -0.503 OA
ATOM     19  H   UNL     1       4.000  -7.282  22.027  0.00  0.00    +0.292 HD
ENDBRANCH  15  18
BRANCH  16  20
ATOM     20  O   UNL     1       6.052  -6.830  21.665  0.00  0.00    -0.503 OA
ATOM     21  H   UNL     1       6.083  -6.568  20.728  0.00  0.00    +0.292 HD
ENDBRANCH  16  20
ENDBRANCH  11  12
BRANCH   7  22
ATOM     22  O   UNL     1       9.645   2.301  21.371  0.00  0.00    -0.507 OA
ATOM     23  H   UNL     1      10.594   2.362  21.193  0.00  0.00    +0.292 HD
ENDBRANCH   7  22
BRANCH  10  24
ATOM     24  O   UNL     1      10.819   0.544  25.590  0.00  0.00    -0.506 OA
ATOM     25  H   UNL     1      11.247  -0.316  25.725  0.00  0.00    +0.292 HD
ENDBRANCH  10  24
BRANCH   1  26
ATOM     26  O   UNL     1       7.855  -3.741  25.906  0.00  0.00    -0.453 OA
BRANCH  26  29
ATOM     27  C   UNL     1       4.921  -3.420  28.037  0.00  0.00    +0.198 C 
ATOM     28  O   UNL     1       6.259  -3.224  27.569  0.00  0.00    -0.337 OA
ATOM     29  C   UNL     1       6.553  -4.048  26.429  0.00  0.00    +0.339 C 
ATOM     30  C   UNL     1       6.497  -5.545  26.811  0.00  0.00    +0.214 C 
ATOM     31  C   UNL     1       5.120  -5.840  27.440  0.00  0.00    +0.180 C 
ATOM     32  C   UNL     1       4.783  -4.847  28.561  0.00  0.00    +0.171 C 
BRANCH  30  33
ATOM     33  O   UNL     1       6.711  -6.358  25.640  0.00  0.00    -0.383 OA
ATOM     34  H   UNL     1       5.949  -6.235  25.046  0.00  0.00    +0.210 HD
ENDBRANCH  30  33
BRANCH  31  35
ATOM     35  O   UNL     1       5.062  -7.199  27.889  0.00  0.00    -0.386 OA
ATOM     36  H   UNL     1       5.969  -7.561  27.857  0.00  0.00    +0.210 HD
ENDBRANCH  31  35
BRANCH  32  37
ATOM     37  O   UNL     1       5.672  -5.050  29.669  0.00  0.00    -0.387 OA
ATOM     38  H   UNL     1       6.449  -4.472  29.534  0.00  0.00    +0.210 HD
ENDBRANCH  32  37
ENDBRANCH  26  29
ENDBRANCH   1  26
TORSDOF 10
ENDMDL
MODEL 5
REMARK VINA RESULT:      -7.2      2.249      7.247
REMARK  Name = 
REMARK  10 active torsions:
REMARK  status: ('A' for Active; 'I' for Inactive)
REMARK    1  A    between atoms: C_2  and  O_35
REMARK    2  A    between atoms: C_4  and  O_34
REMARK    3  A    between atoms: C_6  and  O_33
REMARK    4  A    between atoms: C_8  and  O_11
REMARK    5  A    between atoms: O_11  and  C_12
REMARK    6  A    between atoms: C_13  and  C_25
REMARK    7  A    between atoms: C_17  and  O_24
REMARK    8  A    between atoms: C_19  and  O_23
REMARK    9  A    between atoms: C_27  and  O_32
REMARK   10  A    between atoms: C_28  and  O_31
REMARK                            x       y       z     vdW  Elec       q    Type
REMARK                         _______ _______ _______ _____ _____    ______ ____
ROOT
ATOM      1  C   UNL     1       7.971  -2.126  25.351  0.00  0.00    +0.214 A 
ATOM      2  C   UNL     1       7.471  -3.517  25.552  0.00  0.00    +0.238 A 
ATOM      3  O   UNL     1       7.597  -4.105  26.619  0.00  0.00    -0.283 OA
ATOM      4  C   UNL     1       6.901  -4.192  24.379  0.00  0.00    +0.109 A 
ATOM      5  C   UNL     1       7.224  -3.676  23.127  0.00  0.00    +0.147 A 
ATOM      6  C   UNL     1       6.793  -4.332  21.971  0.00  0.00    +0.092 A 
ATOM      7  C   UNL     1       6.039  -5.497  22.087  0.00  0.00    +0.124 A 
ATOM      8  C   UNL     1       5.688  -6.008  23.332  0.00  0.00    +0.091 A 
ATOM      9  O   UNL     1       7.986  -2.540  22.966  0.00  0.00    -0.451 OA
ATOM     10  C   UNL     1       6.113  -5.349  24.482  0.00  0.00    +0.135 A 
ATOM     11  C   UNL     1       8.268  -1.762  24.083  0.00  0.00    +0.181 A 
ENDROOT
BRANCH  11  12
ATOM     12  C   UNL     1       8.955  -0.475  23.750  0.00  0.00    +0.025 A 
ATOM     13  C   UNL     1      10.079  -0.047  24.482  0.00  0.00    +0.015 A 
ATOM     14  C   UNL     1      10.724   1.163  24.190  0.00  0.00    +0.050 A 
ATOM     15  C   UNL     1      10.246   1.955  23.157  0.00  0.00    +0.158 A 
ATOM     16  C   UNL     1       9.125   1.570  22.436  0.00  0.00    +0.159 A 
ATOM     17  C   UNL     1       8.468   0.377  22.736  0.00  0.00    +0.060 A 
BRANCH  15  18
ATOM     18  O   UNL     1      10.889   3.120  22.851  0.00  0.00    -0.503 OA
ATOM     19  H   UNL     1      10.756   3.223  21.886  0.00  0.00    +0.292 HD
ENDBRANCH  15  18
BRANCH  16  20
ATOM     20  O   UNL     1       8.696   2.394  21.433  0.00  0.00    -0.503 OA
ATOM     21  H   UNL     1       7.742   2.542  21.552  0.00  0.00    +0.292 HD
ENDBRANCH  16  20
ENDBRANCH  11  12
BRANCH   7  22
ATOM     22  O   UNL     1       5.609  -6.185  20.996  0.00  0.00    -0.507 OA
ATOM     23  H   UNL     1       4.692  -5.943  20.806  0.00  0.00    +0.292 HD
ENDBRANCH   7  22
BRANCH  10  24
ATOM     24  O   UNL     1       5.727  -5.830  25.700  0.00  0.00    -0.506 OA
ATOM     25  H   UNL     1       4.879  -5.435  25.958  0.00  0.00    +0.292 HD
ENDBRANCH  10  24
BRANCH   1  26
ATOM     26  O   UNL     1       8.202  -1.294  26.440  0.00  0.00    -0.453 OA
BRANCH  26  29
ATOM     27  C   UNL     1       4.790  -0.038  26.609  0.00  0.00    +0.198 C 
ATOM     28  O   UNL     1       6.010  -0.514  26.034  0.00  0.00    -0.337 OA
ATOM     29  C   UNL     1       7.032  -0.700  27.025  0.00  0.00    +0.339 C 
ATOM     30  C   UNL     1       7.416   0.651  27.672  0.00  0.00    +0.214 C 
ATOM     31  C   UNL     1       6.136   1.309  28.229  0.00  0.00    +0.180 C 
ATOM     32  C   UNL     1       5.020   1.359  27.177  0.00  0.00    +0.171 C 
BRANCH  30  33
ATOM     33  O   UNL     1       8.381   0.435  28.721  0.00  0.00    -0.383 OA
ATOM     34  H   UNL     1       8.084  -0.326  29.250  0.00  0.00    +0.210 HD
ENDBRANCH  30  33
BRANCH  31  35
ATOM     35  O   UNL     1       6.438   2.606  28.758  0.00  0.00    -0.386 OA
ATOM     36  H   UNL     1       6.069   2.651  29.661  0.00  0.00    +0.210 HD
ENDBRANCH  31  35
BRANCH  32  37
ATOM     37  O   UNL     1       5.391   2.261  26.123  0.00  0.00    -0.387 OA
ATOM     38  H   UNL     1       4.573   2.517  25.652  0.00  0.00    +0.210 HD
ENDBRANCH  32  37
ENDBRANCH  26  29
ENDBRANCH   1  26
TORSDOF 10
ENDMDL
MODEL 6
REMARK VINA RESULT:      -7.1      1.515      4.257
REMARK  Name = 
REMARK  10 active torsions:
REMARK  status: ('A' for Active; 'I' for Inactive)
REMARK    1  A    between atoms: C_2  and  O_35
REMARK    2  A    between atoms: C_4  and  O_34
REMARK    3  A    between atoms: C_6  and  O_33
REMARK    4  A    between atoms: C_8  and  O_11
REMARK    5  A    between atoms: O_11  and  C_12
REMARK    6  A    between atoms: C_13  and  C_25
REMARK    7  A    between atoms: C_17  and  O_24
REMARK    8  A    between atoms: C_19  and  O_23
REMARK    9  A    between atoms: C_27  and  O_32
REMARK   10  A    between atoms: C_28  and  O_31
REMARK                            x       y       z     vdW  Elec       q    Type
REMARK                         _______ _______ _______ _____ _____    ______ ____
ROOT
ATOM      1  C   UNL     1       6.654  -1.053  24.722  0.00  0.00    +0.214 A 
ATOM      2  C   UNL     1       6.994   0.374  24.995  0.00  0.00    +0.238 A 
ATOM      3  O   UNL     1       6.372   1.045  25.810  0.00  0.00    -0.283 OA
ATOM      4  C   UNL     1       8.053   0.972  24.173  0.00  0.00    +0.109 A 
ATOM      5  C   UNL     1       8.368   0.333  22.976  0.00  0.00    +0.147 A 
ATOM      6  C   UNL     1       9.296   0.907  22.103  0.00  0.00    +0.092 A 
ATOM      7  C   UNL     1       9.901   2.114  22.447  0.00  0.00    +0.124 A 
ATOM      8  C   UNL     1       9.614   2.749  23.650  0.00  0.00    +0.091 A 
ATOM      9  O   UNL     1       7.778  -0.849  22.587  0.00  0.00    -0.451 OA
ATOM     10  C   UNL     1       8.694   2.172  24.520  0.00  0.00    +0.135 A 
ATOM     11  C   UNL     1       6.999  -1.540  23.508  0.00  0.00    +0.181 A 
ENDROOT
BRANCH  11  12
ATOM     12  C   UNL     1       6.558  -2.884  23.020  0.00  0.00    +0.025 A 
ATOM     13  C   UNL     1       7.473  -3.764  22.409  0.00  0.00    +0.015 A 
ATOM     14  C   UNL     1       7.072  -5.021  21.934  0.00  0.00    +0.050 A 
ATOM     15  C   UNL     1       5.748  -5.407  22.070  0.00  0.00    +0.158 A 
ATOM     16  C   UNL     1       4.820  -4.549  22.646  0.00  0.00    +0.159 A 
ATOM     17  C   UNL     1       5.210  -3.291  23.102  0.00  0.00    +0.060 A 
BRANCH  15  18
ATOM     18  O   UNL     1       5.359  -6.642  21.636  0.00  0.00    -0.503 OA
ATOM     19  H   UNL     1       4.461  -6.499  21.273  0.00  0.00    +0.292 HD
ENDBRANCH  15  18
BRANCH  16  20
ATOM     20  O   UNL     1       3.527  -4.983  22.748  0.00  0.00    -0.503 OA
ATOM     21  H   UNL     1       3.419  -5.747  22.155  0.00  0.00    +0.292 HD
ENDBRANCH  16  20
ENDBRANCH  11  12
BRANCH   7  22
ATOM     22  O   UNL     1      10.798   2.725  21.627  0.00  0.00    -0.507 OA
ATOM     23  H   UNL     1      10.802   2.280  20.769  0.00  0.00    +0.292 HD
ENDBRANCH   7  22
BRANCH  10  24
ATOM     24  O   UNL     1       8.450   2.775  25.720  0.00  0.00    -0.506 OA
ATOM     25  H   UNL     1       8.636   3.725  25.656  0.00  0.00    +0.292 HD
ENDBRANCH  10  24
BRANCH   1  26
ATOM     26  O   UNL     1       5.934  -1.798  25.648  0.00  0.00    -0.453 OA
BRANCH  26  29
ATOM     27  C   UNL     1       8.866  -3.648  26.757  0.00  0.00    +0.198 C 
ATOM     28  O   UNL     1       8.036  -2.839  25.917  0.00  0.00    -0.337 OA
ATOM     29  C   UNL     1       6.706  -2.712  26.442  0.00  0.00    +0.339 C 
ATOM     30  C   UNL     1       5.997  -4.086  26.471  0.00  0.00    +0.214 C 
ATOM     31  C   UNL     1       6.876  -5.075  27.265  0.00  0.00    +0.180 C 
ATOM     32  C   UNL     1       8.326  -5.075  26.762  0.00  0.00    +0.171 C 
BRANCH  30  33
ATOM     33  O   UNL     1       4.696  -3.954  27.078  0.00  0.00    -0.383 OA
ATOM     34  H   UNL     1       4.037  -3.887  26.364  0.00  0.00    +0.210 HD
ENDBRANCH  30  33
BRANCH  31  35
ATOM     35  O   UNL     1       6.295  -6.384  27.238  0.00  0.00    -0.386 OA
ATOM     36  H   UNL     1       6.237  -6.664  26.304  0.00  0.00    +0.210 HD
ENDBRANCH  31  35
BRANCH  32  37
ATOM     37  O   UNL     1       8.376  -5.622  25.435  0.00  0.00    -0.387 OA
ATOM     38  H   UNL     1       8.736  -6.529  25.503  0.00  0.00    +0.210 HD
ENDBRANCH  32  37
ENDBRANCH  26  29
ENDBRANCH   1  26
TORSDOF 10
ENDMDL
MODEL 7
REMARK VINA RESULT:      -6.9      2.757      5.437
REMARK  Name = 
REMARK  10 active torsions:
REMARK  status: ('A' for Active; 'I' for Inactive)
REMARK    1  A    between atoms: C_2  and  O_35
REMARK    2  A    between atoms: C_4  and  O_34
REMARK    3  A    between atoms: C_6  and  O_33
REMARK    4  A    between atoms: C_8  and  O_11
REMARK    5  A    between atoms: O_11  and  C_12
REMARK    6  A    between atoms: C_13  and  C_25
REMARK    7  A    between atoms: C_17  and  O_24
REMARK    8  A    between atoms: C_19  and  O_23
REMARK    9  A    between atoms: C_27  and  O_32
REMARK   10  A    between atoms: C_28  and  O_31
REMARK                            x       y       z     vdW  Elec       q    Type
REMARK                         _______ _______ _______ _____ _____    ______ ____
ROOT
ATOM      1  C   UNL     1       7.911   2.275  23.708  0.00  0.00    +0.214 A 
ATOM      2  C   UNL     1       8.115   3.731  23.456  0.00  0.00    +0.238 A 
ATOM      3  O   UNL     1       7.199   4.465  23.105  0.00  0.00    -0.283 OA
ATOM      4  C   UNL     1       9.491   4.233  23.555  0.00  0.00    +0.109 A 
ATOM      5  C   UNL     1      10.519   3.297  23.472  0.00  0.00    +0.147 A 
ATOM      6  C   UNL     1      11.850   3.723  23.459  0.00  0.00    +0.092 A 
ATOM      7  C   UNL     1      12.132   5.086  23.536  0.00  0.00    +0.124 A 
ATOM      8  C   UNL     1      11.116   6.028  23.645  0.00  0.00    +0.091 A 
ATOM      9  O   UNL     1      10.285   1.944  23.371  0.00  0.00    -0.451 OA
ATOM     10  C   UNL     1       9.791   5.601  23.664  0.00  0.00    +0.135 A 
ATOM     11  C   UNL     1       8.991   1.474  23.570  0.00  0.00    +0.181 A 
ENDROOT
BRANCH  11  12
ATOM     12  C   UNL     1       8.903  -0.019  23.603  0.00  0.00    +0.025 A 
ATOM     13  C   UNL     1       9.680  -0.767  24.509  0.00  0.00    +0.015 A 
ATOM     14  C   UNL     1       9.618  -2.167  24.541  0.00  0.00    +0.050 A 
ATOM     15  C   UNL     1       8.773  -2.831  23.666  0.00  0.00    +0.158 A 
ATOM     16  C   UNL     1       8.014  -2.119  22.746  0.00  0.00    +0.159 A 
ATOM     17  C   UNL     1       8.088  -0.728  22.696  0.00  0.00    +0.060 A 
BRANCH  15  18
ATOM     18  O   UNL     1       8.688  -4.192  23.715  0.00  0.00    -0.503 OA
ATOM     19  H   UNL     1       8.288  -4.440  22.856  0.00  0.00    +0.292 HD
ENDBRANCH  15  18
BRANCH  16  20
ATOM     20  O   UNL     1       7.203  -2.828  21.904  0.00  0.00    -0.503 OA
ATOM     21  H   UNL     1       6.287  -2.534  22.050  0.00  0.00    +0.292 HD
ENDBRANCH  16  20
ENDBRANCH  11  12
BRANCH   7  22
ATOM     22  O   UNL     1      13.408   5.556  23.511  0.00  0.00    -0.507 OA
ATOM     23  H   UNL     1      13.395   6.506  23.330  0.00  0.00    +0.292 HD
ENDBRANCH   7  22
BRANCH  10  24
ATOM     24  O   UNL     1       8.800   6.526  23.817  0.00  0.00    -0.506 OA
ATOM     25  H   UNL     1       8.237   6.285  24.569  0.00  0.00    +0.292 HD
ENDBRANCH  10  24
BRANCH   1  26
ATOM     26  O   UNL     1       6.642   1.776  23.977  0.00  0.00    -0.453 OA
BRANCH  26  29
ATOM     27  C   UNL     1       6.880   2.486  27.539  0.00  0.00    +0.198 C 
ATOM     28  O   UNL     1       7.283   2.369  26.172  0.00  0.00    -0.337 OA
ATOM     29  C   UNL     1       6.260   1.768  25.362  0.00  0.00    +0.339 C 
ATOM     30  C   UNL     1       5.998   0.311  25.809  0.00  0.00    +0.214 C 
ATOM     31  C   UNL     1       5.663   0.314  27.316  0.00  0.00    +0.180 C 
ATOM     32  C   UNL     1       6.709   1.089  28.129  0.00  0.00    +0.171 C 
BRANCH  30  33
ATOM     33  O   UNL     1       4.913  -0.249  25.043  0.00  0.00    -0.383 OA
ATOM     34  H   UNL     1       4.492   0.475  24.546  0.00  0.00    +0.210 HD
ENDBRANCH  30  33
BRANCH  31  35
ATOM     35  O   UNL     1       5.500  -1.029  27.788  0.00  0.00    -0.386 OA
ATOM     36  H   UNL     1       6.193  -1.577  27.371  0.00  0.00    +0.210 HD
ENDBRANCH  31  35
BRANCH  32  37
ATOM     37  O   UNL     1       7.961   0.388  28.097  0.00  0.00    -0.387 OA
ATOM     38  H   UNL     1       7.780  -0.528  27.806  0.00  0.00    +0.210 HD
ENDBRANCH  32  37
ENDBRANCH  26  29
ENDBRANCH   1  26
TORSDOF 10
ENDMDL
MODEL 8
REMARK VINA RESULT:      -6.9      1.619      2.182
REMARK  Name = 
REMARK  10 active torsions:
REMARK  status: ('A' for Active; 'I' for Inactive)
REMARK    1  A    between atoms: C_2  and  O_35
REMARK    2  A    between atoms: C_4  and  O_34
REMARK    3  A    between atoms: C_6  and  O_33
REMARK    4  A    between atoms: C_8  and  O_11
REMARK    5  A    between atoms: O_11  and  C_12
REMARK    6  A    between atoms: C_13  and  C_25
REMARK    7  A    between atoms: C_17  and  O_24
REMARK    8  A    between atoms: C_19  and  O_23
REMARK    9  A    between atoms: C_27  and  O_32
REMARK   10  A    between atoms: C_28  and  O_31
REMARK                            x       y       z     vdW  Elec       q    Type
REMARK                         _______ _______ _______ _____ _____    ______ ____
ROOT
ATOM      1  C   UNL     1       8.230  -2.270  25.095  0.00  0.00    +0.214 A 
ATOM      2  C   UNL     1       8.918  -0.959  24.914  0.00  0.00    +0.238 A 
ATOM      3  O   UNL     1      10.067  -0.879  24.496  0.00  0.00    -0.283 OA
ATOM      4  C   UNL     1       8.188   0.238  25.351  0.00  0.00    +0.109 A 
ATOM      5  C   UNL     1       7.132   0.051  26.240  0.00  0.00    +0.147 A 
ATOM      6  C   UNL     1       6.463   1.158  26.769  0.00  0.00    +0.092 A 
ATOM      7  C   UNL     1       6.860   2.440  26.395  0.00  0.00    +0.124 A 
ATOM      8  C   UNL     1       7.896   2.639  25.489  0.00  0.00    +0.091 A 
ATOM      9  O   UNL     1       6.722  -1.196  26.655  0.00  0.00    -0.451 OA
ATOM     10  C   UNL     1       8.557   1.535  24.958  0.00  0.00    +0.135 A 
ATOM     11  C   UNL     1       7.235  -2.316  26.008  0.00  0.00    +0.181 A 
ENDROOT
BRANCH  11  12
ATOM     12  C   UNL     1       6.585  -3.595  26.435  0.00  0.00    +0.025 A 
ATOM     13  C   UNL     1       5.271  -3.903  26.034  0.00  0.00    +0.015 A 
ATOM     14  C   UNL     1       4.643  -5.090  26.437  0.00  0.00    +0.050 A 
ATOM     15  C   UNL     1       5.331  -5.981  27.246  0.00  0.00    +0.158 A 
ATOM     16  C   UNL     1       6.619  -5.690  27.677  0.00  0.00    +0.159 A 
ATOM     17  C   UNL     1       7.239  -4.501  27.294  0.00  0.00    +0.060 A 
BRANCH  15  18
ATOM     18  O   UNL     1       4.735  -7.152  27.617  0.00  0.00    -0.503 OA
ATOM     19  H   UNL     1       5.416  -7.834  27.447  0.00  0.00    +0.292 HD
ENDBRANCH  15  18
BRANCH  16  20
ATOM     20  O   UNL     1       7.246  -6.604  28.478  0.00  0.00    -0.503 OA
ATOM     21  H   UNL     1       7.825  -7.149  27.916  0.00  0.00    +0.292 HD
ENDBRANCH  16  20
ENDBRANCH  11  12
BRANCH   7  22
ATOM     22  O   UNL     1       6.256   3.552  26.892  0.00  0.00    -0.507 OA
ATOM     23  H   UNL     1       5.879   4.064  26.164  0.00  0.00    +0.292 HD
ENDBRANCH   7  22
BRANCH  10  24
ATOM     24  O   UNL     1       9.542   1.734  24.035  0.00  0.00    -0.506 OA
ATOM     25  H   UNL     1       9.352   2.531  23.516  0.00  0.00    +0.292 HD
ENDBRANCH  10  24
BRANCH   1  26
ATOM     26  O   UNL     1       8.672  -3.399  24.415  0.00  0.00    -0.453 OA
BRANCH  26  29
ATOM     27  C   UNL     1       6.265  -2.966  21.719  0.00  0.00    +0.198 C 
ATOM     28  O   UNL     1       6.888  -2.785  22.993  0.00  0.00    -0.337 OA
ATOM     29  C   UNL     1       7.990  -3.686  23.183  0.00  0.00    +0.339 C 
ATOM     30  C   UNL     1       7.499  -5.152  23.203  0.00  0.00    +0.214 C 
ATOM     31  C   UNL     1       6.705  -5.420  21.907  0.00  0.00    +0.180 C 
ATOM     32  C   UNL     1       5.629  -4.352  21.669  0.00  0.00    +0.171 C 
BRANCH  30  33
ATOM     33  O   UNL     1       8.626  -6.045  23.309  0.00  0.00    -0.383 OA
ATOM     34  H   UNL     1       9.212  -5.706  24.009  0.00  0.00    +0.210 HD
ENDBRANCH  30  33
BRANCH  31  35
ATOM     35  O   UNL     1       6.157  -6.744  21.928  0.00  0.00    -0.386 OA
ATOM     36  H   UNL     1       5.203  -6.673  21.734  0.00  0.00    +0.210 HD
ENDBRANCH  31  35
BRANCH  32  37
ATOM     37  O   UNL     1       4.611  -4.461  22.676  0.00  0.00    -0.387 OA
ATOM     38  H   UNL     1       5.007  -4.184  23.526  0.00  0.00    +0.210 HD
ENDBRANCH  32  37
ENDBRANCH  26  29
ENDBRANCH   1  26
TORSDOF 10
ENDMDL
MODEL 9
REMARK VINA RESULT:      -6.8      2.470      5.568
REMARK  Name = 
REMARK  10 active torsions:
REMARK  status: ('A' for Active; 'I' for Inactive)
REMARK    1  A    between atoms: C_2  and  O_35
REMARK    2  A    between atoms: C_4  and  O_34
REMARK    3  A    between atoms: C_6  and  O_33
REMARK    4  A    between atoms: C_8  and  O_11
REMARK    5  A    between atoms: O_11  and  C_12
REMARK    6  A    between atoms: C_13  and  C_25
REMARK    7  A    between atoms: C_17  and  O_24
REMARK    8  A    between atoms: C_19  and  O_23
REMARK    9  A    between atoms: C_27  and  O_32
REMARK   10  A    between atoms: C_28  and  O_31
REMARK                            x       y       z     vdW  Elec       q    Type
REMARK                         _______ _______ _______ _____ _____    ______ ____
ROOT
ATOM      1  C   UNL     1       8.056  -1.661  25.354  0.00  0.00    +0.214 A 
ATOM      2  C   UNL     1       8.106  -0.941  26.659  0.00  0.00    +0.238 A 
ATOM      3  O   UNL     1       9.120  -0.906  27.345  0.00  0.00    -0.283 OA
ATOM      4  C   UNL     1       6.850  -0.348  27.136  0.00  0.00    +0.109 A 
ATOM      5  C   UNL     1       5.667  -0.825  26.578  0.00  0.00    +0.147 A 
ATOM      6  C   UNL     1       4.436  -0.373  27.061  0.00  0.00    +0.092 A 
ATOM      7  C   UNL     1       4.409   0.559  28.096  0.00  0.00    +0.124 A 
ATOM      8  C   UNL     1       5.583   1.062  28.644  0.00  0.00    +0.091 A 
ATOM      9  O   UNL     1       5.647  -1.763  25.569  0.00  0.00    -0.451 OA
ATOM     10  C   UNL     1       6.808   0.615  28.158  0.00  0.00    +0.135 A 
ATOM     11  C   UNL     1       6.843  -2.091  24.940  0.00  0.00    +0.181 A 
ENDROOT
BRANCH  11  12
ATOM     12  C   UNL     1       6.662  -2.988  23.756  0.00  0.00    +0.025 A 
ATOM     13  C   UNL     1       5.821  -2.613  22.691  0.00  0.00    +0.015 A 
ATOM     14  C   UNL     1       5.630  -3.449  21.581  0.00  0.00    +0.050 A 
ATOM     15  C   UNL     1       6.284  -4.669  21.530  0.00  0.00    +0.158 A 
ATOM     16  C   UNL     1       7.100  -5.075  22.578  0.00  0.00    +0.159 A 
ATOM     17  C   UNL     1       7.276  -4.256  23.692  0.00  0.00    +0.060 A 
BRANCH  15  18
ATOM     18  O   UNL     1       6.125  -5.473  20.438  0.00  0.00    -0.503 OA
ATOM     19  H   UNL     1       5.691  -4.898  19.775  0.00  0.00    +0.292 HD
ENDBRANCH  15  18
BRANCH  16  20
ATOM     20  O   UNL     1       7.714  -6.292  22.475  0.00  0.00    -0.503 OA
ATOM     21  H   UNL     1       8.000  -6.407  21.552  0.00  0.00    +0.292 HD
ENDBRANCH  16  20
ENDBRANCH  11  12
BRANCH   7  22
ATOM     22  O   UNL     1       3.240   1.020  28.615  0.00  0.00    -0.507 OA
ATOM     23  H   UNL     1       3.218   0.838  29.564  0.00  0.00    +0.292 HD
ENDBRANCH   7  22
BRANCH  10  24
ATOM     24  O   UNL     1       7.957   1.146  28.668  0.00  0.00    -0.506 OA
ATOM     25  H   UNL     1       7.749   1.923  29.210  0.00  0.00    +0.292 HD
ENDBRANCH  10  24
BRANCH   1  26
ATOM     26  O   UNL     1       9.226  -1.949  24.661  0.00  0.00    -0.453 OA
BRANCH  26  29
ATOM     27  C   UNL     1      10.560   1.411  24.231  0.00  0.00    +0.198 C 
ATOM     28  O   UNL     1       9.851   0.322  24.831  0.00  0.00    -0.337 OA
ATOM     29  C   UNL     1       9.834  -0.838  23.985  0.00  0.00    +0.339 C 
ATOM     30  C   UNL     1       9.057  -0.549  22.679  0.00  0.00    +0.214 C 
ATOM     31  C   UNL     1       9.677   0.693  22.005  0.00  0.00    +0.180 C 
ATOM     32  C   UNL     1       9.807   1.867  22.985  0.00  0.00    +0.171 C 
BRANCH  30  33
ATOM     33  O   UNL     1       9.122  -1.694  21.806  0.00  0.00    -0.383 OA
ATOM     34  H   UNL     1       8.211  -1.936  21.561  0.00  0.00    +0.210 HD
ENDBRANCH  30  33
BRANCH  31  35
ATOM     35  O   UNL     1       8.926   1.047  20.836  0.00  0.00    -0.386 OA
ATOM     36  H   UNL     1       8.242   1.689  21.106  0.00  0.00    +0.210 HD
ENDBRANCH  31  35
BRANCH  32  37
ATOM     37  O   UNL     1       8.500   2.339  23.348  0.00  0.00    -0.387 OA
ATOM     38  H   UNL     1       7.896   2.134  22.607  0.00  0.00    +0.210 HD
ENDBRANCH  32  37
ENDBRANCH  26  29
ENDBRANCH   1  26
TORSDOF 10
ENDMDL
