MODEL 1
REMARK VINA RESULT:      -6.8      0.000      0.000
REMARK  Name = 
REMARK  7 active torsions:
REMARK  status: ('A' for Active; 'I' for Inactive)
REMARK    1  A    between atoms: C_1  and  O_2
REMARK    2  A    between atoms: O_2  and  C_3
REMARK    3  A    between atoms: C_4  and  C_16
REMARK    4  A    between atoms: C_8  and  O_15
REMARK    5  A    between atoms: C_10  and  O_14
REMARK    6  A    between atoms: C_18  and  O_23
REMARK    7  A    between atoms: C_19  and  O_22
REMARK                            x       y       z     vdW  Elec       q    Type
REMARK                         _______ _______ _______ _____ _____    ______ ____
ROOT
ATOM      1  C   UNL     1       7.995  -2.708  25.140  0.00  0.00    +0.211 A 
ATOM      2  C   UNL     1       7.252  -3.849  25.763  0.00  0.00    +0.238 A 
ATOM      3  O   UNL     1       7.395  -4.134  26.946  0.00  0.00    -0.283 OA
ATOM      4  C   UNL     1       6.296  -4.575  24.903  0.00  0.00    +0.109 A 
ATOM      5  C   UNL     1       5.980  -4.020  23.663  0.00  0.00    +0.147 A 
ATOM      6  C   UNL     1       5.031  -4.622  22.834  0.00  0.00    +0.092 A 
ATOM      7  C   UNL     1       4.409  -5.794  23.253  0.00  0.00    +0.124 A 
ATOM      8  C   UNL     1       4.727  -6.377  24.475  0.00  0.00    +0.091 A 
ATOM      9  O   UNL     1       6.563  -2.870  23.190  0.00  0.00    -0.451 OA
ATOM     10  C   UNL     1       5.673  -5.769  25.296  0.00  0.00    +0.135 A 
ATOM     11  C   UNL     1       7.577  -2.290  23.930  0.00  0.00    +0.181 A 
ENDROOT
BRANCH  11  12
ATOM     12  C   UNL     1       8.161  -1.106  23.272  0.00  0.00    +0.025 A 
ATOM     13  C   UNL     1       9.272  -1.255  22.425  0.00  0.00    +0.015 A 
ATOM     14  C   UNL     1       9.838  -0.146  21.788  0.00  0.00    +0.050 A 
ATOM     15  C   UNL     1       9.286   1.107  22.001  0.00  0.00    +0.158 A 
ATOM     16  C   UNL     1       8.187   1.269  22.841  0.00  0.00    +0.159 A 
ATOM     17  C   UNL     1       7.619   0.171  23.482  0.00  0.00    +0.060 A 
BRANCH  15  18
ATOM     18  O   UNL     1       9.832   2.190  21.372  0.00  0.00    -0.503 OA
ATOM     19  H   UNL     1      10.786   1.984  21.309  0.00  0.00    +0.292 HD
ENDBRANCH  15  18
BRANCH  16  20
ATOM     20  O   UNL     1       7.699   2.537  23.002  0.00  0.00    -0.503 OA
ATOM     21  H   UNL     1       8.190   2.963  23.725  0.00  0.00    +0.292 HD
ENDBRANCH  16  20
ENDBRANCH  11  12
BRANCH   1  23
ATOM     22  C   UNL     1       8.548  -1.063  26.762  0.00  0.00    +0.277 C 
ATOM     23  O   UNL     1       9.001  -2.035  25.824  0.00  0.00    -0.488 OA
ENDBRANCH   1  23
BRANCH   7  24
ATOM     24  O   UNL     1       3.471  -6.422  22.489  0.00  0.00    -0.507 OA
ATOM     25  H   UNL     1       2.951  -5.754  22.009  0.00  0.00    +0.292 HD
ENDBRANCH   7  24
BRANCH  10  26
ATOM     26  O   UNL     1       5.998  -6.373  26.479  0.00  0.00    -0.506 OA
ATOM     27  H   UNL     1       6.578  -7.135  26.320  0.00  0.00    +0.292 HD
ENDBRANCH  10  26
TORSDOF 6
ENDMDL
MODEL 2
REMARK VINA RESULT:      -6.8      1.839      6.811
REMARK  Name = 
REMARK  7 active torsions:
REMARK  status: ('A' for Active; 'I' for Inactive)
REMARK    1  A    between atoms: C_1  and  O_2
REMARK    2  A    between atoms: O_2  and  C_3
REMARK    3  A    between atoms: C_4  and  C_16
REMARK    4  A    between atoms: C_8  and  O_15
REMARK    5  A    between atoms: C_10  and  O_14
REMARK    6  A    between atoms: C_18  and  O_23
REMARK    7  A    between atoms: C_19  and  O_22
REMARK                            x       y       z     vdW  Elec       q    Type
REMARK                         _______ _______ _______ _____ _____    ______ ____
ROOT
ATOM      1  C   UNL     1       8.340  -3.873  24.161  0.00  0.00    +0.211 A 
ATOM      2  C   UNL     1       9.139  -2.667  23.777  0.00  0.00    +0.238 A 
ATOM      3  O   UNL     1      10.289  -2.766  23.370  0.00  0.00    -0.283 OA
ATOM      4  C   UNL     1       8.457  -1.359  23.855  0.00  0.00    +0.109 A 
ATOM      5  C   UNL     1       7.075  -1.352  24.051  0.00  0.00    +0.147 A 
ATOM      6  C   UNL     1       6.363  -0.150  24.063  0.00  0.00    +0.092 A 
ATOM      7  C   UNL     1       7.050   1.047  23.890  0.00  0.00    +0.124 A 
ATOM      8  C   UNL     1       8.430   1.064  23.717  0.00  0.00    +0.091 A 
ATOM      9  O   UNL     1       6.342  -2.499  24.234  0.00  0.00    -0.451 OA
ATOM     10  C   UNL     1       9.131  -0.138  23.704  0.00  0.00    +0.135 A 
ATOM     11  C   UNL     1       7.014  -3.705  24.325  0.00  0.00    +0.181 A 
ENDROOT
BRANCH  11  12
ATOM     12  C   UNL     1       6.113  -4.842  24.593  0.00  0.00    +0.025 A 
ATOM     13  C   UNL     1       5.270  -5.320  23.576  0.00  0.00    +0.015 A 
ATOM     14  C   UNL     1       4.412  -6.400  23.808  0.00  0.00    +0.050 A 
ATOM     15  C   UNL     1       4.405  -6.998  25.058  0.00  0.00    +0.158 A 
ATOM     16  C   UNL     1       5.233  -6.531  26.076  0.00  0.00    +0.159 A 
ATOM     17  C   UNL     1       6.088  -5.455  25.856  0.00  0.00    +0.060 A 
BRANCH  15  18
ATOM     18  O   UNL     1       3.574  -8.058  25.284  0.00  0.00    -0.503 OA
ATOM     19  H   UNL     1       4.153  -8.749  25.664  0.00  0.00    +0.292 HD
ENDBRANCH  15  18
BRANCH  16  20
ATOM     20  O   UNL     1       5.169  -7.172  27.284  0.00  0.00    -0.503 OA
ATOM     21  H   UNL     1       4.232  -7.310  27.506  0.00  0.00    +0.292 HD
ENDBRANCH  16  20
ENDBRANCH  11  12
BRANCH   1  23
ATOM     22  C   UNL     1       9.691  -5.376  25.409  0.00  0.00    +0.277 C 
ATOM     23  O   UNL     1       8.918  -5.134  24.237  0.00  0.00    -0.488 OA
ENDBRANCH   1  23
BRANCH   7  24
ATOM     24  O   UNL     1       6.407   2.248  23.887  0.00  0.00    -0.507 OA
ATOM     25  H   UNL     1       6.896   2.875  24.447  0.00  0.00    +0.292 HD
ENDBRANCH   7  24
BRANCH  10  26
ATOM     26  O   UNL     1      10.491  -0.100  23.566  0.00  0.00    -0.506 OA
ATOM     27  H   UNL     1      10.893  -0.887  23.968  0.00  0.00    +0.292 HD
ENDBRANCH  10  26
TORSDOF 6
ENDMDL
MODEL 3
REMARK VINA RESULT:      -6.6      2.305      2.760
REMARK  Name = 
REMARK  7 active torsions:
REMARK  status: ('A' for Active; 'I' for Inactive)
REMARK    1  A    between atoms: C_1  and  O_2
REMARK    2  A    between atoms: O_2  and  C_3
REMARK    3  A    between atoms: C_4  and  C_16
REMARK    4  A    between atoms: C_8  and  O_15
REMARK    5  A    between atoms: C_10  and  O_14
REMARK    6  A    between atoms: C_18  and  O_23
REMARK    7  A    between atoms: C_19  and  O_22
REMARK                            x       y       z     vdW  Elec       q    Type
REMARK                         _______ _______ _______ _____ _____    ______ ____
ROOT
ATOM      1  C   UNL     1       8.303  -1.110  24.180  0.00  0.00    +0.211 A 
ATOM      2  C   UNL     1       8.462  -2.576  24.437  0.00  0.00    +0.238 A 
ATOM      3  O   UNL     1       9.094  -2.991  25.401  0.00  0.00    -0.283 OA
ATOM      4  C   UNL     1       7.771  -3.497  23.512  0.00  0.00    +0.109 A 
ATOM      5  C   UNL     1       6.847  -2.955  22.618  0.00  0.00    +0.147 A 
ATOM      6  C   UNL     1       6.111  -3.782  21.766  0.00  0.00    +0.092 A 
ATOM      7  C   UNL     1       6.318  -5.157  21.807  0.00  0.00    +0.124 A 
ATOM      8  C   UNL     1       7.251  -5.715  22.674  0.00  0.00    +0.091 A 
ATOM      9  O   UNL     1       6.602  -1.607  22.524  0.00  0.00    -0.451 OA
ATOM     10  C   UNL     1       7.980  -4.885  23.521  0.00  0.00    +0.135 A 
ATOM     11  C   UNL     1       7.374  -0.742  23.278  0.00  0.00    +0.181 A 
ENDROOT
BRANCH  11  12
ATOM     12  C   UNL     1       7.054   0.676  23.026  0.00  0.00    +0.025 A 
ATOM     13  C   UNL     1       7.747   1.382  22.027  0.00  0.00    +0.015 A 
ATOM     14  C   UNL     1       7.456   2.725  21.770  0.00  0.00    +0.050 A 
ATOM     15  C   UNL     1       6.470   3.355  22.513  0.00  0.00    +0.158 A 
ATOM     16  C   UNL     1       5.779   2.669  23.508  0.00  0.00    +0.159 A 
ATOM     17  C   UNL     1       6.064   1.332  23.774  0.00  0.00    +0.060 A 
BRANCH  15  18
ATOM     18  O   UNL     1       6.179   4.665  22.257  0.00  0.00    -0.503 OA
ATOM     19  H   UNL     1       6.810   5.171  22.806  0.00  0.00    +0.292 HD
ENDBRANCH  15  18
BRANCH  16  20
ATOM     20  O   UNL     1       4.820   3.359  24.200  0.00  0.00    -0.503 OA
ATOM     21  H   UNL     1       4.917   3.149  25.144  0.00  0.00    +0.292 HD
ENDBRANCH  16  20
ENDBRANCH  11  12
BRANCH   1  23
ATOM     22  C   UNL     1      10.350   0.054  24.499  0.00  0.00    +0.277 C 
ATOM     23  O   UNL     1       9.004  -0.163  24.916  0.00  0.00    -0.488 OA
ENDBRANCH   1  23
BRANCH   7  24
ATOM     24  O   UNL     1       5.624  -6.012  21.004  0.00  0.00    -0.507 OA
ATOM     25  H   UNL     1       5.746  -6.922  21.325  0.00  0.00    +0.292 HD
ENDBRANCH   7  24
BRANCH  10  26
ATOM     26  O   UNL     1       8.917  -5.448  24.343  0.00  0.00    -0.506 OA
ATOM     27  H   UNL     1       8.530  -6.188  24.837  0.00  0.00    +0.292 HD
ENDBRANCH  10  26
TORSDOF 6
ENDMDL
MODEL 4
REMARK VINA RESULT:      -6.6      1.405      2.045
REMARK  Name = 
REMARK  7 active torsions:
REMARK  status: ('A' for Active; 'I' for Inactive)
REMARK    1  A    between atoms: C_1  and  O_2
REMARK    2  A    between atoms: O_2  and  C_3
REMARK    3  A    between atoms: C_4  and  C_16
REMARK    4  A    between atoms: C_8  and  O_15
REMARK    5  A    between atoms: C_10  and  O_14
REMARK    6  A    between atoms: C_18  and  O_23
REMARK    7  A    between atoms: C_19  and  O_22
REMARK                            x       y       z     vdW  Elec       q    Type
REMARK                         _______ _______ _______ _____ _____    ______ ____
ROOT
ATOM      1  C   UNL     1       7.219  -1.439  24.938  0.00  0.00    +0.211 A 
ATOM      2  C   UNL     1       6.791  -2.829  25.291  0.00  0.00    +0.238 A 
ATOM      3  O   UNL     1       6.645  -3.177  26.456  0.00  0.00    -0.283 OA
ATOM      4  C   UNL     1       6.497  -3.745  24.169  0.00  0.00    +0.109 A 
ATOM      5  C   UNL     1       6.411  -3.201  22.887  0.00  0.00    +0.147 A 
ATOM      6  C   UNL     1       6.066  -4.002  21.796  0.00  0.00    +0.092 A 
ATOM      7  C   UNL     1       5.822  -5.356  21.998  0.00  0.00    +0.124 A 
ATOM      8  C   UNL     1       5.925  -5.923  23.264  0.00  0.00    +0.091 A 
ATOM      9  O   UNL     1       6.647  -1.874  22.622  0.00  0.00    -0.451 OA
ATOM     10  C   UNL     1       6.267  -5.117  24.347  0.00  0.00    +0.135 A 
ATOM     11  C   UNL     1       7.084  -1.062  23.652  0.00  0.00    +0.181 A 
ENDROOT
BRANCH  11  12
ATOM     12  C   UNL     1       7.368   0.317  23.213  0.00  0.00    +0.025 A 
ATOM     13  C   UNL     1       6.410   1.326  23.417  0.00  0.00    +0.015 A 
ATOM     14  C   UNL     1       6.661   2.640  23.012  0.00  0.00    +0.050 A 
ATOM     15  C   UNL     1       7.871   2.939  22.406  0.00  0.00    +0.158 A 
ATOM     16  C   UNL     1       8.827   1.948  22.194  0.00  0.00    +0.159 A 
ATOM     17  C   UNL     1       8.585   0.636  22.592  0.00  0.00    +0.060 A 
BRANCH  15  18
ATOM     18  O   UNL     1       8.122   4.225  22.017  0.00  0.00    -0.503 OA
ATOM     19  H   UNL     1       7.853   4.255  21.078  0.00  0.00    +0.292 HD
ENDBRANCH  15  18
BRANCH  16  20
ATOM     20  O   UNL     1       9.997   2.320  21.589  0.00  0.00    -0.503 OA
ATOM     21  H   UNL     1      10.457   2.945  22.175  0.00  0.00    +0.292 HD
ENDBRANCH  16  20
ENDBRANCH  11  12
BRANCH   1  23
ATOM     22  C   UNL     1       8.976  -0.700  26.356  0.00  0.00    +0.277 C 
ATOM     23  O   UNL     1       7.632  -0.537  25.911  0.00  0.00    -0.488 OA
ENDBRANCH   1  23
BRANCH   7  24
ATOM     24  O   UNL     1       5.476  -6.184  20.972  0.00  0.00    -0.507 OA
ATOM     25  H   UNL     1       6.283  -6.501  20.531  0.00  0.00    +0.292 HD
ENDBRANCH   7  24
BRANCH  10  26
ATOM     26  O   UNL     1       6.397  -5.697  25.578  0.00  0.00    -0.506 OA
ATOM     27  H   UNL     1       5.776  -5.296  26.207  0.00  0.00    +0.292 HD
ENDBRANCH  10  26
TORSDOF 6
ENDMDL
MODEL 5
REMARK VINA RESULT:      -6.4      3.114      8.574
REMARK  Name = 
REMARK  7 active torsions:
REMARK  status: ('A' for Active; 'I' for Inactive)
REMARK    1  A    between atoms: C_1  and  O_2
REMARK    2  A    between atoms: O_2  and  C_3
REMARK    3  A    between atoms: C_4  and  C_16
REMARK    4  A    between atoms: C_8  and  O_15
REMARK    5  A    between atoms: C_10  and  O_14
REMARK    6  A    between atoms: C_18  and  O_23
REMARK    7  A    between atoms: C_19  and  O_22
REMARK                            x       y       z     vdW  Elec       q    Type
REMARK                         _______ _______ _______ _____ _____    ______ ____
ROOT
ATOM      1  C   UNL     1       8.147   2.581  23.856  0.00  0.00    +0.211 A 
ATOM      2  C   UNL     1       8.540   4.013  24.039  0.00  0.00    +0.238 A 
ATOM      3  O   UNL     1       7.743   4.847  24.453  0.00  0.00    -0.283 OA
ATOM      4  C   UNL     1       9.947   4.363  23.756  0.00  0.00    +0.109 A 
ATOM      5  C   UNL     1      10.855   3.321  23.567  0.00  0.00    +0.147 A 
ATOM      6  C   UNL     1      12.212   3.586  23.366  0.00  0.00    +0.092 A 
ATOM      7  C   UNL     1      12.650   4.906  23.342  0.00  0.00    +0.124 A 
ATOM      8  C   UNL     1      11.757   5.960  23.505  0.00  0.00    +0.091 A 
ATOM      9  O   UNL     1      10.484   1.999  23.573  0.00  0.00    -0.451 OA
ATOM     10  C   UNL     1      10.407   5.688  23.707  0.00  0.00    +0.135 A 
ATOM     11  C   UNL     1       9.140   1.690  23.673  0.00  0.00    +0.181 A 
ENDROOT
BRANCH  11  12
ATOM     12  C   UNL     1       8.878   0.240  23.593  0.00  0.00    +0.025 A 
ATOM     13  C   UNL     1       8.649  -0.361  22.344  0.00  0.00    +0.015 A 
ATOM     14  C   UNL     1       8.405  -1.734  22.246  0.00  0.00    +0.050 A 
ATOM     15  C   UNL     1       8.392  -2.500  23.401  0.00  0.00    +0.158 A 
ATOM     16  C   UNL     1       8.614  -1.916  24.646  0.00  0.00    +0.159 A 
ATOM     17  C   UNL     1       8.855  -0.549  24.754  0.00  0.00    +0.060 A 
BRANCH  15  18
ATOM     18  O   UNL     1       8.162  -3.843  23.307  0.00  0.00    -0.503 OA
ATOM     19  H   UNL     1       8.543  -4.217  24.126  0.00  0.00    +0.292 HD
ENDBRANCH  15  18
BRANCH  16  20
ATOM     20  O   UNL     1       8.585  -2.737  25.741  0.00  0.00    -0.503 OA
ATOM     21  H   UNL     1       7.677  -3.068  25.849  0.00  0.00    +0.292 HD
ENDBRANCH  16  20
ENDBRANCH  11  12
BRANCH   1  23
ATOM     22  C   UNL     1       6.018   2.365  22.823  0.00  0.00    +0.277 C 
ATOM     23  O   UNL     1       6.826   2.168  23.981  0.00  0.00    -0.488 OA
ENDBRANCH   1  23
BRANCH   7  24
ATOM     24  O   UNL     1      13.962   5.223  23.156  0.00  0.00    -0.507 OA
ATOM     25  H   UNL     1      14.430   4.450  22.797  0.00  0.00    +0.292 HD
ENDBRANCH   7  24
BRANCH  10  26
ATOM     26  O   UNL     1       9.540   6.737  23.832  0.00  0.00    -0.506 OA
ATOM     27  H   UNL     1       9.591   7.312  23.051  0.00  0.00    +0.292 HD
ENDBRANCH  10  26
TORSDOF 6
ENDMDL
MODEL 6
REMARK VINA RESULT:      -6.4      2.796      3.852
REMARK  Name = 
REMARK  7 active torsions:
REMARK  status: ('A' for Active; 'I' for Inactive)
REMARK    1  A    between atoms: C_1  and  O_2
REMARK    2  A    between atoms: O_2  and  C_3
REMARK    3  A    between atoms: C_4  and  C_16
REMARK    4  A    between atoms: C_8  and  O_15
REMARK    5  A    between atoms: C_10  and  O_14
REMARK    6  A    between atoms: C_18  and  O_23
REMARK    7  A    between atoms: C_19  and  O_22
REMARK                            x       y       z     vdW  Elec       q    Type
REMARK                         _______ _______ _______ _____ _____    ______ ____
ROOT
ATOM      1  C   UNL     1       9.120  -1.223  23.783  0.00  0.00    +0.211 A 
ATOM      2  C   UNL     1       9.593  -2.596  24.141  0.00  0.00    +0.238 A 
ATOM      3  O   UNL     1      10.632  -3.055  23.680  0.00  0.00    -0.283 OA
ATOM      4  C   UNL     1       8.785  -3.350  25.121  0.00  0.00    +0.109 A 
ATOM      5  C   UNL     1       7.786  -2.662  25.811  0.00  0.00    +0.147 A 
ATOM      6  C   UNL     1       7.034  -3.301  26.800  0.00  0.00    +0.092 A 
ATOM      7  C   UNL     1       7.283  -4.640  27.083  0.00  0.00    +0.124 A 
ATOM      8  C   UNL     1       8.258  -5.350  26.391  0.00  0.00    +0.091 A 
ATOM      9  O   UNL     1       7.487  -1.343  25.572  0.00  0.00    -0.451 OA
ATOM     10  C   UNL     1       9.004  -4.705  25.408  0.00  0.00    +0.135 A 
ATOM     11  C   UNL     1       8.138  -0.695  24.538  0.00  0.00    +0.181 A 
ENDROOT
BRANCH  11  12
ATOM     12  C   UNL     1       7.670   0.691  24.347  0.00  0.00    +0.025 A 
ATOM     13  C   UNL     1       8.355   1.751  24.966  0.00  0.00    +0.015 A 
ATOM     14  C   UNL     1       7.931   3.072  24.795  0.00  0.00    +0.050 A 
ATOM     15  C   UNL     1       6.824   3.327  24.002  0.00  0.00    +0.158 A 
ATOM     16  C   UNL     1       6.134   2.286  23.386  0.00  0.00    +0.159 A 
ATOM     17  C   UNL     1       6.546   0.966  23.553  0.00  0.00    +0.060 A 
BRANCH  15  18
ATOM     18  O   UNL     1       6.413   4.618  23.826  0.00  0.00    -0.503 OA
ATOM     19  H   UNL     1       5.527   4.653  24.237  0.00  0.00    +0.292 HD
ENDBRANCH  15  18
BRANCH  16  20
ATOM     20  O   UNL     1       5.049   2.616  22.619  0.00  0.00    -0.503 OA
ATOM     21  H   UNL     1       5.079   3.572  22.445  0.00  0.00    +0.292 HD
ENDBRANCH  16  20
ENDBRANCH  11  12
BRANCH   1  23
ATOM     22  C   UNL     1       9.288  -0.746  21.461  0.00  0.00    +0.277 C 
ATOM     23  O   UNL     1       9.739  -0.477  22.787  0.00  0.00    -0.488 OA
ENDBRANCH   1  23
BRANCH   7  24
ATOM     24  O   UNL     1       6.585  -5.312  28.042  0.00  0.00    -0.507 OA
ATOM     25  H   UNL     1       6.108  -6.052  27.630  0.00  0.00    +0.292 HD
ENDBRANCH   7  24
BRANCH  10  26
ATOM     26  O   UNL     1       9.935  -5.427  24.715  0.00  0.00    -0.506 OA
ATOM     27  H   UNL     1       9.634  -5.581  23.806  0.00  0.00    +0.292 HD
ENDBRANCH  10  26
TORSDOF 6
ENDMDL
MODEL 7
REMARK VINA RESULT:      -6.3      2.413      7.416
REMARK  Name = 
REMARK  7 active torsions:
REMARK  status: ('A' for Active; 'I' for Inactive)
REMARK    1  A    between atoms: C_1  and  O_2
REMARK    2  A    between atoms: O_2  and  C_3
REMARK    3  A    between atoms: C_4  and  C_16
REMARK    4  A    between atoms: C_8  and  O_15
REMARK    5  A    between atoms: C_10  and  O_14
REMARK    6  A    between atoms: C_18  and  O_23
REMARK    7  A    between atoms: C_19  and  O_22
REMARK                            x       y       z     vdW  Elec       q    Type
REMARK                         _______ _______ _______ _____ _____    ______ ____
ROOT
ATOM      1  C   UNL     1       8.621  -1.406  23.454  0.00  0.00    +0.211 A 
ATOM      2  C   UNL     1       9.016  -0.207  22.650  0.00  0.00    +0.238 A 
ATOM      3  O   UNL     1       9.289  -0.298  21.459  0.00  0.00    -0.283 OA
ATOM      4  C   UNL     1       9.004   1.098  23.342  0.00  0.00    +0.109 A 
ATOM      5  C   UNL     1       8.414   1.163  24.604  0.00  0.00    +0.147 A 
ATOM      6  C   UNL     1       8.309   2.382  25.280  0.00  0.00    +0.092 A 
ATOM      7  C   UNL     1       8.812   3.534  24.684  0.00  0.00    +0.124 A 
ATOM      8  C   UNL     1       9.425   3.486  23.436  0.00  0.00    +0.091 A 
ATOM      9  O   UNL     1       7.906   0.062  25.248  0.00  0.00    -0.451 OA
ATOM     10  C   UNL     1       9.524   2.268  22.769  0.00  0.00    +0.135 A 
ATOM     11  C   UNL     1       8.072  -1.181  24.663  0.00  0.00    +0.181 A 
ENDROOT
BRANCH  11  12
ATOM     12  C   UNL     1       7.543  -2.279  25.494  0.00  0.00    +0.025 A 
ATOM     13  C   UNL     1       6.181  -2.301  25.839  0.00  0.00    +0.015 A 
ATOM     14  C   UNL     1       5.659  -3.335  26.621  0.00  0.00    +0.050 A 
ATOM     15  C   UNL     1       6.504  -4.346  27.053  0.00  0.00    +0.158 A 
ATOM     16  C   UNL     1       7.856  -4.334  26.721  0.00  0.00    +0.159 A 
ATOM     17  C   UNL     1       8.386  -3.307  25.945  0.00  0.00    +0.060 A 
BRANCH  15  18
ATOM     18  O   UNL     1       5.994  -5.362  27.810  0.00  0.00    -0.503 OA
ATOM     19  H   UNL     1       5.307  -5.769  27.246  0.00  0.00    +0.292 HD
ENDBRANCH  15  18
BRANCH  16  20
ATOM     20  O   UNL     1       8.628  -5.366  27.184  0.00  0.00    -0.503 OA
ATOM     21  H   UNL     1       9.026  -5.092  28.028  0.00  0.00    +0.292 HD
ENDBRANCH  16  20
ENDBRANCH  11  12
BRANCH   1  23
ATOM     22  C   UNL     1       7.551  -3.148  22.245  0.00  0.00    +0.277 C 
ATOM     23  O   UNL     1       8.711  -2.692  22.935  0.00  0.00    -0.488 OA
ENDBRANCH   1  23
BRANCH   7  24
ATOM     24  O   UNL     1       8.732   4.750  25.293  0.00  0.00    -0.507 OA
ATOM     25  H   UNL     1       9.384   4.791  26.013  0.00  0.00    +0.292 HD
ENDBRANCH   7  24
BRANCH  10  26
ATOM     26  O   UNL     1      10.159   2.235  21.559  0.00  0.00    -0.506 OA
ATOM     27  H   UNL     1       9.528   2.026  20.852  0.00  0.00    +0.292 HD
ENDBRANCH  10  26
TORSDOF 6
ENDMDL
MODEL 8
REMARK VINA RESULT:      -6.3      2.132      7.342
REMARK  Name = 
REMARK  7 active torsions:
REMARK  status: ('A' for Active; 'I' for Inactive)
REMARK    1  A    between atoms: C_1  and  O_2
REMARK    2  A    between atoms: O_2  and  C_3
REMARK    3  A    between atoms: C_4  and  C_16
REMARK    4  A    between atoms: C_8  and  O_15
REMARK    5  A    between atoms: C_10  and  O_14
REMARK    6  A    between atoms: C_18  and  O_23
REMARK    7  A    between atoms: C_19  and  O_22
REMARK                            x       y       z     vdW  Elec       q    Type
REMARK                         _______ _______ _______ _____ _____    ______ ____
ROOT
ATOM      1  C   UNL     1       6.606  -4.383  23.501  0.00  0.00    +0.211 A 
ATOM      2  C   UNL     1       7.466  -3.438  22.722  0.00  0.00    +0.238 A 
ATOM      3  O   UNL     1       7.463  -3.432  21.497  0.00  0.00    -0.283 OA
ATOM      4  C   UNL     1       8.273  -2.474  23.497  0.00  0.00    +0.109 A 
ATOM      5  C   UNL     1       8.011  -2.350  24.862  0.00  0.00    +0.147 A 
ATOM      6  C   UNL     1       8.692  -1.406  25.635  0.00  0.00    +0.092 A 
ATOM      7  C   UNL     1       9.647  -0.595  25.031  0.00  0.00    +0.124 A 
ATOM      8  C   UNL     1       9.939  -0.718  23.677  0.00  0.00    +0.091 A 
ATOM      9  O   UNL     1       7.087  -3.125  25.517  0.00  0.00    -0.451 OA
ATOM     10  C   UNL     1       9.255  -1.660  22.913  0.00  0.00    +0.135 A 
ATOM     11  C   UNL     1       6.457  -4.138  24.816  0.00  0.00    +0.181 A 
ENDROOT
BRANCH  11  12
ATOM     12  C   UNL     1       5.546  -4.935  25.658  0.00  0.00    +0.025 A 
ATOM     13  C   UNL     1       4.157  -4.748  25.556  0.00  0.00    +0.015 A 
ATOM     14  C   UNL     1       3.275  -5.497  26.341  0.00  0.00    +0.050 A 
ATOM     15  C   UNL     1       3.789  -6.433  27.225  0.00  0.00    +0.158 A 
ATOM     16  C   UNL     1       5.164  -6.626  27.339  0.00  0.00    +0.159 A 
ATOM     17  C   UNL     1       6.050  -5.882  26.563  0.00  0.00    +0.060 A 
BRANCH  15  18
ATOM     18  O   UNL     1       2.929  -7.172  27.987  0.00  0.00    -0.503 OA
ATOM     19  H   UNL     1       3.509  -7.733  28.539  0.00  0.00    +0.292 HD
ENDBRANCH  15  18
BRANCH  16  20
ATOM     20  O   UNL     1       5.596  -7.567  28.234  0.00  0.00    -0.503 OA
ATOM     21  H   UNL     1       6.068  -7.111  28.951  0.00  0.00    +0.292 HD
ENDBRANCH  16  20
ENDBRANCH  11  12
BRANCH   1  23
ATOM     22  C   UNL     1       6.703  -6.379  22.215  0.00  0.00    +0.277 C 
ATOM     23  O   UNL     1       5.900  -5.405  22.877  0.00  0.00    -0.488 OA
ENDBRANCH   1  23
BRANCH   7  24
ATOM     24  O   UNL     1      10.336   0.347  25.734  0.00  0.00    -0.507 OA
ATOM     25  H   UNL     1      10.366   0.089  26.671  0.00  0.00    +0.292 HD
ENDBRANCH   7  24
BRANCH  10  26
ATOM     26  O   UNL     1       9.579  -1.790  21.591  0.00  0.00    -0.506 OA
ATOM     27  H   UNL     1       9.105  -2.541  21.200  0.00  0.00    +0.292 HD
ENDBRANCH  10  26
TORSDOF 6
ENDMDL
MODEL 9
REMARK VINA RESULT:      -6.3      1.970      6.623
REMARK  Name = 
REMARK  7 active torsions:
REMARK  status: ('A' for Active; 'I' for Inactive)
REMARK    1  A    between atoms: C_1  and  O_2
REMARK    2  A    between atoms: O_2  and  C_3
REMARK    3  A    between atoms: C_4  and  C_16
REMARK    4  A    between atoms: C_8  and  O_15
REMARK    5  A    between atoms: C_10  and  O_14
REMARK    6  A    between atoms: C_18  and  O_23
REMARK    7  A    between atoms: C_19  and  O_22
REMARK                            x       y       z     vdW  Elec       q    Type
REMARK                         _______ _______ _______ _____ _____    ______ ____
ROOT
ATOM      1  C   UNL     1       8.501  -1.695  23.996  0.00  0.00    +0.211 A 
ATOM      2  C   UNL     1       9.303  -0.432  24.032  0.00  0.00    +0.238 A 
ATOM      3  O   UNL     1      10.459  -0.420  24.437  0.00  0.00    -0.283 OA
ATOM      4  C   UNL     1       8.657   0.786  23.502  0.00  0.00    +0.109 A 
ATOM      5  C   UNL     1       7.459   0.640  22.803  0.00  0.00    +0.147 A 
ATOM      6  C   UNL     1       6.836   1.745  22.217  0.00  0.00    +0.092 A 
ATOM      7  C   UNL     1       7.419   3.002  22.349  0.00  0.00    +0.124 A 
ATOM      8  C   UNL     1       8.601   3.173  23.062  0.00  0.00    +0.091 A 
ATOM      9  O   UNL     1       6.831  -0.571  22.644  0.00  0.00    -0.451 OA
ATOM     10  C   UNL     1       9.216   2.066  23.640  0.00  0.00    +0.135 A 
ATOM     11  C   UNL     1       7.357  -1.677  23.286  0.00  0.00    +0.181 A 
ENDROOT
BRANCH  11  12
ATOM     12  C   UNL     1       6.545  -2.893  23.089  0.00  0.00    +0.025 A 
ATOM     13  C   UNL     1       6.990  -3.894  22.208  0.00  0.00    +0.015 A 
ATOM     14  C   UNL     1       6.237  -5.056  22.011  0.00  0.00    +0.050 A 
ATOM     15  C   UNL     1       5.044  -5.211  22.698  0.00  0.00    +0.158 A 
ATOM     16  C   UNL     1       4.590  -4.225  23.570  0.00  0.00    +0.159 A 
ATOM     17  C   UNL     1       5.331  -3.063  23.772  0.00  0.00    +0.060 A 
BRANCH  15  18
ATOM     18  O   UNL     1       4.312  -6.350  22.513  0.00  0.00    -0.503 OA
ATOM     19  H   UNL     1       4.037  -6.316  21.575  0.00  0.00    +0.292 HD
ENDBRANCH  15  18
BRANCH  16  20
ATOM     20  O   UNL     1       3.402  -4.449  24.212  0.00  0.00    -0.503 OA
ATOM     21  H   UNL     1       3.335  -5.399  24.405  0.00  0.00    +0.292 HD
ENDBRANCH  16  20
ENDBRANCH  11  12
BRANCH   1  23
ATOM     22  C   UNL     1       8.656  -3.027  25.958  0.00  0.00    +0.277 C 
ATOM     23  O   UNL     1       8.967  -2.869  24.576  0.00  0.00    -0.488 OA
ENDBRANCH   1  23
BRANCH   7  24
ATOM     24  O   UNL     1       6.860   4.113  21.794  0.00  0.00    -0.507 OA
ATOM     25  H   UNL     1       7.364   4.898  22.071  0.00  0.00    +0.292 HD
ENDBRANCH   7  24
BRANCH  10  26
ATOM     26  O   UNL     1      10.359   2.258  24.365  0.00  0.00    -0.506 OA
ATOM     27  H   UNL     1      11.111   1.826  23.929  0.00  0.00    +0.292 HD
ENDBRANCH  10  26
TORSDOF 6
ENDMDL
