MODEL 1
REMARK VINA RESULT:      -7.0      0.000      0.000
REMARK  Name = 
REMARK  21 active torsions:
REMARK  status: ('A' for Active; 'I' for Inactive)
REMARK    1  A    between atoms: C_1  and  C_2
REMARK    2  A    between atoms: C_4  and  O_66
REMARK    3  A    between atoms: C_6  and  O_65
REMARK    4  A    between atoms: C_8  and  O_64
REMARK    5  A    between atoms: C_10  and  O_13
REMARK    6  A    between atoms: O_13  and  C_14
REMARK    7  A    between atoms: C_14  and  C_15
REMARK    8  A    between atoms: C_17  and  O_63
REMARK    9  A    between atoms: C_19  and  O_62
REMARK   10  A    between atoms: C_21  and  O_48
REMARK   11  A    between atoms: C_23  and  O_26
REMARK   12  A    between atoms: O_26  and  C_27
REMARK   13  A    between atoms: C_28  and  C_40
REMARK   14  A    between atoms: C_32  and  O_39
REMARK   15  A    between atoms: C_34  and  O_38
REMARK   16  A    between atoms: C_42  and  O_47
REMARK   17  A    between atoms: C_43  and  O_46
REMARK   18  A    between atoms: O_48  and  C_49
REMARK   19  A    between atoms: C_51  and  O_61
REMARK   20  A    between atoms: C_53  and  O_60
REMARK   21  A    between atoms: C_55  and  O_59
REMARK                            x       y       z     vdW  Elec       q    Type
REMARK                         _______ _______ _______ _____ _____    ______ ____
ROOT
ATOM      1  C   UNL     1       5.452   0.526  26.669  0.00  0.00    +0.179 C 
ATOM      2  O   UNL     1       5.850   0.535  25.292  0.00  0.00    -0.331 OA
ATOM      3  C   UNL     1       5.975   1.866  24.807  0.00  0.00    +0.340 C 
ATOM      4  C   UNL     1       4.535   2.428  24.688  0.00  0.00    +0.221 C 
ATOM      5  C   UNL     1       3.897   2.369  26.110  0.00  0.00    +0.180 C 
ATOM      6  C   UNL     1       3.988   0.953  26.714  0.00  0.00    +0.177 C 
ENDROOT
BRANCH   6   7
ATOM      7  O   UNL     1       3.474   0.977  28.049  0.00  0.00    -0.386 OA
ATOM      8  H   UNL     1       4.215   1.256  28.617  0.00  0.00    +0.210 HD
ENDBRANCH   6   7
BRANCH   5   9
ATOM      9  O   UNL     1       2.519   2.774  26.077  0.00  0.00    -0.386 OA
ATOM     10  H   UNL     1       2.362   3.055  25.151  0.00  0.00    +0.210 HD
ENDBRANCH   5   9
BRANCH   4  11
ATOM     11  O   UNL     1       4.472   3.796  24.238  0.00  0.00    -0.337 OA
BRANCH  11  12
ATOM     12  C   UNL     1       4.446   3.963  22.822  0.00  0.00    +0.282 C 
ATOM     13  O   UNL     1       5.219   5.113  22.447  0.00  0.00    -0.346 OA
ATOM     14  C   UNL     1       4.671   6.356  22.898  0.00  0.00    +0.197 C 
ATOM     15  C   UNL     1       3.237   6.568  22.401  0.00  0.00    +0.171 C 
ATOM     16  C   UNL     1       2.361   5.360  22.753  0.00  0.00    +0.178 C 
ATOM     17  C   UNL     1       3.019   4.068  22.235  0.00  0.00    +0.201 C 
BRANCH  17  18
ATOM     18  O   UNL     1       3.068   4.049  20.794  0.00  0.00    -0.384 OA
ATOM     19  H   UNL     1       2.663   4.900  20.510  0.00  0.00    +0.210 HD
ENDBRANCH  17  18
BRANCH  16  20
ATOM     20  O   UNL     1       2.082   5.326  24.155  0.00  0.00    -0.386 OA
ATOM     21  H   UNL     1       1.148   5.569  24.337  0.00  0.00    +0.210 HD
ENDBRANCH  16  20
BRANCH  15  22
ATOM     22  O   UNL     1       3.278   6.737  20.974  0.00  0.00    -0.387 OA
ATOM     23  H   UNL     1       2.828   7.577  20.763  0.00  0.00    +0.210 HD
ENDBRANCH  15  22
ENDBRANCH  11  12
ENDBRANCH   4  11
BRANCH   3  24
ATOM     24  O   UNL     1       6.761   1.825  23.591  0.00  0.00    -0.453 OA
BRANCH  24  25
ATOM     25  C   UNL     1       8.093   2.233  23.776  0.00  0.00    +0.214 A 
ATOM     26  C   UNL     1       8.409   3.680  24.061  0.00  0.00    +0.238 A 
ATOM     27  O   UNL     1       7.647   4.436  24.647  0.00  0.00    -0.283 OA
ATOM     28  C   UNL     1       9.719   4.186  23.702  0.00  0.00    +0.109 A 
ATOM     29  C   UNL     1      10.731   3.247  23.655  0.00  0.00    +0.147 A 
ATOM     30  C   UNL     1      12.047   3.675  23.483  0.00  0.00    +0.092 A 
ATOM     31  C   UNL     1      12.305   5.043  23.360  0.00  0.00    +0.124 A 
ATOM     32  C   UNL     1      11.282   5.983  23.382  0.00  0.00    +0.091 A 
ATOM     33  O   UNL     1      10.493   1.913  23.845  0.00  0.00    -0.451 OA
ATOM     34  C   UNL     1       9.976   5.558  23.547  0.00  0.00    +0.135 A 
ATOM     35  C   UNL     1       9.177   1.408  23.821  0.00  0.00    +0.181 A 
BRANCH  35  36
ATOM     36  C   UNL     1       9.193  -0.097  23.983  0.00  0.00    +0.025 A 
ATOM     37  C   UNL     1       9.754  -0.887  22.943  0.00  0.00    +0.015 A 
ATOM     38  C   UNL     1      10.040  -2.252  23.096  0.00  0.00    +0.050 A 
ATOM     39  C   UNL     1       9.731  -2.869  24.288  0.00  0.00    +0.158 A 
ATOM     40  C   UNL     1       9.068  -2.157  25.281  0.00  0.00    +0.159 A 
ATOM     41  C   UNL     1       8.813  -0.786  25.141  0.00  0.00    +0.060 A 
BRANCH  40  42
ATOM     42  O   UNL     1       8.682  -2.842  26.402  0.00  0.00    -0.503 OA
ATOM     43  H   UNL     1       9.417  -3.444  26.638  0.00  0.00    +0.292 HD
ENDBRANCH  40  42
BRANCH  39  44
ATOM     44  O   UNL     1      10.102  -4.167  24.485  0.00  0.00    -0.503 OA
ATOM     45  H   UNL     1       9.430  -4.694  24.008  0.00  0.00    +0.292 HD
ENDBRANCH  39  44
ENDBRANCH  35  36
BRANCH  34  46
ATOM     46  O   UNL     1       8.961   6.464  23.518  0.00  0.00    -0.506 OA
ATOM     47  H   UNL     1       9.327   7.356  23.416  0.00  0.00    +0.292 HD
ENDBRANCH  34  46
BRANCH  31  48
ATOM     48  O   UNL     1      13.568   5.527  23.211  0.00  0.00    -0.507 OA
ATOM     49  H   UNL     1      13.567   6.236  22.553  0.00  0.00    +0.292 HD
ENDBRANCH  31  48
ENDBRANCH  24  25
ENDBRANCH   3  24
BRANCH   1  50
ATOM     50  C   UNL     1       5.733  -0.859  27.230  0.00  0.00    +0.197 C 
BRANCH  50  51
ATOM     51  O   UNL     1       4.782  -1.767  26.685  0.00  0.00    -0.346 OA
BRANCH  51  55
ATOM     52  C   UNL     1       6.308  -2.972  22.809  0.00  0.00    +0.041 C 
ATOM     53  C   UNL     1       4.986  -3.410  23.431  0.00  0.00    +0.149 C 
ATOM     54  O   UNL     1       4.573  -2.534  24.485  0.00  0.00    -0.343 OA
ATOM     55  C   UNL     1       5.342  -2.612  25.684  0.00  0.00    +0.282 C 
ATOM     56  C   UNL     1       5.360  -4.031  26.284  0.00  0.00    +0.201 C 
ATOM     57  C   UNL     1       5.717  -5.079  25.223  0.00  0.00    +0.179 C 
ATOM     58  C   UNL     1       4.922  -4.860  23.930  0.00  0.00    +0.174 C 
BRANCH  58  59
ATOM     59  O   UNL     1       3.541  -5.169  24.194  0.00  0.00    -0.387 OA
ATOM     60  H   UNL     1       3.425  -6.135  24.088  0.00  0.00    +0.210 HD
ENDBRANCH  58  59
BRANCH  57  61
ATOM     61  O   UNL     1       7.134  -5.101  24.993  0.00  0.00    -0.386 OA
ATOM     62  H   UNL     1       7.606  -4.862  25.808  0.00  0.00    +0.210 HD
ENDBRANCH  57  61
BRANCH  56  63
ATOM     63  O   UNL     1       6.296  -4.095  27.377  0.00  0.00    -0.384 OA
ATOM     64  H   UNL     1       6.012  -3.446  28.047  0.00  0.00    +0.210 HD
ENDBRANCH  56  63
ENDBRANCH  51  55
ENDBRANCH  50  51
ENDBRANCH   1  50
TORSDOF 20
ENDMDL
MODEL 2
REMARK VINA RESULT:      -7.0      1.051      1.993
REMARK  Name = 
REMARK  21 active torsions:
REMARK  status: ('A' for Active; 'I' for Inactive)
REMARK    1  A    between atoms: C_1  and  C_2
REMARK    2  A    between atoms: C_4  and  O_66
REMARK    3  A    between atoms: C_6  and  O_65
REMARK    4  A    between atoms: C_8  and  O_64
REMARK    5  A    between atoms: C_10  and  O_13
REMARK    6  A    between atoms: O_13  and  C_14
REMARK    7  A    between atoms: C_14  and  C_15
REMARK    8  A    between atoms: C_17  and  O_63
REMARK    9  A    between atoms: C_19  and  O_62
REMARK   10  A    between atoms: C_21  and  O_48
REMARK   11  A    between atoms: C_23  and  O_26
REMARK   12  A    between atoms: O_26  and  C_27
REMARK   13  A    between atoms: C_28  and  C_40
REMARK   14  A    between atoms: C_32  and  O_39
REMARK   15  A    between atoms: C_34  and  O_38
REMARK   16  A    between atoms: C_42  and  O_47
REMARK   17  A    between atoms: C_43  and  O_46
REMARK   18  A    between atoms: O_48  and  C_49
REMARK   19  A    between atoms: C_51  and  O_61
REMARK   20  A    between atoms: C_53  and  O_60
REMARK   21  A    between atoms: C_55  and  O_59
REMARK                            x       y       z     vdW  Elec       q    Type
REMARK                         _______ _______ _______ _____ _____    ______ ____
ROOT
ATOM      1  C   UNL     1       5.606   0.590  26.729  0.00  0.00    +0.179 C 
ATOM      2  O   UNL     1       5.913   0.779  25.342  0.00  0.00    -0.331 OA
ATOM      3  C   UNL     1       6.252   2.134  25.076  0.00  0.00    +0.340 C 
ATOM      4  C   UNL     1       4.935   2.945  25.185  0.00  0.00    +0.221 C 
ATOM      5  C   UNL     1       4.385   2.741  26.630  0.00  0.00    +0.180 C 
ATOM      6  C   UNL     1       4.250   1.245  26.979  0.00  0.00    +0.177 C 
ENDROOT
BRANCH   6   7
ATOM      7  O   UNL     1       3.832   1.116  28.342  0.00  0.00    -0.386 OA
ATOM      8  H   UNL     1       4.610   0.789  28.831  0.00  0.00    +0.210 HD
ENDBRANCH   6   7
BRANCH   5   9
ATOM      9  O   UNL     1       3.106   3.374  26.793  0.00  0.00    -0.386 OA
ATOM     10  H   UNL     1       3.312   4.280  27.108  0.00  0.00    +0.210 HD
ENDBRANCH   5   9
BRANCH   4  11
ATOM     11  O   UNL     1       5.097   4.362  24.975  0.00  0.00    -0.337 OA
BRANCH  11  12
ATOM     12  C   UNL     1       4.258   4.921  23.967  0.00  0.00    +0.282 C 
ATOM     13  O   UNL     1       4.725   4.531  22.667  0.00  0.00    -0.346 OA
ATOM     14  C   UNL     1       6.003   5.074  22.318  0.00  0.00    +0.197 C 
ATOM     15  C   UNL     1       6.017   6.605  22.385  0.00  0.00    +0.171 C 
ATOM     16  C   UNL     1       5.507   7.089  23.748  0.00  0.00    +0.178 C 
ATOM     17  C   UNL     1       4.134   6.461  24.046  0.00  0.00    +0.201 C 
BRANCH  17  18
ATOM     18  O   UNL     1       3.133   6.930  23.119  0.00  0.00    -0.384 OA
ATOM     19  H   UNL     1       3.630   7.178  22.307  0.00  0.00    +0.210 HD
ENDBRANCH  17  18
BRANCH  16  20
ATOM     20  O   UNL     1       6.474   6.836  24.771  0.00  0.00    -0.386 OA
ATOM     21  H   UNL     1       6.630   7.637  25.317  0.00  0.00    +0.210 HD
ENDBRANCH  16  20
BRANCH  15  22
ATOM     22  O   UNL     1       5.163   7.107  21.344  0.00  0.00    -0.387 OA
ATOM     23  H   UNL     1       4.377   7.499  21.770  0.00  0.00    +0.210 HD
ENDBRANCH  15  22
ENDBRANCH  11  12
ENDBRANCH   4  11
BRANCH   3  24
ATOM     24  O   UNL     1       6.940   2.178  23.802  0.00  0.00    -0.453 OA
BRANCH  24  25
ATOM     25  C   UNL     1       8.310   2.473  23.920  0.00  0.00    +0.214 A 
ATOM     26  C   UNL     1       8.758   3.882  24.220  0.00  0.00    +0.238 A 
ATOM     27  O   UNL     1       8.093   4.680  24.866  0.00  0.00    -0.283 OA
ATOM     28  C   UNL     1      10.083   4.290  23.800  0.00  0.00    +0.109 A 
ATOM     29  C   UNL     1      11.011   3.275  23.673  0.00  0.00    +0.147 A 
ATOM     30  C   UNL     1      12.345   3.601  23.437  0.00  0.00    +0.092 A 
ATOM     31  C   UNL     1      12.708   4.946  23.331  0.00  0.00    +0.124 A 
ATOM     32  C   UNL     1      11.767   5.965  23.432  0.00  0.00    +0.091 A 
ATOM     33  O   UNL     1      10.675   1.960  23.846  0.00  0.00    -0.451 OA
ATOM     34  C   UNL     1      10.442   5.641  23.662  0.00  0.00    +0.135 A 
ATOM     35  C   UNL     1       9.323   1.563  23.885  0.00  0.00    +0.181 A 
BRANCH  35  36
ATOM     36  C   UNL     1       9.225   0.058  24.012  0.00  0.00    +0.025 A 
ATOM     37  C   UNL     1       9.632  -0.746  22.911  0.00  0.00    +0.015 A 
ATOM     38  C   UNL     1       9.814  -2.133  23.010  0.00  0.00    +0.050 A 
ATOM     39  C   UNL     1       9.550  -2.757  24.209  0.00  0.00    +0.158 A 
ATOM     40  C   UNL     1       9.031  -2.023  25.269  0.00  0.00    +0.159 A 
ATOM     41  C   UNL     1       8.881  -0.631  25.181  0.00  0.00    +0.060 A 
BRANCH  40  42
ATOM     42  O   UNL     1       8.679  -2.705  26.403  0.00  0.00    -0.503 OA
ATOM     43  H   UNL     1       8.264  -3.544  26.116  0.00  0.00    +0.292 HD
ENDBRANCH  40  42
BRANCH  39  44
ATOM     44  O   UNL     1       9.824  -4.086  24.346  0.00  0.00    -0.503 OA
ATOM     45  H   UNL     1      10.279  -4.334  23.517  0.00  0.00    +0.292 HD
ENDBRANCH  39  44
ENDBRANCH  35  36
BRANCH  34  46
ATOM     46  O   UNL     1       9.504   6.626  23.711  0.00  0.00    -0.506 OA
ATOM     47  H   UNL     1       8.878   6.441  24.428  0.00  0.00    +0.292 HD
ENDBRANCH  34  46
BRANCH  31  48
ATOM     48  O   UNL     1      13.996   5.332  23.122  0.00  0.00    -0.507 OA
ATOM     49  H   UNL     1      14.412   5.543  23.969  0.00  0.00    +0.292 HD
ENDBRANCH  31  48
ENDBRANCH  24  25
ENDBRANCH   3  24
BRANCH   1  50
ATOM     50  C   UNL     1       5.660  -0.901  27.024  0.00  0.00    +0.197 C 
BRANCH  50  51
ATOM     51  O   UNL     1       5.595  -1.606  25.791  0.00  0.00    -0.346 OA
BRANCH  51  55
ATOM     52  C   UNL     1       4.486  -5.282  27.806  0.00  0.00    +0.041 C 
ATOM     53  C   UNL     1       5.889  -4.892  27.353  0.00  0.00    +0.149 C 
ATOM     54  O   UNL     1       6.007  -3.486  27.121  0.00  0.00    -0.343 OA
ATOM     55  C   UNL     1       5.330  -2.995  25.966  0.00  0.00    +0.282 C 
ATOM     56  C   UNL     1       5.794  -3.687  24.670  0.00  0.00    +0.201 C 
ATOM     57  C   UNL     1       5.786  -5.212  24.820  0.00  0.00    +0.179 C 
ATOM     58  C   UNL     1       6.439  -5.649  26.137  0.00  0.00    +0.174 C 
BRANCH  58  59
ATOM     59  O   UNL     1       7.850  -5.370  26.052  0.00  0.00    -0.387 OA
ATOM     60  H   UNL     1       8.086  -4.792  26.807  0.00  0.00    +0.210 HD
ENDBRANCH  58  59
BRANCH  57  61
ATOM     61  O   UNL     1       4.453  -5.726  24.678  0.00  0.00    -0.386 OA
ATOM     62  H   UNL     1       4.101  -5.978  25.549  0.00  0.00    +0.210 HD
ENDBRANCH  57  61
BRANCH  56  63
ATOM     63  O   UNL     1       4.953  -3.293  23.569  0.00  0.00    -0.384 OA
ATOM     64  H   UNL     1       4.027  -3.418  23.846  0.00  0.00    +0.210 HD
ENDBRANCH  56  63
ENDBRANCH  51  55
ENDBRANCH  50  51
ENDBRANCH   1  50
TORSDOF 20
ENDMDL
MODEL 3
REMARK VINA RESULT:      -7.0      3.062      8.227
REMARK  Name = 
REMARK  21 active torsions:
REMARK  status: ('A' for Active; 'I' for Inactive)
REMARK    1  A    between atoms: C_1  and  C_2
REMARK    2  A    between atoms: C_4  and  O_66
REMARK    3  A    between atoms: C_6  and  O_65
REMARK    4  A    between atoms: C_8  and  O_64
REMARK    5  A    between atoms: C_10  and  O_13
REMARK    6  A    between atoms: O_13  and  C_14
REMARK    7  A    between atoms: C_14  and  C_15
REMARK    8  A    between atoms: C_17  and  O_63
REMARK    9  A    between atoms: C_19  and  O_62
REMARK   10  A    between atoms: C_21  and  O_48
REMARK   11  A    between atoms: C_23  and  O_26
REMARK   12  A    between atoms: O_26  and  C_27
REMARK   13  A    between atoms: C_28  and  C_40
REMARK   14  A    between atoms: C_32  and  O_39
REMARK   15  A    between atoms: C_34  and  O_38
REMARK   16  A    between atoms: C_42  and  O_47
REMARK   17  A    between atoms: C_43  and  O_46
REMARK   18  A    between atoms: O_48  and  C_49
REMARK   19  A    between atoms: C_51  and  O_61
REMARK   20  A    between atoms: C_53  and  O_60
REMARK   21  A    between atoms: C_55  and  O_59
REMARK                            x       y       z     vdW  Elec       q    Type
REMARK                         _______ _______ _______ _____ _____    ______ ____
ROOT
ATOM      1  C   UNL     1       6.804  -3.446  23.827  0.00  0.00    +0.179 C 
ATOM      2  O   UNL     1       5.676  -2.634  24.178  0.00  0.00    -0.331 OA
ATOM      3  C   UNL     1       4.660  -3.415  24.796  0.00  0.00    +0.340 C 
ATOM      4  C   UNL     1       4.039  -4.293  23.679  0.00  0.00    +0.221 C 
ATOM      5  C   UNL     1       5.187  -5.168  23.088  0.00  0.00    +0.180 C 
ATOM      6  C   UNL     1       6.384  -4.306  22.638  0.00  0.00    +0.177 C 
ENDROOT
BRANCH   6   7
ATOM      7  O   UNL     1       7.440  -5.162  22.192  0.00  0.00    -0.386 OA
ATOM      8  H   UNL     1       7.528  -5.003  21.234  0.00  0.00    +0.210 HD
ENDBRANCH   6   7
BRANCH   5   9
ATOM      9  O   UNL     1       4.726  -5.942  21.969  0.00  0.00    -0.386 OA
ATOM     10  H   UNL     1       5.062  -6.848  22.135  0.00  0.00    +0.210 HD
ENDBRANCH   5   9
BRANCH   4  11
ATOM     11  O   UNL     1       3.003  -5.183  24.137  0.00  0.00    -0.337 OA
BRANCH  11  12
ATOM     12  C   UNL     1       3.456  -6.271  24.940  0.00  0.00    +0.282 C 
ATOM     13  O   UNL     1       3.376  -7.497  24.198  0.00  0.00    -0.346 OA
ATOM     14  C   UNL     1       2.040  -7.903  23.882  0.00  0.00    +0.197 C 
ATOM     15  C   UNL     1       1.172  -8.053  25.137  0.00  0.00    +0.171 C 
ATOM     16  C   UNL     1       1.231  -6.778  25.988  0.00  0.00    +0.178 C 
ATOM     17  C   UNL     1       2.697  -6.412  26.280  0.00  0.00    +0.201 C 
BRANCH  17  18
ATOM     18  O   UNL     1       3.329  -7.409  27.110  0.00  0.00    -0.384 OA
ATOM     19  H   UNL     1       2.601  -7.796  27.647  0.00  0.00    +0.210 HD
ENDBRANCH  17  18
BRANCH  16  20
ATOM     20  O   UNL     1       0.500  -5.718  25.366  0.00  0.00    -0.386 OA
ATOM     21  H   UNL     1       1.010  -5.323  24.625  0.00  0.00    +0.210 HD
ENDBRANCH  16  20
BRANCH  15  22
ATOM     22  O   UNL     1       1.672  -9.165  25.897  0.00  0.00    -0.387 OA
ATOM     23  H   UNL     1       1.630  -9.956  25.327  0.00  0.00    +0.210 HD
ENDBRANCH  15  22
ENDBRANCH  11  12
ENDBRANCH   4  11
BRANCH   3  24
ATOM     24  O   UNL     1       3.764  -2.511  25.488  0.00  0.00    -0.453 OA
BRANCH  24  25
ATOM     25  C   UNL     1       4.429  -1.616  26.344  0.00  0.00    +0.214 A 
ATOM     26  C   UNL     1       4.003  -0.170  26.406  0.00  0.00    +0.238 A 
ATOM     27  O   UNL     1       2.857   0.207  26.203  0.00  0.00    -0.283 OA
ATOM     28  C   UNL     1       4.978   0.821  26.814  0.00  0.00    +0.109 A 
ATOM     29  C   UNL     1       6.000   0.360  27.620  0.00  0.00    +0.147 A 
ATOM     30  C   UNL     1       6.881   1.277  28.191  0.00  0.00    +0.092 A 
ATOM     31  C   UNL     1       6.708   2.639  27.929  0.00  0.00    +0.124 A 
ATOM     32  C   UNL     1       5.694   3.097  27.096  0.00  0.00    +0.091 A 
ATOM     33  O   UNL     1       6.133  -0.965  27.937  0.00  0.00    -0.451 OA
ATOM     34  C   UNL     1       4.824   2.187  26.526  0.00  0.00    +0.135 A 
ATOM     35  C   UNL     1       5.403  -1.947  27.236  0.00  0.00    +0.181 A 
BRANCH  35  36
ATOM     36  C   UNL     1       5.783  -3.328  27.728  0.00  0.00    +0.025 A 
ATOM     37  C   UNL     1       4.931  -3.974  28.665  0.00  0.00    +0.015 A 
ATOM     38  C   UNL     1       5.055  -5.332  28.993  0.00  0.00    +0.050 A 
ATOM     39  C   UNL     1       6.067  -6.069  28.418  0.00  0.00    +0.158 A 
ATOM     40  C   UNL     1       6.993  -5.440  27.594  0.00  0.00    +0.159 A 
ATOM     41  C   UNL     1       6.850  -4.091  27.240  0.00  0.00    +0.060 A 
BRANCH  40  42
ATOM     42  O   UNL     1       8.045  -6.188  27.135  0.00  0.00    -0.503 OA
ATOM     43  H   UNL     1       7.718  -6.704  26.371  0.00  0.00    +0.292 HD
ENDBRANCH  40  42
BRANCH  39  44
ATOM     44  O   UNL     1       6.130  -7.412  28.647  0.00  0.00    -0.503 OA
ATOM     45  H   UNL     1       7.055  -7.656  28.444  0.00  0.00    +0.292 HD
ENDBRANCH  39  44
ENDBRANCH  35  36
BRANCH  34  46
ATOM     46  O   UNL     1       3.860   2.619  25.667  0.00  0.00    -0.506 OA
ATOM     47  H   UNL     1       4.059   2.304  24.772  0.00  0.00    +0.292 HD
ENDBRANCH  34  46
BRANCH  31  48
ATOM     48  O   UNL     1       7.520   3.586  28.472  0.00  0.00    -0.507 OA
ATOM     49  H   UNL     1       8.194   3.843  27.827  0.00  0.00    +0.292 HD
ENDBRANCH  31  48
ENDBRANCH  24  25
ENDBRANCH   3  24
BRANCH   1  50
ATOM     50  C   UNL     1       7.984  -2.523  23.565  0.00  0.00    +0.197 C 
BRANCH  50  51
ATOM     51  O   UNL     1       7.633  -1.633  22.512  0.00  0.00    -0.346 OA
BRANCH  51  55
ATOM     52  C   UNL     1      10.109   1.899  22.069  0.00  0.00    +0.041 C 
ATOM     53  C   UNL     1      10.095   0.955  23.266  0.00  0.00    +0.149 C 
ATOM     54  O   UNL     1       9.516  -0.313  22.943  0.00  0.00    -0.343 OA
ATOM     55  C   UNL     1       8.105  -0.307  22.734  0.00  0.00    +0.282 C 
ATOM     56  C   UNL     1       7.329   0.225  23.954  0.00  0.00    +0.201 C 
ATOM     57  C   UNL     1       7.910   1.555  24.447  0.00  0.00    +0.179 C 
ATOM     58  C   UNL     1       9.439   1.495  24.544  0.00  0.00    +0.174 C 
BRANCH  58  59
ATOM     59  O   UNL     1       9.787   0.606  25.621  0.00  0.00    -0.387 OA
ATOM     60  H   UNL     1       9.266   0.870  26.407  0.00  0.00    +0.210 HD
ENDBRANCH  58  59
BRANCH  57  61
ATOM     61  O   UNL     1       7.459   2.640  23.622  0.00  0.00    -0.386 OA
ATOM     62  H   UNL     1       7.891   2.595  22.751  0.00  0.00    +0.210 HD
ENDBRANCH  57  61
BRANCH  56  63
ATOM     63  O   UNL     1       5.936   0.386  23.623  0.00  0.00    -0.384 OA
ATOM     64  H   UNL     1       5.872   1.082  22.944  0.00  0.00    +0.210 HD
ENDBRANCH  56  63
ENDBRANCH  51  55
ENDBRANCH  50  51
ENDBRANCH   1  50
TORSDOF 20
ENDMDL
MODEL 4
REMARK VINA RESULT:      -7.0      3.235      7.853
REMARK  Name = 
REMARK  21 active torsions:
REMARK  status: ('A' for Active; 'I' for Inactive)
REMARK    1  A    between atoms: C_1  and  C_2
REMARK    2  A    between atoms: C_4  and  O_66
REMARK    3  A    between atoms: C_6  and  O_65
REMARK    4  A    between atoms: C_8  and  O_64
REMARK    5  A    between atoms: C_10  and  O_13
REMARK    6  A    between atoms: O_13  and  C_14
REMARK    7  A    between atoms: C_14  and  C_15
REMARK    8  A    between atoms: C_17  and  O_63
REMARK    9  A    between atoms: C_19  and  O_62
REMARK   10  A    between atoms: C_21  and  O_48
REMARK   11  A    between atoms: C_23  and  O_26
REMARK   12  A    between atoms: O_26  and  C_27
REMARK   13  A    between atoms: C_28  and  C_40
REMARK   14  A    between atoms: C_32  and  O_39
REMARK   15  A    between atoms: C_34  and  O_38
REMARK   16  A    between atoms: C_42  and  O_47
REMARK   17  A    between atoms: C_43  and  O_46
REMARK   18  A    between atoms: O_48  and  C_49
REMARK   19  A    between atoms: C_51  and  O_61
REMARK   20  A    between atoms: C_53  and  O_60
REMARK   21  A    between atoms: C_55  and  O_59
REMARK                            x       y       z     vdW  Elec       q    Type
REMARK                         _______ _______ _______ _____ _____    ______ ____
ROOT
ATOM      1  C   UNL     1       7.632  -3.634  24.730  0.00  0.00    +0.179 C 
ATOM      2  O   UNL     1       6.662  -2.580  24.654  0.00  0.00    -0.331 OA
ATOM      3  C   UNL     1       5.341  -3.106  24.630  0.00  0.00    +0.340 C 
ATOM      4  C   UNL     1       5.154  -3.761  23.238  0.00  0.00    +0.221 C 
ATOM      5  C   UNL     1       6.240  -4.872  23.100  0.00  0.00    +0.180 C 
ATOM      6  C   UNL     1       7.655  -4.319  23.367  0.00  0.00    +0.177 C 
ENDROOT
BRANCH   6   7
ATOM      7  O   UNL     1       8.597  -5.394  23.319  0.00  0.00    -0.386 OA
ATOM      8  H   UNL     1       9.420  -5.047  23.712  0.00  0.00    +0.210 HD
ENDBRANCH   6   7
BRANCH   5   9
ATOM      9  O   UNL     1       6.212  -5.467  21.793  0.00  0.00    -0.386 OA
ATOM     10  H   UNL     1       7.139  -5.424  21.478  0.00  0.00    +0.210 HD
ENDBRANCH   5   9
BRANCH   4  11
ATOM     11  O   UNL     1       3.867  -4.382  23.047  0.00  0.00    -0.337 OA
BRANCH  11  12
ATOM     12  C   UNL     1       3.772  -5.724  23.518  0.00  0.00    +0.282 C 
ATOM     13  O   UNL     1       2.841  -6.463  22.714  0.00  0.00    -0.346 OA
ATOM     14  C   UNL     1       1.486  -6.016  22.828  0.00  0.00    +0.197 C 
ATOM     15  C   UNL     1       0.988  -6.049  24.278  0.00  0.00    +0.171 C 
ATOM     16  C   UNL     1       1.955  -5.292  25.196  0.00  0.00    +0.178 C 
ATOM     17  C   UNL     1       3.384  -5.832  25.012  0.00  0.00    +0.201 C 
BRANCH  17  18
ATOM     18  O   UNL     1       3.487  -7.199  25.458  0.00  0.00    -0.384 OA
ATOM     19  H   UNL     1       4.344  -7.524  25.099  0.00  0.00    +0.210 HD
ENDBRANCH  17  18
BRANCH  16  20
ATOM     20  O   UNL     1       1.855  -3.881  24.985  0.00  0.00    -0.386 OA
ATOM     21  H   UNL     1       1.068  -3.509  25.439  0.00  0.00    +0.210 HD
ENDBRANCH  16  20
BRANCH  15  22
ATOM     22  O   UNL     1       0.906  -7.423  24.691  0.00  0.00    -0.387 OA
ATOM     23  H   UNL     1       1.808  -7.717  24.922  0.00  0.00    +0.210 HD
ENDBRANCH  15  22
ENDBRANCH  11  12
ENDBRANCH   4  11
BRANCH   3  24
ATOM     24  O   UNL     1       4.429  -2.033  24.973  0.00  0.00    -0.453 OA
BRANCH  24  25
ATOM     25  C   UNL     1       4.838  -1.294  26.096  0.00  0.00    +0.214 A 
ATOM     26  C   UNL     1       4.895   0.212  26.032  0.00  0.00    +0.238 A 
ATOM     27  O   UNL     1       4.162   0.887  25.322  0.00  0.00    -0.283 OA
ATOM     28  C   UNL     1       5.803   0.908  26.922  0.00  0.00    +0.109 A 
ATOM     29  C   UNL     1       6.119   0.248  28.092  0.00  0.00    +0.147 A 
ATOM     30  C   UNL     1       6.849   0.916  29.074  0.00  0.00    +0.092 A 
ATOM     31  C   UNL     1       7.244   2.237  28.845  0.00  0.00    +0.124 A 
ATOM     32  C   UNL     1       6.947   2.890  27.654  0.00  0.00    +0.091 A 
ATOM     33  O   UNL     1       5.675  -1.021  28.352  0.00  0.00    -0.451 OA
ATOM     34  C   UNL     1       6.227   2.225  26.679  0.00  0.00    +0.135 A 
ATOM     35  C   UNL     1       5.113  -1.809  27.328  0.00  0.00    +0.181 A 
BRANCH  35  36
ATOM     36  C   UNL     1       4.772  -3.185  27.857  0.00  0.00    +0.025 A 
ATOM     37  C   UNL     1       3.436  -3.445  28.268  0.00  0.00    +0.015 A 
ATOM     38  C   UNL     1       2.961  -4.737  28.537  0.00  0.00    +0.050 A 
ATOM     39  C   UNL     1       3.830  -5.801  28.439  0.00  0.00    +0.158 A 
ATOM     40  C   UNL     1       5.172  -5.571  28.161  0.00  0.00    +0.159 A 
ATOM     41  C   UNL     1       5.640  -4.284  27.860  0.00  0.00    +0.060 A 
BRANCH  40  42
ATOM     42  O   UNL     1       6.018  -6.648  28.184  0.00  0.00    -0.503 OA
ATOM     43  H   UNL     1       6.863  -6.340  28.571  0.00  0.00    +0.292 HD
ENDBRANCH  40  42
BRANCH  39  44
ATOM     44  O   UNL     1       3.354  -7.070  28.593  0.00  0.00    -0.503 OA
ATOM     45  H   UNL     1       2.693  -7.004  29.311  0.00  0.00    +0.292 HD
ENDBRANCH  39  44
ENDBRANCH  35  36
BRANCH  34  46
ATOM     46  O   UNL     1       5.975   2.836  25.489  0.00  0.00    -0.506 OA
ATOM     47  H   UNL     1       5.159   3.355  25.558  0.00  0.00    +0.292 HD
ENDBRANCH  34  46
BRANCH  31  48
ATOM     48  O   UNL     1       7.940   2.952  29.770  0.00  0.00    -0.507 OA
ATOM     49  H   UNL     1       7.345   3.573  30.214  0.00  0.00    +0.292 HD
ENDBRANCH  31  48
ENDBRANCH  24  25
ENDBRANCH   3  24
BRANCH   1  50
ATOM     50  C   UNL     1       8.956  -3.023  25.163  0.00  0.00    +0.197 C 
BRANCH  50  51
ATOM     51  O   UNL     1       9.706  -2.702  23.997  0.00  0.00    -0.346 OA
BRANCH  51  55
ATOM     52  C   UNL     1      10.217   1.561  24.601  0.00  0.00    +0.041 C 
ATOM     53  C   UNL     1       8.888   0.816  24.524  0.00  0.00    +0.149 C 
ATOM     54  O   UNL     1       9.046  -0.588  24.749  0.00  0.00    -0.343 OA
ATOM     55  C   UNL     1       9.689  -1.309  23.700  0.00  0.00    +0.282 C 
ATOM     56  C   UNL     1       8.958  -1.168  22.351  0.00  0.00    +0.201 C 
ATOM     57  C   UNL     1       8.661   0.301  22.031  0.00  0.00    +0.179 C 
ATOM     58  C   UNL     1       8.069   1.030  23.244  0.00  0.00    +0.174 C 
BRANCH  58  59
ATOM     59  O   UNL     1       6.748   0.507  23.481  0.00  0.00    -0.387 OA
ATOM     60  H   UNL     1       6.125   0.998  22.906  0.00  0.00    +0.210 HD
ENDBRANCH  58  59
BRANCH  57  61
ATOM     61  O   UNL     1       9.834   0.955  21.524  0.00  0.00    -0.386 OA
ATOM     62  H   UNL     1      10.379   1.277  22.262  0.00  0.00    +0.210 HD
ENDBRANCH  57  61
BRANCH  56  63
ATOM     63  O   UNL     1       9.746  -1.754  21.297  0.00  0.00    -0.384 OA
ATOM     64  H   UNL     1      10.290  -2.459  21.692  0.00  0.00    +0.210 HD
ENDBRANCH  56  63
ENDBRANCH  51  55
ENDBRANCH  50  51
ENDBRANCH   1  50
TORSDOF 20
ENDMDL
MODEL 5
REMARK VINA RESULT:      -6.8      1.241      2.030
REMARK  Name = 
REMARK  21 active torsions:
REMARK  status: ('A' for Active; 'I' for Inactive)
REMARK    1  A    between atoms: C_1  and  C_2
REMARK    2  A    between atoms: C_4  and  O_66
REMARK    3  A    between atoms: C_6  and  O_65
REMARK    4  A    between atoms: C_8  and  O_64
REMARK    5  A    between atoms: C_10  and  O_13
REMARK    6  A    between atoms: O_13  and  C_14
REMARK    7  A    between atoms: C_14  and  C_15
REMARK    8  A    between atoms: C_17  and  O_63
REMARK    9  A    between atoms: C_19  and  O_62
REMARK   10  A    between atoms: C_21  and  O_48
REMARK   11  A    between atoms: C_23  and  O_26
REMARK   12  A    between atoms: O_26  and  C_27
REMARK   13  A    between atoms: C_28  and  C_40
REMARK   14  A    between atoms: C_32  and  O_39
REMARK   15  A    between atoms: C_34  and  O_38
REMARK   16  A    between atoms: C_42  and  O_47
REMARK   17  A    between atoms: C_43  and  O_46
REMARK   18  A    between atoms: O_48  and  C_49
REMARK   19  A    between atoms: C_51  and  O_61
REMARK   20  A    between atoms: C_53  and  O_60
REMARK   21  A    between atoms: C_55  and  O_59
REMARK                            x       y       z     vdW  Elec       q    Type
REMARK                         _______ _______ _______ _____ _____    ______ ____
ROOT
ATOM      1  C   UNL     1       5.370   0.086  26.830  0.00  0.00    +0.179 C 
ATOM      2  O   UNL     1       5.571   0.350  25.435  0.00  0.00    -0.331 OA
ATOM      3  C   UNL     1       5.798   1.735  25.207  0.00  0.00    +0.340 C 
ATOM      4  C   UNL     1       4.440   2.447  25.436  0.00  0.00    +0.221 C 
ATOM      5  C   UNL     1       4.003   2.148  26.903  0.00  0.00    +0.180 C 
ATOM      6  C   UNL     1       3.993   0.634  27.195  0.00  0.00    +0.177 C 
ENDROOT
BRANCH   6   7
ATOM      7  O   UNL     1       3.677   0.423  28.574  0.00  0.00    -0.386 OA
ATOM      8  H   UNL     1       4.254   1.027  29.078  0.00  0.00    +0.210 HD
ENDBRANCH   6   7
BRANCH   5   9
ATOM      9  O   UNL     1       2.697   2.683  27.175  0.00  0.00    -0.386 OA
ATOM     10  H   UNL     1       2.562   3.375  26.493  0.00  0.00    +0.210 HD
ENDBRANCH   5   9
BRANCH   4  11
ATOM     11  O   UNL     1       4.491   3.879  25.278  0.00  0.00    -0.337 OA
BRANCH  11  12
ATOM     12  C   UNL     1       3.587   4.411  24.312  0.00  0.00    +0.282 C 
ATOM     13  O   UNL     1       4.028   4.074  22.988  0.00  0.00    -0.346 OA
ATOM     14  C   UNL     1       5.261   4.694  22.607  0.00  0.00    +0.197 C 
ATOM     15  C   UNL     1       5.193   6.222  22.709  0.00  0.00    +0.171 C 
ATOM     16  C   UNL     1       4.706   6.648  24.099  0.00  0.00    +0.178 C 
ATOM     17  C   UNL     1       3.381   5.939  24.430  0.00  0.00    +0.201 C 
BRANCH  17  18
ATOM     18  O   UNL     1       2.324   6.370  23.549  0.00  0.00    -0.384 OA
ATOM     19  H   UNL     1       2.386   7.352  23.533  0.00  0.00    +0.210 HD
ENDBRANCH  17  18
BRANCH  16  20
ATOM     20  O   UNL     1       5.722   6.429  25.082  0.00  0.00    -0.386 OA
ATOM     21  H   UNL     1       6.511   5.999  24.686  0.00  0.00    +0.210 HD
ENDBRANCH  16  20
BRANCH  15  22
ATOM     22  O   UNL     1       4.275   6.696  21.709  0.00  0.00    -0.387 OA
ATOM     23  H   UNL     1       4.765   7.306  21.125  0.00  0.00    +0.210 HD
ENDBRANCH  15  22
ENDBRANCH  11  12
ENDBRANCH   4  11
BRANCH   3  24
ATOM     24  O   UNL     1       6.395   1.878  23.895  0.00  0.00    -0.453 OA
BRANCH  24  25
ATOM     25  C   UNL     1       7.755   2.231  23.939  0.00  0.00    +0.214 A 
ATOM     26  C   UNL     1       8.172   3.570  24.495  0.00  0.00    +0.238 A 
ATOM     27  O   UNL     1       7.549   4.165  25.363  0.00  0.00    -0.283 OA
ATOM     28  C   UNL     1       9.423   4.147  24.045  0.00  0.00    +0.109 A 
ATOM     29  C   UNL     1      10.374   3.247  23.608  0.00  0.00    +0.147 A 
ATOM     30  C   UNL     1      11.659   3.704  23.317  0.00  0.00    +0.092 A 
ATOM     31  C   UNL     1      11.948   5.062  23.474  0.00  0.00    +0.124 A 
ATOM     32  C   UNL     1      10.981   5.970  23.889  0.00  0.00    +0.091 A 
ATOM     33  O   UNL     1      10.118   1.905  23.519  0.00  0.00    -0.451 OA
ATOM     34  C   UNL     1       9.705   5.516  24.172  0.00  0.00    +0.135 A 
ATOM     35  C   UNL     1       8.797   1.419  23.604  0.00  0.00    +0.181 A 
BRANCH  35  36
ATOM     36  C   UNL     1       8.780  -0.081  23.406  0.00  0.00    +0.025 A 
ATOM     37  C   UNL     1       9.862  -0.848  23.918  0.00  0.00    +0.015 A 
ATOM     38  C   UNL     1       9.827  -2.247  24.006  0.00  0.00    +0.050 A 
ATOM     39  C   UNL     1       8.716  -2.918  23.543  0.00  0.00    +0.158 A 
ATOM     40  C   UNL     1       7.694  -2.210  22.922  0.00  0.00    +0.159 A 
ATOM     41  C   UNL     1       7.713  -0.809  22.865  0.00  0.00    +0.060 A 
BRANCH  40  42
ATOM     42  O   UNL     1       6.663  -2.930  22.379  0.00  0.00    -0.503 OA
ATOM     43  H   UNL     1       5.871  -2.757  22.928  0.00  0.00    +0.292 HD
ENDBRANCH  40  42
BRANCH  39  44
ATOM     44  O   UNL     1       8.627  -4.267  23.721  0.00  0.00    -0.503 OA
ATOM     45  H   UNL     1       9.522  -4.605  23.523  0.00  0.00    +0.292 HD
ENDBRANCH  39  44
ENDBRANCH  35  36
BRANCH  34  46
ATOM     46  O   UNL     1       8.736   6.403  24.530  0.00  0.00    -0.506 OA
ATOM     47  H   UNL     1       8.986   6.839  25.359  0.00  0.00    +0.292 HD
ENDBRANCH  34  46
BRANCH  31  48
ATOM     48  O   UNL     1      13.186   5.569  23.228  0.00  0.00    -0.507 OA
ATOM     49  H   UNL     1      13.411   5.437  22.296  0.00  0.00    +0.292 HD
ENDBRANCH  31  48
ENDBRANCH  24  25
ENDBRANCH   3  24
BRANCH   1  50
ATOM     50  C   UNL     1       5.545  -1.407  27.056  0.00  0.00    +0.197 C 
BRANCH  50  51
ATOM     51  O   UNL     1       5.540  -2.057  25.790  0.00  0.00    -0.346 OA
BRANCH  51  55
ATOM     52  C   UNL     1       5.722  -6.180  27.122  0.00  0.00    +0.041 C 
ATOM     53  C   UNL     1       6.143  -5.658  25.753  0.00  0.00    +0.149 C 
ATOM     54  O   UNL     1       6.369  -4.245  25.763  0.00  0.00    -0.343 OA
ATOM     55  C   UNL     1       5.199  -3.437  25.884  0.00  0.00    +0.282 C 
ATOM     56  C   UNL     1       4.179  -3.704  24.760  0.00  0.00    +0.201 C 
ATOM     57  C   UNL     1       3.909  -5.204  24.597  0.00  0.00    +0.179 C 
ATOM     58  C   UNL     1       5.215  -6.008  24.582  0.00  0.00    +0.174 C 
BRANCH  58  59
ATOM     59  O   UNL     1       5.917  -5.702  23.363  0.00  0.00    -0.387 OA
ATOM     60  H   UNL     1       6.825  -5.423  23.602  0.00  0.00    +0.210 HD
ENDBRANCH  58  59
BRANCH  57  61
ATOM     61  O   UNL     1       2.998  -5.666  25.606  0.00  0.00    -0.386 OA
ATOM     62  H   UNL     1       3.172  -6.601  25.806  0.00  0.00    +0.210 HD
ENDBRANCH  57  61
BRANCH  56  63
ATOM     63  O   UNL     1       2.948  -3.007  25.034  0.00  0.00    -0.384 OA
ATOM     64  H   UNL     1       2.264  -3.676  25.219  0.00  0.00    +0.210 HD
ENDBRANCH  56  63
ENDBRANCH  51  55
ENDBRANCH  50  51
ENDBRANCH   1  50
TORSDOF 20
ENDMDL
MODEL 6
REMARK VINA RESULT:      -6.8      3.061      8.250
REMARK  Name = 
REMARK  21 active torsions:
REMARK  status: ('A' for Active; 'I' for Inactive)
REMARK    1  A    between atoms: C_1  and  C_2
REMARK    2  A    between atoms: C_4  and  O_66
REMARK    3  A    between atoms: C_6  and  O_65
REMARK    4  A    between atoms: C_8  and  O_64
REMARK    5  A    between atoms: C_10  and  O_13
REMARK    6  A    between atoms: O_13  and  C_14
REMARK    7  A    between atoms: C_14  and  C_15
REMARK    8  A    between atoms: C_17  and  O_63
REMARK    9  A    between atoms: C_19  and  O_62
REMARK   10  A    between atoms: C_21  and  O_48
REMARK   11  A    between atoms: C_23  and  O_26
REMARK   12  A    between atoms: O_26  and  C_27
REMARK   13  A    between atoms: C_28  and  C_40
REMARK   14  A    between atoms: C_32  and  O_39
REMARK   15  A    between atoms: C_34  and  O_38
REMARK   16  A    between atoms: C_42  and  O_47
REMARK   17  A    between atoms: C_43  and  O_46
REMARK   18  A    between atoms: O_48  and  C_49
REMARK   19  A    between atoms: C_51  and  O_61
REMARK   20  A    between atoms: C_53  and  O_60
REMARK   21  A    between atoms: C_55  and  O_59
REMARK                            x       y       z     vdW  Elec       q    Type
REMARK                         _______ _______ _______ _____ _____    ______ ____
ROOT
ATOM      1  C   UNL     1       6.946  -2.915  23.135  0.00  0.00    +0.179 C 
ATOM      2  O   UNL     1       5.754  -2.210  23.506  0.00  0.00    -0.331 OA
ATOM      3  C   UNL     1       5.087  -2.868  24.576  0.00  0.00    +0.340 C 
ATOM      4  C   UNL     1       4.475  -4.163  23.982  0.00  0.00    +0.221 C 
ATOM      5  C   UNL     1       5.652  -5.007  23.404  0.00  0.00    +0.180 C 
ATOM      6  C   UNL     1       6.507  -4.188  22.417  0.00  0.00    +0.177 C 
ENDROOT
BRANCH   6   7
ATOM      7  O   UNL     1       7.621  -4.978  21.991  0.00  0.00    -0.386 OA
ATOM      8  H   UNL     1       7.259  -5.646  21.380  0.00  0.00    +0.210 HD
ENDBRANCH   6   7
BRANCH   5   9
ATOM      9  O   UNL     1       5.168  -6.183  22.736  0.00  0.00    -0.386 OA
ATOM     10  H   UNL     1       5.568  -6.933  23.226  0.00  0.00    +0.210 HD
ENDBRANCH   5   9
BRANCH   4  11
ATOM     11  O   UNL     1       3.781  -4.982  24.944  0.00  0.00    -0.337 OA
BRANCH  11  12
ATOM     12  C   UNL     1       2.433  -5.299  24.604  0.00  0.00    +0.282 C 
ATOM     13  O   UNL     1       1.608  -5.264  25.778  0.00  0.00    -0.346 OA
ATOM     14  C   UNL     1       1.914  -6.281  26.738  0.00  0.00    +0.197 C 
ATOM     15  C   UNL     1       1.821  -7.688  26.136  0.00  0.00    +0.171 C 
ATOM     16  C   UNL     1       2.668  -7.785  24.861  0.00  0.00    +0.178 C 
ATOM     17  C   UNL     1       2.278  -6.660  23.886  0.00  0.00    +0.201 C 
BRANCH  17  18
ATOM     18  O   UNL     1       0.925  -6.824  23.413  0.00  0.00    -0.384 OA
ATOM     19  H   UNL     1       0.542  -7.538  23.972  0.00  0.00    +0.210 HD
ENDBRANCH  17  18
BRANCH  16  20
ATOM     20  O   UNL     1       4.063  -7.797  25.178  0.00  0.00    -0.386 OA
ATOM     21  H   UNL     1       4.263  -8.462  25.872  0.00  0.00    +0.210 HD
ENDBRANCH  16  20
BRANCH  15  22
ATOM     22  O   UNL     1       0.443  -7.950  25.822  0.00  0.00    -0.387 OA
ATOM     23  H   UNL     1      -0.088  -7.217  26.187  0.00  0.00    +0.210 HD
ENDBRANCH  15  22
ENDBRANCH  11  12
ENDBRANCH   4  11
BRANCH   3  24
ATOM     24  O   UNL     1       4.162  -1.925  25.171  0.00  0.00    -0.453 OA
BRANCH  24  25
ATOM     25  C   UNL     1       4.716  -1.206  26.245  0.00  0.00    +0.214 A 
ATOM     26  C   UNL     1       4.377   0.251  26.437  0.00  0.00    +0.238 A 
ATOM     27  O   UNL     1       3.312   0.747  26.097  0.00  0.00    -0.283 OA
ATOM     28  C   UNL     1       5.321   1.094  27.141  0.00  0.00    +0.109 A 
ATOM     29  C   UNL     1       6.150   0.448  28.036  0.00  0.00    +0.147 A 
ATOM     30  C   UNL     1       6.970   1.205  28.872  0.00  0.00    +0.092 A 
ATOM     31  C   UNL     1       6.931   2.599  28.779  0.00  0.00    +0.124 A 
ATOM     32  C   UNL     1       6.115   3.246  27.859  0.00  0.00    +0.091 A 
ATOM     33  O   UNL     1       6.142  -0.913  28.181  0.00  0.00    -0.451 OA
ATOM     34  C   UNL     1       5.306   2.494  27.026  0.00  0.00    +0.135 A 
ATOM     35  C   UNL     1       5.491  -1.731  27.235  0.00  0.00    +0.181 A 
BRANCH  35  36
ATOM     36  C   UNL     1       5.690  -3.191  27.585  0.00  0.00    +0.025 A 
ATOM     37  C   UNL     1       4.640  -3.879  28.254  0.00  0.00    +0.015 A 
ATOM     38  C   UNL     1       4.620  -5.274  28.402  0.00  0.00    +0.050 A 
ATOM     39  C   UNL     1       5.677  -6.012  27.917  0.00  0.00    +0.158 A 
ATOM     40  C   UNL     1       6.777  -5.363  27.369  0.00  0.00    +0.159 A 
ATOM     41  C   UNL     1       6.783  -3.972  27.190  0.00  0.00    +0.060 A 
BRANCH  40  42
ATOM     42  O   UNL     1       7.850  -6.131  27.002  0.00  0.00    -0.503 OA
ATOM     43  H   UNL     1       8.504  -6.076  27.729  0.00  0.00    +0.292 HD
ENDBRANCH  40  42
BRANCH  39  44
ATOM     44  O   UNL     1       5.617  -7.374  27.960  0.00  0.00    -0.503 OA
ATOM     45  H   UNL     1       5.918  -7.665  27.076  0.00  0.00    +0.292 HD
ENDBRANCH  39  44
ENDBRANCH  35  36
BRANCH  34  46
ATOM     46  O   UNL     1       4.542   3.114  26.086  0.00  0.00    -0.506 OA
ATOM     47  H   UNL     1       5.034   3.165  25.252  0.00  0.00    +0.292 HD
ENDBRANCH  34  46
BRANCH  31  48
ATOM     48  O   UNL     1       7.689   3.396  29.580  0.00  0.00    -0.507 OA
ATOM     49  H   UNL     1       7.652   4.308  29.258  0.00  0.00    +0.292 HD
ENDBRANCH  31  48
ENDBRANCH  24  25
ENDBRANCH   3  24
BRANCH   1  50
ATOM     50  C   UNL     1       7.807  -1.976  22.305  0.00  0.00    +0.197 C 
BRANCH  50  51
ATOM     51  O   UNL     1       7.437  -0.636  22.611  0.00  0.00    -0.346 OA
BRANCH  51  55
ATOM     52  C   UNL     1      11.133   0.641  24.484  0.00  0.00    +0.041 C 
ATOM     53  C   UNL     1       9.750   1.235  24.727  0.00  0.00    +0.149 C 
ATOM     54  O   UNL     1       8.705   0.349  24.312  0.00  0.00    -0.343 OA
ATOM     55  C   UNL     1       8.560   0.190  22.902  0.00  0.00    +0.282 C 
ATOM     56  C   UNL     1       8.306   1.527  22.179  0.00  0.00    +0.201 C 
ATOM     57  C   UNL     1       9.324   2.592  22.604  0.00  0.00    +0.179 C 
ATOM     58  C   UNL     1       9.497   2.624  24.127  0.00  0.00    +0.174 C 
BRANCH  58  59
ATOM     59  O   UNL     1       8.281   3.134  24.706  0.00  0.00    -0.387 OA
ATOM     60  H   UNL     1       8.523   3.650  25.503  0.00  0.00    +0.210 HD
ENDBRANCH  58  59
BRANCH  57  61
ATOM     61  O   UNL     1      10.572   2.399  21.919  0.00  0.00    -0.386 OA
ATOM     62  H   UNL     1      11.263   2.146  22.555  0.00  0.00    +0.210 HD
ENDBRANCH  57  61
BRANCH  56  63
ATOM     63  O   UNL     1       8.356   1.336  20.752  0.00  0.00    -0.384 OA
ATOM     64  H   UNL     1       9.209   1.687  20.437  0.00  0.00    +0.210 HD
ENDBRANCH  56  63
ENDBRANCH  51  55
ENDBRANCH  50  51
ENDBRANCH   1  50
TORSDOF 20
ENDMDL
MODEL 7
REMARK VINA RESULT:      -6.8      2.756      8.405
REMARK  Name = 
REMARK  21 active torsions:
REMARK  status: ('A' for Active; 'I' for Inactive)
REMARK    1  A    between atoms: C_1  and  C_2
REMARK    2  A    between atoms: C_4  and  O_66
REMARK    3  A    between atoms: C_6  and  O_65
REMARK    4  A    between atoms: C_8  and  O_64
REMARK    5  A    between atoms: C_10  and  O_13
REMARK    6  A    between atoms: O_13  and  C_14
REMARK    7  A    between atoms: C_14  and  C_15
REMARK    8  A    between atoms: C_17  and  O_63
REMARK    9  A    between atoms: C_19  and  O_62
REMARK   10  A    between atoms: C_21  and  O_48
REMARK   11  A    between atoms: C_23  and  O_26
REMARK   12  A    between atoms: O_26  and  C_27
REMARK   13  A    between atoms: C_28  and  C_40
REMARK   14  A    between atoms: C_32  and  O_39
REMARK   15  A    between atoms: C_34  and  O_38
REMARK   16  A    between atoms: C_42  and  O_47
REMARK   17  A    between atoms: C_43  and  O_46
REMARK   18  A    between atoms: O_48  and  C_49
REMARK   19  A    between atoms: C_51  and  O_61
REMARK   20  A    between atoms: C_53  and  O_60
REMARK   21  A    between atoms: C_55  and  O_59
REMARK                            x       y       z     vdW  Elec       q    Type
REMARK                         _______ _______ _______ _____ _____    ______ ____
ROOT
ATOM      1  C   UNL     1       8.546  -2.266  25.325  0.00  0.00    +0.179 C 
ATOM      2  O   UNL     1       7.190  -1.858  25.101  0.00  0.00    -0.331 OA
ATOM      3  C   UNL     1       6.279  -2.844  25.571  0.00  0.00    +0.340 C 
ATOM      4  C   UNL     1       6.379  -4.039  24.588  0.00  0.00    +0.221 C 
ATOM      5  C   UNL     1       7.858  -4.534  24.612  0.00  0.00    +0.180 C 
ATOM      6  C   UNL     1       8.846  -3.384  24.331  0.00  0.00    +0.177 C 
ENDROOT
BRANCH   6   7
ATOM      7  O   UNL     1      10.185  -3.872  24.457  0.00  0.00    -0.386 OA
ATOM      8  H   UNL     1      10.652  -3.588  23.649  0.00  0.00    +0.210 HD
ENDBRANCH   6   7
BRANCH   5   9
ATOM      9  O   UNL     1       8.072  -5.577  23.648  0.00  0.00    -0.386 OA
ATOM     10  H   UNL     1       7.355  -6.225  23.815  0.00  0.00    +0.210 HD
ENDBRANCH   5   9
BRANCH   4  11
ATOM     11  O   UNL     1       5.539  -5.158  24.932  0.00  0.00    -0.337 OA
BRANCH  11  12
ATOM     12  C   UNL     1       4.483  -5.423  24.011  0.00  0.00    +0.282 C 
ATOM     13  O   UNL     1       3.373  -4.552  24.270  0.00  0.00    -0.346 OA
ATOM     14  C   UNL     1       2.729  -4.785  25.528  0.00  0.00    +0.197 C 
ATOM     15  C   UNL     1       2.238  -6.231  25.664  0.00  0.00    +0.171 C 
ATOM     16  C   UNL     1       3.377  -7.216  25.377  0.00  0.00    +0.178 C 
ATOM     17  C   UNL     1       4.014  -6.897  24.013  0.00  0.00    +0.201 C 
BRANCH  17  18
ATOM     18  O   UNL     1       3.082  -7.126  22.936  0.00  0.00    -0.384 OA
ATOM     19  H   UNL     1       3.639  -7.335  22.152  0.00  0.00    +0.210 HD
ENDBRANCH  17  18
BRANCH  16  20
ATOM     20  O   UNL     1       4.323  -7.225  26.450  0.00  0.00    -0.386 OA
ATOM     21  H   UNL     1       5.233  -7.391  26.120  0.00  0.00    +0.210 HD
ENDBRANCH  16  20
BRANCH  15  22
ATOM     22  O   UNL     1       1.174  -6.434  24.719  0.00  0.00    -0.387 OA
ATOM     23  H   UNL     1       1.581  -6.610  23.850  0.00  0.00    +0.210 HD
ENDBRANCH  15  22
ENDBRANCH  11  12
ENDBRANCH   4  11
BRANCH   3  24
ATOM     24  O   UNL     1       4.978  -2.220  25.706  0.00  0.00    -0.453 OA
BRANCH  24  25
ATOM     25  C   UNL     1       4.929  -1.254  26.726  0.00  0.00    +0.214 A 
ATOM     26  C   UNL     1       5.150   0.202  26.401  0.00  0.00    +0.238 A 
ATOM     27  O   UNL     1       4.863   0.706  25.324  0.00  0.00    -0.283 OA
ATOM     28  C   UNL     1       5.645   1.076  27.445  0.00  0.00    +0.109 A 
ATOM     29  C   UNL     1       5.359   0.686  28.739  0.00  0.00    +0.147 A 
ATOM     30  C   UNL     1       5.653   1.552  29.790  0.00  0.00    +0.092 A 
ATOM     31  C   UNL     1       6.231   2.793  29.507  0.00  0.00    +0.124 A 
ATOM     32  C   UNL     1       6.541   3.172  28.206  0.00  0.00    +0.091 A 
ATOM     33  O   UNL     1       4.729  -0.497  29.017  0.00  0.00    -0.451 OA
ATOM     34  C   UNL     1       6.254   2.309  27.164  0.00  0.00    +0.135 A 
ATOM     35  C   UNL     1       4.594  -1.490  28.026  0.00  0.00    +0.181 A 
BRANCH  35  36
ATOM     36  C   UNL     1       3.929  -2.719  28.606  0.00  0.00    +0.025 A 
ATOM     37  C   UNL     1       2.532  -2.679  28.867  0.00  0.00    +0.015 A 
ATOM     38  C   UNL     1       1.782  -3.826  29.167  0.00  0.00    +0.050 A 
ATOM     39  C   UNL     1       2.426  -5.041  29.255  0.00  0.00    +0.158 A 
ATOM     40  C   UNL     1       3.809  -5.098  29.129  0.00  0.00    +0.159 A 
ATOM     41  C   UNL     1       4.554  -3.958  28.795  0.00  0.00    +0.060 A 
BRANCH  40  42
ATOM     42  O   UNL     1       4.415  -6.309  29.334  0.00  0.00    -0.503 OA
ATOM     43  H   UNL     1       4.095  -6.912  28.633  0.00  0.00    +0.292 HD
ENDBRANCH  40  42
BRANCH  39  44
ATOM     44  O   UNL     1       1.691  -6.175  29.440  0.00  0.00    -0.503 OA
ATOM     45  H   UNL     1       1.754  -6.655  28.591  0.00  0.00    +0.292 HD
ENDBRANCH  39  44
ENDBRANCH  35  36
BRANCH  34  46
ATOM     46  O   UNL     1       6.601   2.648  25.891  0.00  0.00    -0.506 OA
ATOM     47  H   UNL     1       7.536   2.438  25.745  0.00  0.00    +0.292 HD
ENDBRANCH  34  46
BRANCH  31  48
ATOM     48  O   UNL     1       6.522   3.693  30.485  0.00  0.00    -0.507 OA
ATOM     49  H   UNL     1       5.760   4.270  30.632  0.00  0.00    +0.292 HD
ENDBRANCH  31  48
ENDBRANCH  24  25
ENDBRANCH   3  24
BRANCH   1  50
ATOM     50  C   UNL     1       9.433  -1.037  25.194  0.00  0.00    +0.197 C 
BRANCH  50  51
ATOM     51  O   UNL     1       8.604   0.119  25.194  0.00  0.00    -0.346 OA
BRANCH  51  55
ATOM     52  C   UNL     1      10.880   3.343  23.399  0.00  0.00    +0.041 C 
ATOM     53  C   UNL     1       9.452   3.435  23.924  0.00  0.00    +0.149 C 
ATOM     54  O   UNL     1       9.140   2.365  24.822  0.00  0.00    -0.343 OA
ATOM     55  C   UNL     1       9.002   1.079  24.220  0.00  0.00    +0.282 C 
ATOM     56  C   UNL     1       7.918   1.053  23.125  0.00  0.00    +0.201 C 
ATOM     57  C   UNL     1       8.100   2.209  22.135  0.00  0.00    +0.179 C 
ATOM     58  C   UNL     1       8.348   3.536  22.863  0.00  0.00    +0.174 C 
BRANCH  58  59
ATOM     59  O   UNL     1       7.132   3.913  23.535  0.00  0.00    -0.387 OA
ATOM     60  H   UNL     1       7.025   3.327  24.312  0.00  0.00    +0.210 HD
ENDBRANCH  58  59
BRANCH  57  61
ATOM     61  O   UNL     1       9.138   1.906  21.190  0.00  0.00    -0.386 OA
ATOM     62  H   UNL     1       9.909   1.536  21.652  0.00  0.00    +0.210 HD
ENDBRANCH  57  61
BRANCH  56  63
ATOM     63  O   UNL     1       7.951  -0.206  22.426  0.00  0.00    -0.384 OA
ATOM     64  H   UNL     1       8.633  -0.760  22.847  0.00  0.00    +0.210 HD
ENDBRANCH  56  63
ENDBRANCH  51  55
ENDBRANCH  50  51
ENDBRANCH   1  50
TORSDOF 20
ENDMDL
MODEL 8
REMARK VINA RESULT:      -6.8      1.781      5.134
REMARK  Name = 
REMARK  21 active torsions:
REMARK  status: ('A' for Active; 'I' for Inactive)
REMARK    1  A    between atoms: C_1  and  C_2
REMARK    2  A    between atoms: C_4  and  O_66
REMARK    3  A    between atoms: C_6  and  O_65
REMARK    4  A    between atoms: C_8  and  O_64
REMARK    5  A    between atoms: C_10  and  O_13
REMARK    6  A    between atoms: O_13  and  C_14
REMARK    7  A    between atoms: C_14  and  C_15
REMARK    8  A    between atoms: C_17  and  O_63
REMARK    9  A    between atoms: C_19  and  O_62
REMARK   10  A    between atoms: C_21  and  O_48
REMARK   11  A    between atoms: C_23  and  O_26
REMARK   12  A    between atoms: O_26  and  C_27
REMARK   13  A    between atoms: C_28  and  C_40
REMARK   14  A    between atoms: C_32  and  O_39
REMARK   15  A    between atoms: C_34  and  O_38
REMARK   16  A    between atoms: C_42  and  O_47
REMARK   17  A    between atoms: C_43  and  O_46
REMARK   18  A    between atoms: O_48  and  C_49
REMARK   19  A    between atoms: C_51  and  O_61
REMARK   20  A    between atoms: C_53  and  O_60
REMARK   21  A    between atoms: C_55  and  O_59
REMARK                            x       y       z     vdW  Elec       q    Type
REMARK                         _______ _______ _______ _____ _____    ______ ____
ROOT
ATOM      1  C   UNL     1       4.528   0.369  26.634  0.00  0.00    +0.179 C 
ATOM      2  O   UNL     1       4.792   0.198  25.235  0.00  0.00    -0.331 OA
ATOM      3  C   UNL     1       5.662   1.214  24.753  0.00  0.00    +0.340 C 
ATOM      4  C   UNL     1       4.834   2.524  24.725  0.00  0.00    +0.221 C 
ATOM      5  C   UNL     1       4.349   2.796  26.182  0.00  0.00    +0.180 C 
ATOM      6  C   UNL     1       3.608   1.578  26.770  0.00  0.00    +0.177 C 
ENDROOT
BRANCH   6   7
ATOM      7  O   UNL     1       3.268   1.847  28.134  0.00  0.00    -0.386 OA
ATOM      8  H   UNL     1       2.369   2.223  28.118  0.00  0.00    +0.210 HD
ENDBRANCH   6   7
BRANCH   5   9
ATOM      9  O   UNL     1       3.482   3.940  26.236  0.00  0.00    -0.386 OA
ATOM     10  H   UNL     1       3.835   4.555  25.559  0.00  0.00    +0.210 HD
ENDBRANCH   5   9
BRANCH   4  11
ATOM     11  O   UNL     1       5.576   3.681  24.289  0.00  0.00    -0.337 OA
BRANCH  11  12
ATOM     12  C   UNL     1       5.130   4.253  23.061  0.00  0.00    +0.282 C 
ATOM     13  O   UNL     1       6.101   4.022  22.030  0.00  0.00    -0.346 OA
ATOM     14  C   UNL     1       7.345   4.701  22.235  0.00  0.00    +0.197 C 
ATOM     15  C   UNL     1       7.157   6.216  22.377  0.00  0.00    +0.171 C 
ATOM     16  C   UNL     1       6.111   6.531  23.453  0.00  0.00    +0.178 C 
ATOM     17  C   UNL     1       4.810   5.763  23.160  0.00  0.00    +0.201 C 
BRANCH  17  18
ATOM     18  O   UNL     1       4.196   6.225  21.939  0.00  0.00    -0.384 OA
ATOM     19  H   UNL     1       3.275   6.468  22.189  0.00  0.00    +0.210 HD
ENDBRANCH  17  18
BRANCH  16  20
ATOM     20  O   UNL     1       6.634   6.272  24.760  0.00  0.00    -0.386 OA
ATOM     21  H   UNL     1       7.340   6.914  24.992  0.00  0.00    +0.210 HD
ENDBRANCH  16  20
BRANCH  15  22
ATOM     22  O   UNL     1       6.717   6.733  21.110  0.00  0.00    -0.387 OA
ATOM     23  H   UNL     1       7.306   6.370  20.422  0.00  0.00    +0.210 HD
ENDBRANCH  15  22
ENDBRANCH  11  12
ENDBRANCH   4  11
BRANCH   3  24
ATOM     24  O   UNL     1       6.214   0.765  23.491  0.00  0.00    -0.453 OA
BRANCH  24  25
ATOM     25  C   UNL     1       7.214  -0.212  23.638  0.00  0.00    +0.214 A 
ATOM     26  C   UNL     1       6.929  -1.647  23.271  0.00  0.00    +0.238 A 
ATOM     27  O   UNL     1       6.135  -1.978  22.402  0.00  0.00    -0.283 OA
ATOM     28  C   UNL     1       7.699  -2.692  23.916  0.00  0.00    +0.109 A 
ATOM     29  C   UNL     1       8.951  -2.322  24.366  0.00  0.00    +0.147 A 
ATOM     30  C   UNL     1       9.818  -3.303  24.845  0.00  0.00    +0.092 A 
ATOM     31  C   UNL     1       9.395  -4.634  24.860  0.00  0.00    +0.124 A 
ATOM     32  C   UNL     1       8.124  -5.000  24.431  0.00  0.00    +0.091 A 
ATOM     33  O   UNL     1       9.398  -1.030  24.289  0.00  0.00    -0.451 OA
ATOM     34  C   UNL     1       7.263  -4.025  23.960  0.00  0.00    +0.135 A 
ATOM     35  C   UNL     1       8.505   0.023  24.005  0.00  0.00    +0.181 A 
BRANCH  35  36
ATOM     36  C   UNL     1       9.232   1.349  24.048  0.00  0.00    +0.025 A 
ATOM     37  C   UNL     1      10.356   1.537  23.198  0.00  0.00    +0.015 A 
ATOM     38  C   UNL     1      10.943   2.792  22.980  0.00  0.00    +0.050 A 
ATOM     39  C   UNL     1      10.440   3.889  23.645  0.00  0.00    +0.158 A 
ATOM     40  C   UNL     1       9.424   3.722  24.578  0.00  0.00    +0.159 A 
ATOM     41  C   UNL     1       8.815   2.473  24.771  0.00  0.00    +0.060 A 
BRANCH  40  42
ATOM     42  O   UNL     1       9.033   4.822  25.295  0.00  0.00    -0.503 OA
ATOM     43  H   UNL     1       9.832   5.369  25.438  0.00  0.00    +0.292 HD
ENDBRANCH  40  42
BRANCH  39  44
ATOM     44  O   UNL     1      10.933   5.128  23.360  0.00  0.00    -0.503 OA
ATOM     45  H   UNL     1      10.537   5.362  22.497  0.00  0.00    +0.292 HD
ENDBRANCH  39  44
ENDBRANCH  35  36
BRANCH  34  46
ATOM     46  O   UNL     1       5.998  -4.364  23.586  0.00  0.00    -0.506 OA
ATOM     47  H   UNL     1       5.994  -5.271  23.244  0.00  0.00    +0.292 HD
ENDBRANCH  34  46
BRANCH  31  48
ATOM     48  O   UNL     1      10.199  -5.642  25.295  0.00  0.00    -0.507 OA
ATOM     49  H   UNL     1      10.111  -5.735  26.254  0.00  0.00    +0.292 HD
ENDBRANCH  31  48
ENDBRANCH  24  25
ENDBRANCH   3  24
BRANCH   1  50
ATOM     50  C   UNL     1       3.956  -0.935  27.167  0.00  0.00    +0.197 C 
BRANCH  50  51
ATOM     51  O   UNL     1       4.339  -1.987  26.290  0.00  0.00    -0.346 OA
BRANCH  51  55
ATOM     52  C   UNL     1       5.693  -5.288  28.753  0.00  0.00    +0.041 C 
ATOM     53  C   UNL     1       5.639  -5.267  27.229  0.00  0.00    +0.149 C 
ATOM     54  O   UNL     1       5.565  -3.934  26.714  0.00  0.00    -0.343 OA
ATOM     55  C   UNL     1       4.324  -3.263  26.923  0.00  0.00    +0.282 C 
ATOM     56  C   UNL     1       3.130  -4.027  26.318  0.00  0.00    +0.201 C 
ATOM     57  C   UNL     1       3.142  -5.501  26.738  0.00  0.00    +0.179 C 
ATOM     58  C   UNL     1       4.538  -6.116  26.581  0.00  0.00    +0.174 C 
BRANCH  58  59
ATOM     59  O   UNL     1       4.832  -6.210  25.174  0.00  0.00    -0.387 OA
ATOM     60  H   UNL     1       5.185  -5.344  24.884  0.00  0.00    +0.210 HD
ENDBRANCH  58  59
BRANCH  57  61
ATOM     61  O   UNL     1       2.629  -5.650  28.071  0.00  0.00    -0.386 OA
ATOM     62  H   UNL     1       3.319  -5.424  28.718  0.00  0.00    +0.210 HD
ENDBRANCH  57  61
BRANCH  56  63
ATOM     63  O   UNL     1       1.892  -3.408  26.718  0.00  0.00    -0.384 OA
ATOM     64  H   UNL     1       1.168  -4.019  26.489  0.00  0.00    +0.210 HD
ENDBRANCH  56  63
ENDBRANCH  51  55
ENDBRANCH  50  51
ENDBRANCH   1  50
TORSDOF 20
ENDMDL
MODEL 9
REMARK VINA RESULT:      -6.7      3.050      7.030
REMARK  Name = 
REMARK  21 active torsions:
REMARK  status: ('A' for Active; 'I' for Inactive)
REMARK    1  A    between atoms: C_1  and  C_2
REMARK    2  A    between atoms: C_4  and  O_66
REMARK    3  A    between atoms: C_6  and  O_65
REMARK    4  A    between atoms: C_8  and  O_64
REMARK    5  A    between atoms: C_10  and  O_13
REMARK    6  A    between atoms: O_13  and  C_14
REMARK    7  A    between atoms: C_14  and  C_15
REMARK    8  A    between atoms: C_17  and  O_63
REMARK    9  A    between atoms: C_19  and  O_62
REMARK   10  A    between atoms: C_21  and  O_48
REMARK   11  A    between atoms: C_23  and  O_26
REMARK   12  A    between atoms: O_26  and  C_27
REMARK   13  A    between atoms: C_28  and  C_40
REMARK   14  A    between atoms: C_32  and  O_39
REMARK   15  A    between atoms: C_34  and  O_38
REMARK   16  A    between atoms: C_42  and  O_47
REMARK   17  A    between atoms: C_43  and  O_46
REMARK   18  A    between atoms: O_48  and  C_49
REMARK   19  A    between atoms: C_51  and  O_61
REMARK   20  A    between atoms: C_53  and  O_60
REMARK   21  A    between atoms: C_55  and  O_59
REMARK                            x       y       z     vdW  Elec       q    Type
REMARK                         _______ _______ _______ _____ _____    ______ ____
ROOT
ATOM      1  C   UNL     1       5.079  -3.181  23.374  0.00  0.00    +0.179 C 
ATOM      2  O   UNL     1       5.668  -2.951  24.660  0.00  0.00    -0.331 OA
ATOM      3  C   UNL     1       6.467  -1.775  24.650  0.00  0.00    +0.340 C 
ATOM      4  C   UNL     1       7.732  -2.111  23.818  0.00  0.00    +0.221 C 
ATOM      5  C   UNL     1       7.251  -2.517  22.391  0.00  0.00    +0.180 C 
ATOM      6  C   UNL     1       6.199  -3.643  22.446  0.00  0.00    +0.177 C 
ENDROOT
BRANCH   6   7
ATOM      7  O   UNL     1       5.727  -3.910  21.122  0.00  0.00    -0.386 OA
ATOM      8  H   UNL     1       4.754  -3.860  21.169  0.00  0.00    +0.210 HD
ENDBRANCH   6   7
BRANCH   5   9
ATOM      9  O   UNL     1       8.352  -2.948  21.576  0.00  0.00    -0.386 OA
ATOM     10  H   UNL     1       8.290  -2.405  20.762  0.00  0.00    +0.210 HD
ENDBRANCH   5   9
BRANCH   4  11
ATOM     11  O   UNL     1       8.651  -1.009  23.673  0.00  0.00    -0.337 OA
BRANCH  11  12
ATOM     12  C   UNL     1       8.043   0.244  23.367  0.00  0.00    +0.282 C 
ATOM     13  O   UNL     1       8.543   0.740  22.117  0.00  0.00    -0.346 OA
ATOM     14  C   UNL     1       9.932   1.086  22.138  0.00  0.00    +0.197 C 
ATOM     15  C   UNL     1      10.251   2.123  23.219  0.00  0.00    +0.171 C 
ATOM     16  C   UNL     1       9.723   1.660  24.583  0.00  0.00    +0.178 C 
ATOM     17  C   UNL     1       8.229   1.309  24.473  0.00  0.00    +0.201 C 
BRANCH  17  18
ATOM     18  O   UNL     1       7.438   2.479  24.178  0.00  0.00    -0.384 OA
ATOM     19  H   UNL     1       7.411   2.531  23.196  0.00  0.00    +0.210 HD
ENDBRANCH  17  18
BRANCH  16  20
ATOM     20  O   UNL     1      10.517   0.587  25.097  0.00  0.00    -0.386 OA
ATOM     21  H   UNL     1      10.457  -0.206  24.520  0.00  0.00    +0.210 HD
ENDBRANCH  16  20
BRANCH  15  22
ATOM     22  O   UNL     1       9.621   3.362  22.852  0.00  0.00    -0.387 OA
ATOM     23  H   UNL     1       8.985   3.590  23.557  0.00  0.00    +0.210 HD
ENDBRANCH  15  22
ENDBRANCH  11  12
ENDBRANCH   4  11
BRANCH   3  24
ATOM     24  O   UNL     1       6.681  -1.371  26.025  0.00  0.00    -0.453 OA
BRANCH  24  25
ATOM     25  C   UNL     1       5.496  -1.005  26.687  0.00  0.00    +0.214 A 
ATOM     26  C   UNL     1       4.821   0.304  26.363  0.00  0.00    +0.238 A 
ATOM     27  O   UNL     1       4.879   0.841  25.265  0.00  0.00    -0.283 OA
ATOM     28  C   UNL     1       3.985   0.920  27.373  0.00  0.00    +0.109 A 
ATOM     29  C   UNL     1       3.427   0.058  28.296  0.00  0.00    +0.147 A 
ATOM     30  C   UNL     1       2.481   0.546  29.196  0.00  0.00    +0.092 A 
ATOM     31  C   UNL     1       2.124   1.896  29.141  0.00  0.00    +0.124 A 
ATOM     32  C   UNL     1       2.706   2.767  28.227  0.00  0.00    +0.091 A 
ATOM     33  O   UNL     1       3.720  -1.279  28.310  0.00  0.00    -0.451 OA
ATOM     34  C   UNL     1       3.649   2.283  27.339  0.00  0.00    +0.135 A 
ATOM     35  C   UNL     1       4.806  -1.784  27.566  0.00  0.00    +0.181 A 
BRANCH  35  36
ATOM     36  C   UNL     1       4.957  -3.270  27.808  0.00  0.00    +0.025 A 
ATOM     37  C   UNL     1       3.783  -4.068  27.899  0.00  0.00    +0.015 A 
ATOM     38  C   UNL     1       3.814  -5.470  27.874  0.00  0.00    +0.050 A 
ATOM     39  C   UNL     1       5.031  -6.110  27.799  0.00  0.00    +0.158 A 
ATOM     40  C   UNL     1       6.204  -5.366  27.835  0.00  0.00    +0.159 A 
ATOM     41  C   UNL     1       6.173  -3.964  27.825  0.00  0.00    +0.060 A 
BRANCH  40  42
ATOM     42  O   UNL     1       7.390  -6.050  27.871  0.00  0.00    -0.503 OA
ATOM     43  H   UNL     1       7.286  -6.834  27.294  0.00  0.00    +0.292 HD
ENDBRANCH  40  42
BRANCH  39  44
ATOM     44  O   UNL     1       5.066  -7.467  27.667  0.00  0.00    -0.503 OA
ATOM     45  H   UNL     1       5.790  -7.757  28.256  0.00  0.00    +0.292 HD
ENDBRANCH  39  44
ENDBRANCH  35  36
BRANCH  34  46
ATOM     46  O   UNL     1       4.264   3.137  26.475  0.00  0.00    -0.506 OA
ATOM     47  H   UNL     1       5.002   3.576  26.925  0.00  0.00    +0.292 HD
ENDBRANCH  34  46
BRANCH  31  48
ATOM     48  O   UNL     1       1.192   2.430  29.976  0.00  0.00    -0.507 OA
ATOM     49  H   UNL     1       0.996   3.338  29.705  0.00  0.00    +0.292 HD
ENDBRANCH  31  48
ENDBRANCH  24  25
ENDBRANCH   3  24
BRANCH   1  50
ATOM     50  C   UNL     1       3.942  -4.176  23.549  0.00  0.00    +0.197 C 
BRANCH  50  51
ATOM     51  O   UNL     1       4.286  -5.378  22.870  0.00  0.00    -0.346 OA
BRANCH  51  55
ATOM     52  C   UNL     1       0.949  -7.885  21.698  0.00  0.00    +0.041 C 
ATOM     53  C   UNL     1       0.903  -6.739  22.702  0.00  0.00    +0.149 C 
ATOM     54  O   UNL     1       2.017  -5.853  22.557  0.00  0.00    -0.343 OA
ATOM     55  C   UNL     1       3.276  -6.377  22.976  0.00  0.00    +0.282 C 
ATOM     56  C   UNL     1       3.269  -6.824  24.451  0.00  0.00    +0.201 C 
ATOM     57  C   UNL     1       2.067  -7.724  24.753  0.00  0.00    +0.179 C 
ATOM     58  C   UNL     1       0.771  -7.140  24.178  0.00  0.00    +0.174 C 
BRANCH  58  59
ATOM     59  O   UNL     1       0.443  -5.953  24.924  0.00  0.00    -0.387 OA
ATOM     60  H   UNL     1       1.067  -5.248  24.653  0.00  0.00    +0.210 HD
ENDBRANCH  58  59
BRANCH  57  61
ATOM     61  O   UNL     1       2.310  -9.063  24.294  0.00  0.00    -0.386 OA
ATOM     62  H   UNL     1       2.945  -9.050  23.558  0.00  0.00    +0.210 HD
ENDBRANCH  57  61
BRANCH  56  63
ATOM     63  O   UNL     1       4.495  -7.512  24.765  0.00  0.00    -0.384 OA
ATOM     64  H   UNL     1       4.706  -7.329  25.699  0.00  0.00    +0.210 HD
ENDBRANCH  56  63
ENDBRANCH  51  55
ENDBRANCH  50  51
ENDBRANCH   1  50
TORSDOF 20
ENDMDL
