MODEL 1
REMARK VINA RESULT:      -6.6      0.000      0.000
REMARK  Name = 
REMARK  31 active torsions:
REMARK  status: ('A' for Active; 'I' for Inactive)
REMARK    1  A    between atoms: C_1  and  C_2
REMARK    2  A    between atoms: C_3  and  O_78
REMARK    3  A    between atoms: C_5  and  O_77
REMARK    4  A    between atoms: C_6  and  O_76
REMARK    5  A    between atoms: C_8  and  O_11
REMARK    6  A    between atoms: O_11  and  C_12
REMARK    7  A    between atoms: C_14  and  O_75
REMARK    8  A    between atoms: C_19  and  C_67
REMARK    9  A    between atoms: C_20  and  O_23
REMARK   10  A    between atoms: O_23  and  C_24
REMARK   11  A    between atoms: C_26  and  O_37
REMARK   12  A    between atoms: C_27  and  O_36
REMARK   13  A    between atoms: C_29  and  O_35
REMARK   14  A    between atoms: C_31  and  C_33
REMARK   15  A    between atoms: C_33  and  O_34
REMARK   16  A    between atoms: O_37  and  C_38
REMARK   17  A    between atoms: C_40  and  O_66
REMARK   18  A    between atoms: C_41  and  O_65
REMARK   19  A    between atoms: C_43  and  O_64
REMARK   20  A    between atoms: C_45  and  C_47
REMARK   21  A    between atoms: C_47  and  O_48
REMARK   22  A    between atoms: O_48  and  C_49
REMARK   23  A    between atoms: C_49  and  C_51
REMARK   24  A    between atoms: C_52  and  C_53
REMARK   25  A    between atoms: C_55  and  O_62
REMARK   26  A    between atoms: C_56  and  O_61
REMARK   27  A    between atoms: C_57  and  O_59
REMARK   28  A    between atoms: O_59  and  C_60
REMARK   29  A    between atoms: O_62  and  C_63
REMARK   30  A    between atoms: C_69  and  O_74
REMARK   31  A    between atoms: C_70  and  O_73
REMARK                            x       y       z     vdW  Elec       q    Type
REMARK                         _______ _______ _______ _____ _____    ______ ____
ROOT
ATOM      1  C   UNL     1       3.369  -4.699  26.637  0.00  0.00    +0.340 C 
ATOM      2  O   UNL     1       2.084  -5.157  27.141  0.00  0.00    -0.331 OA
ATOM      3  C   UNL     1       2.017  -6.504  27.625  0.00  0.00    +0.179 C 
ATOM      4  C   UNL     1       2.495  -7.498  26.560  0.00  0.00    +0.177 C 
ATOM      5  C   UNL     1       3.959  -7.189  26.236  0.00  0.00    +0.180 C 
ATOM      6  C   UNL     1       4.076  -5.756  25.678  0.00  0.00    +0.221 C 
ENDROOT
BRANCH   5   7
ATOM      7  O   UNL     1       4.785  -7.384  27.382  0.00  0.00    -0.386 OA
ATOM      8  H   UNL     1       5.324  -8.180  27.215  0.00  0.00    +0.210 HD
ENDBRANCH   5   7
BRANCH   4   9
ATOM      9  O   UNL     1       1.674  -7.396  25.382  0.00  0.00    -0.386 OA
ATOM     10  H   UNL     1       1.540  -6.445  25.202  0.00  0.00    +0.210 HD
ENDBRANCH   4   9
BRANCH   6  11
ATOM     11  O   UNL     1       5.416  -5.444  25.150  0.00  0.00    -0.337 OA
BRANCH  11  12
ATOM     12  C   UNL     1       5.602  -5.687  23.708  0.00  0.00    +0.282 C 
ATOM     13  O   UNL     1       6.882  -5.194  23.190  0.00  0.00    -0.339 OA
ATOM     14  C   UNL     1       6.993  -3.762  22.973  0.00  0.00    +0.190 C 
ATOM     15  C   UNL     1       5.788  -3.133  22.247  0.00  0.00    +0.178 C 
ATOM     16  C   UNL     1       4.498  -3.607  22.872  0.00  0.00    +0.179 C 
ATOM     17  C   UNL     1       4.481  -5.136  22.784  0.00  0.00    +0.201 C 
BRANCH  16  18
ATOM     18  O   UNL     1       4.360  -3.104  24.211  0.00  0.00    -0.386 OA
ATOM     19  H   UNL     1       4.969  -3.568  24.823  0.00  0.00    +0.210 HD
ENDBRANCH  16  18
BRANCH  15  20
ATOM     20  O   UNL     1       5.783  -3.495  20.854  0.00  0.00    -0.386 OA
ATOM     21  H   UNL     1       5.885  -2.684  20.324  0.00  0.00    +0.210 HD
ENDBRANCH  15  20
BRANCH  17  22
ATOM     22  O   UNL     1       3.165  -5.660  23.001  0.00  0.00    -0.384 OA
ATOM     23  H   UNL     1       3.268  -6.556  23.376  0.00  0.00    +0.210 HD
ENDBRANCH  17  22
BRANCH  14  24
ATOM     24  C   UNL     1       8.204  -3.362  22.098  0.00  0.00    +0.266 C 
BRANCH  24  25
ATOM     25  O   UNL     1       8.339  -1.966  21.876  0.00  0.00    -0.459 OA
BRANCH  25  26
ATOM     26  C   UNL     1       9.520  -1.448  22.282  0.00  0.00    +0.332 C 
ATOM     27  O   UNL     1      10.589  -2.002  22.400  0.00  0.00    -0.246 OA
BRANCH  26  28
ATOM     28  C   UNL     1       9.208  -0.065  22.671  0.00  0.00    +0.092 C 
ATOM     29  C   UNL     1       9.940   0.588  23.581  0.00  0.00    +0.015 C 
BRANCH  29  30
ATOM     30  C   UNL     1       9.612   1.969  23.942  0.00  0.00    -0.018 A 
ATOM     31  C   UNL     1      10.399   3.044  23.519  0.00  0.00    +0.057 A 
ATOM     32  C   UNL     1      10.064   4.353  23.854  0.00  0.00    +0.166 A 
ATOM     33  C   UNL     1       8.940   4.595  24.675  0.00  0.00    +0.201 A 
ATOM     34  C   UNL     1       8.151   3.526  25.128  0.00  0.00    +0.166 A 
ATOM     35  C   UNL     1       8.508   2.221  24.752  0.00  0.00    +0.057 A 
BRANCH  34  36
ATOM     36  O   UNL     1       7.041   3.498  25.923  0.00  0.00    -0.491 OA
ATOM     37  C   UNL     1       7.075   3.905  27.271  0.00  0.00    +0.277 C 
ENDBRANCH  34  36
BRANCH  33  38
ATOM     38  O   UNL     1       8.733   5.912  24.983  0.00  0.00    -0.501 OA
ATOM     39  H   UNL     1       9.560   6.348  25.201  0.00  0.00    +0.292 HD
ENDBRANCH  33  38
BRANCH  32  40
ATOM     40  O   UNL     1      10.773   5.451  23.426  0.00  0.00    -0.491 OA
ATOM     41  C   UNL     1      12.149   5.531  23.785  0.00  0.00    +0.277 C 
ENDBRANCH  32  40
ENDBRANCH  29  30
ENDBRANCH  26  28
ENDBRANCH  25  26
ENDBRANCH  24  25
ENDBRANCH  14  24
ENDBRANCH  11  12
ENDBRANCH   6  11
BRANCH   3  42
ATOM     42  C   UNL     1       0.560  -6.817  28.038  0.00  0.00    +0.190 C 
BRANCH  42  43
ATOM     43  O   UNL     1       0.444  -7.847  29.020  0.00  0.00    -0.392 OA
ATOM     44  H   UNL     1      -0.371  -7.660  29.530  0.00  0.00    +0.210 HD
ENDBRANCH  42  43
ENDBRANCH   3  42
BRANCH   1  45
ATOM     45  O   UNL     1       4.168  -4.171  27.716  0.00  0.00    -0.453 OA
BRANCH  45  51
ATOM     46  C   UNL     1       3.301   2.063  26.608  0.00  0.00    +0.131 A 
ATOM     47  C   UNL     1       4.457   1.282  26.706  0.00  0.00    +0.093 A 
ATOM     48  C   UNL     1       4.410  -0.005  27.257  0.00  0.00    +0.147 A 
ATOM     49  O   UNL     1       5.566  -0.735  27.331  0.00  0.00    -0.451 OA
ATOM     50  C   UNL     1       5.461  -2.129  27.390  0.00  0.00    +0.181 A 
ATOM     51  C   UNL     1       4.346  -2.782  27.820  0.00  0.00    +0.214 A 
ATOM     52  C   UNL     1       3.248  -1.865  28.310  0.00  0.00    +0.238 A 
ATOM     53  O   UNL     1       2.432  -2.179  29.165  0.00  0.00    -0.283 OA
ATOM     54  C   UNL     1       3.207  -0.527  27.717  0.00  0.00    +0.109 A 
ATOM     55  C   UNL     1       2.042   0.237  27.597  0.00  0.00    +0.135 A 
ATOM     56  C   UNL     1       2.089   1.529  27.056  0.00  0.00    +0.092 A 
BRANCH  50  57
ATOM     57  C   UNL     1       6.699  -2.776  26.868  0.00  0.00    +0.025 A 
ATOM     58  C   UNL     1       7.645  -1.995  26.166  0.00  0.00    +0.015 A 
ATOM     59  C   UNL     1       8.796  -2.564  25.608  0.00  0.00    +0.050 A 
ATOM     60  C   UNL     1       9.018  -3.918  25.774  0.00  0.00    +0.158 A 
ATOM     61  C   UNL     1       8.144  -4.691  26.530  0.00  0.00    +0.159 A 
ATOM     62  C   UNL     1       6.993  -4.129  27.091  0.00  0.00    +0.060 A 
BRANCH  61  63
ATOM     63  O   UNL     1       8.455  -6.016  26.692  0.00  0.00    -0.503 OA
ATOM     64  H   UNL     1       7.810  -6.537  26.186  0.00  0.00    +0.292 HD
ENDBRANCH  61  63
BRANCH  60  65
ATOM     65  O   UNL     1      10.109  -4.490  25.182  0.00  0.00    -0.503 OA
ATOM     66  H   UNL     1       9.864  -5.430  25.071  0.00  0.00    +0.292 HD
ENDBRANCH  60  65
ENDBRANCH  50  57
BRANCH  55  67
ATOM     67  O   UNL     1       0.837  -0.292  27.964  0.00  0.00    -0.506 OA
ATOM     68  H   UNL     1       0.965  -1.141  28.420  0.00  0.00    +0.292 HD
ENDBRANCH  55  67
BRANCH  46  69
ATOM     69  O   UNL     1       3.211   3.342  26.109  0.00  0.00    -0.461 OA
BRANCH  69  73
ATOM     70  C   UNL     1       5.553   3.710  22.575  0.00  0.00    +0.041 C 
ATOM     71  C   UNL     1       4.617   4.816  23.057  0.00  0.00    +0.150 C 
ATOM     72  O   UNL     1       4.265   4.634  24.430  0.00  0.00    -0.334 OA
ATOM     73  C   UNL     1       3.411   3.516  24.697  0.00  0.00    +0.339 C 
ATOM     74  C   UNL     1       2.053   3.703  23.964  0.00  0.00    +0.214 C 
ATOM     75  C   UNL     1       2.340   3.852  22.460  0.00  0.00    +0.180 C 
ATOM     76  C   UNL     1       3.362   4.971  22.188  0.00  0.00    +0.174 C 
BRANCH  74  77
ATOM     77  O   UNL     1       1.344   4.876  24.411  0.00  0.00    -0.383 OA
ATOM     78  H   UNL     1       1.864   5.631  24.091  0.00  0.00    +0.210 HD
ENDBRANCH  74  77
BRANCH  75  79
ATOM     79  O   UNL     1       1.113   4.154  21.771  0.00  0.00    -0.386 OA
ATOM     80  H   UNL     1       0.397   3.776  22.326  0.00  0.00    +0.210 HD
ENDBRANCH  75  79
BRANCH  76  81
ATOM     81  O   UNL     1       2.725   6.229  22.473  0.00  0.00    -0.387 OA
ATOM     82  H   UNL     1       1.877   6.016  22.925  0.00  0.00    +0.210 HD
ENDBRANCH  76  81
ENDBRANCH  69  73
ENDBRANCH  46  69
ENDBRANCH  45  51
ENDBRANCH   1  45
TORSDOF 28
ENDMDL
MODEL 2
REMARK VINA RESULT:      -6.5      1.581      2.677
REMARK  Name = 
REMARK  31 active torsions:
REMARK  status: ('A' for Active; 'I' for Inactive)
REMARK    1  A    between atoms: C_1  and  C_2
REMARK    2  A    between atoms: C_3  and  O_78
REMARK    3  A    between atoms: C_5  and  O_77
REMARK    4  A    between atoms: C_6  and  O_76
REMARK    5  A    between atoms: C_8  and  O_11
REMARK    6  A    between atoms: O_11  and  C_12
REMARK    7  A    between atoms: C_14  and  O_75
REMARK    8  A    between atoms: C_19  and  C_67
REMARK    9  A    between atoms: C_20  and  O_23
REMARK   10  A    between atoms: O_23  and  C_24
REMARK   11  A    between atoms: C_26  and  O_37
REMARK   12  A    between atoms: C_27  and  O_36
REMARK   13  A    between atoms: C_29  and  O_35
REMARK   14  A    between atoms: C_31  and  C_33
REMARK   15  A    between atoms: C_33  and  O_34
REMARK   16  A    between atoms: O_37  and  C_38
REMARK   17  A    between atoms: C_40  and  O_66
REMARK   18  A    between atoms: C_41  and  O_65
REMARK   19  A    between atoms: C_43  and  O_64
REMARK   20  A    between atoms: C_45  and  C_47
REMARK   21  A    between atoms: C_47  and  O_48
REMARK   22  A    between atoms: O_48  and  C_49
REMARK   23  A    between atoms: C_49  and  C_51
REMARK   24  A    between atoms: C_52  and  C_53
REMARK   25  A    between atoms: C_55  and  O_62
REMARK   26  A    between atoms: C_56  and  O_61
REMARK   27  A    between atoms: C_57  and  O_59
REMARK   28  A    between atoms: O_59  and  C_60
REMARK   29  A    between atoms: O_62  and  C_63
REMARK   30  A    between atoms: C_69  and  O_74
REMARK   31  A    between atoms: C_70  and  O_73
REMARK                            x       y       z     vdW  Elec       q    Type
REMARK                         _______ _______ _______ _____ _____    ______ ____
ROOT
ATOM      1  C   UNL     1       3.621  -4.663  26.547  0.00  0.00    +0.340 C 
ATOM      2  O   UNL     1       2.331  -5.104  27.051  0.00  0.00    -0.331 OA
ATOM      3  C   UNL     1       2.223  -6.476  27.451  0.00  0.00    +0.179 C 
ATOM      4  C   UNL     1       2.639  -7.417  26.315  0.00  0.00    +0.177 C 
ATOM      5  C   UNL     1       4.105  -7.143  25.975  0.00  0.00    +0.180 C 
ATOM      6  C   UNL     1       4.266  -5.682  25.506  0.00  0.00    +0.221 C 
ENDROOT
BRANCH   5   7
ATOM      7  O   UNL     1       4.949  -7.441  27.087  0.00  0.00    -0.386 OA
ATOM      8  H   UNL     1       5.870  -7.335  26.784  0.00  0.00    +0.210 HD
ENDBRANCH   5   7
BRANCH   4   9
ATOM      9  O   UNL     1       1.797  -7.209  25.166  0.00  0.00    -0.386 OA
ATOM     10  H   UNL     1       1.297  -6.383  25.316  0.00  0.00    +0.210 HD
ENDBRANCH   4   9
BRANCH   6  11
ATOM     11  O   UNL     1       5.605  -5.387  24.966  0.00  0.00    -0.337 OA
BRANCH  11  12
ATOM     12  C   UNL     1       5.765  -5.596  23.516  0.00  0.00    +0.282 C 
ATOM     13  O   UNL     1       6.988  -5.001  22.968  0.00  0.00    -0.339 OA
ATOM     14  C   UNL     1       6.984  -3.562  22.770  0.00  0.00    +0.190 C 
ATOM     15  C   UNL     1       5.713  -3.017  22.089  0.00  0.00    +0.178 C 
ATOM     16  C   UNL     1       4.482  -3.595  22.745  0.00  0.00    +0.179 C 
ATOM     17  C   UNL     1       4.577  -5.120  22.634  0.00  0.00    +0.201 C 
BRANCH  16  18
ATOM     18  O   UNL     1       4.348  -3.122  24.096  0.00  0.00    -0.386 OA
ATOM     19  H   UNL     1       4.931  -2.351  24.255  0.00  0.00    +0.210 HD
ENDBRANCH  16  18
BRANCH  15  20
ATOM     20  O   UNL     1       5.693  -3.359  20.692  0.00  0.00    -0.386 OA
ATOM     21  H   UNL     1       4.905  -2.955  20.286  0.00  0.00    +0.210 HD
ENDBRANCH  15  20
BRANCH  17  22
ATOM     22  O   UNL     1       3.312  -5.744  22.882  0.00  0.00    -0.384 OA
ATOM     23  H   UNL     1       3.130  -6.339  22.129  0.00  0.00    +0.210 HD
ENDBRANCH  17  22
BRANCH  14  24
ATOM     24  C   UNL     1       8.133  -3.059  21.866  0.00  0.00    +0.266 C 
BRANCH  24  25
ATOM     25  O   UNL     1       8.310  -1.651  21.861  0.00  0.00    -0.459 OA
BRANCH  25  26
ATOM     26  C   UNL     1       9.577  -1.247  22.108  0.00  0.00    +0.332 C 
ATOM     27  O   UNL     1      10.575  -1.918  22.235  0.00  0.00    -0.246 OA
BRANCH  26  28
ATOM     28  C   UNL     1       9.473   0.205  22.313  0.00  0.00    +0.092 C 
ATOM     29  C   UNL     1      10.314   0.861  23.121  0.00  0.00    +0.015 C 
BRANCH  29  30
ATOM     30  C   UNL     1      10.193   2.309  23.298  0.00  0.00    -0.018 A 
ATOM     31  C   UNL     1      11.318   3.136  23.361  0.00  0.00    +0.057 A 
ATOM     32  C   UNL     1      11.187   4.515  23.510  0.00  0.00    +0.166 A 
ATOM     33  C   UNL     1       9.899   5.080  23.650  0.00  0.00    +0.201 A 
ATOM     34  C   UNL     1       8.759   4.262  23.612  0.00  0.00    +0.166 A 
ATOM     35  C   UNL     1       8.930   2.879  23.439  0.00  0.00    +0.057 A 
BRANCH  34  36
ATOM     36  O   UNL     1       7.432   4.559  23.731  0.00  0.00    -0.491 OA
ATOM     37  C   UNL     1       6.594   4.706  22.608  0.00  0.00    +0.277 C 
ENDBRANCH  34  36
BRANCH  33  38
ATOM     38  O   UNL     1       9.890   6.435  23.841  0.00  0.00    -0.501 OA
ATOM     39  H   UNL     1      10.688   6.723  24.292  0.00  0.00    +0.292 HD
ENDBRANCH  33  38
BRANCH  32  40
ATOM     40  O   UNL     1      12.255   5.381  23.529  0.00  0.00    -0.491 OA
ATOM     41  C   UNL     1      13.019   5.514  22.334  0.00  0.00    +0.277 C 
ENDBRANCH  32  40
ENDBRANCH  29  30
ENDBRANCH  26  28
ENDBRANCH  25  26
ENDBRANCH  24  25
ENDBRANCH  14  24
ENDBRANCH  11  12
ENDBRANCH   6  11
BRANCH   3  42
ATOM     42  C   UNL     1       0.764  -6.760  27.880  0.00  0.00    +0.190 C 
BRANCH  42  43
ATOM     43  O   UNL     1       0.451  -8.149  27.988  0.00  0.00    -0.392 OA
ATOM     44  H   UNL     1      -0.477  -8.205  28.296  0.00  0.00    +0.210 HD
ENDBRANCH  42  43
ENDBRANCH   3  42
BRANCH   1  45
ATOM     45  O   UNL     1       4.464  -4.235  27.637  0.00  0.00    -0.453 OA
BRANCH  45  51
ATOM     46  C   UNL     1       4.855   1.982  26.212  0.00  0.00    +0.131 A 
ATOM     47  C   UNL     1       5.832   0.992  26.352  0.00  0.00    +0.093 A 
ATOM     48  C   UNL     1       5.532  -0.230  26.968  0.00  0.00    +0.147 A 
ATOM     49  O   UNL     1       6.519  -1.173  27.082  0.00  0.00    -0.451 OA
ATOM     50  C   UNL     1       6.137  -2.513  27.211  0.00  0.00    +0.181 A 
ATOM     51  C   UNL     1       4.917  -2.906  27.671  0.00  0.00    +0.214 A 
ATOM     52  C   UNL     1       4.029  -1.764  28.111  0.00  0.00    +0.238 A 
ATOM     53  O   UNL     1       3.173  -1.865  28.979  0.00  0.00    -0.283 OA
ATOM     54  C   UNL     1       4.253  -0.476  27.451  0.00  0.00    +0.109 A 
ATOM     55  C   UNL     1       3.264   0.498  27.290  0.00  0.00    +0.135 A 
ATOM     56  C   UNL     1       3.564   1.726  26.684  0.00  0.00    +0.092 A 
BRANCH  50  57
ATOM     57  C   UNL     1       7.217  -3.420  26.726  0.00  0.00    +0.025 A 
ATOM     58  C   UNL     1       7.270  -4.750  27.202  0.00  0.00    +0.015 A 
ATOM     59  C   UNL     1       8.294  -5.625  26.820  0.00  0.00    +0.050 A 
ATOM     60  C   UNL     1       9.258  -5.177  25.937  0.00  0.00    +0.158 A 
ATOM     61  C   UNL     1       9.181  -3.901  25.392  0.00  0.00    +0.159 A 
ATOM     62  C   UNL     1       8.160  -3.022  25.768  0.00  0.00    +0.060 A 
BRANCH  61  63
ATOM     63  O   UNL     1      10.145  -3.544  24.486  0.00  0.00    -0.503 OA
ATOM     64  H   UNL     1      10.583  -2.743  24.817  0.00  0.00    +0.292 HD
ENDBRANCH  61  63
BRANCH  60  65
ATOM     65  O   UNL     1      10.293  -6.007  25.607  0.00  0.00    -0.503 OA
ATOM     66  H   UNL     1      11.092  -5.543  25.927  0.00  0.00    +0.292 HD
ENDBRANCH  60  65
ENDBRANCH  50  57
BRANCH  55  67
ATOM     67  O   UNL     1       1.980   0.241  27.679  0.00  0.00    -0.506 OA
ATOM     68  H   UNL     1       1.847   0.507  28.605  0.00  0.00    +0.292 HD
ENDBRANCH  55  67
BRANCH  46  69
ATOM     69  O   UNL     1       5.019   3.227  25.649  0.00  0.00    -0.461 OA
BRANCH  69  73
ATOM     70  C   UNL     1       3.784   6.967  27.262  0.00  0.00    +0.041 C 
ATOM     71  C   UNL     1       5.155   6.763  26.622  0.00  0.00    +0.150 C 
ATOM     72  O   UNL     1       5.179   5.582  25.816  0.00  0.00    -0.334 OA
ATOM     73  C   UNL     1       5.111   4.349  26.542  0.00  0.00    +0.339 C 
ATOM     74  C   UNL     1       6.346   4.216  27.475  0.00  0.00    +0.214 C 
ATOM     75  C   UNL     1       6.365   5.431  28.419  0.00  0.00    +0.180 C 
ATOM     76  C   UNL     1       6.305   6.755  27.637  0.00  0.00    +0.174 C 
BRANCH  74  77
ATOM     77  O   UNL     1       7.588   4.191  26.742  0.00  0.00    -0.383 OA
ATOM     78  H   UNL     1       8.030   5.029  26.953  0.00  0.00    +0.210 HD
ENDBRANCH  74  77
BRANCH  75  79
ATOM     79  O   UNL     1       7.567   5.400  29.209  0.00  0.00    -0.386 OA
ATOM     80  H   UNL     1       7.283   5.155  30.116  0.00  0.00    +0.210 HD
ENDBRANCH  75  79
BRANCH  76  81
ATOM     81  O   UNL     1       7.560   6.920  26.953  0.00  0.00    -0.387 OA
ATOM     82  H   UNL     1       7.721   7.889  26.899  0.00  0.00    +0.210 HD
ENDBRANCH  76  81
ENDBRANCH  69  73
ENDBRANCH  46  69
ENDBRANCH  45  51
ENDBRANCH   1  45
TORSDOF 28
ENDMDL
MODEL 3
REMARK VINA RESULT:      -6.2      1.740      3.267
REMARK  Name = 
REMARK  31 active torsions:
REMARK  status: ('A' for Active; 'I' for Inactive)
REMARK    1  A    between atoms: C_1  and  C_2
REMARK    2  A    between atoms: C_3  and  O_78
REMARK    3  A    between atoms: C_5  and  O_77
REMARK    4  A    between atoms: C_6  and  O_76
REMARK    5  A    between atoms: C_8  and  O_11
REMARK    6  A    between atoms: O_11  and  C_12
REMARK    7  A    between atoms: C_14  and  O_75
REMARK    8  A    between atoms: C_19  and  C_67
REMARK    9  A    between atoms: C_20  and  O_23
REMARK   10  A    between atoms: O_23  and  C_24
REMARK   11  A    between atoms: C_26  and  O_37
REMARK   12  A    between atoms: C_27  and  O_36
REMARK   13  A    between atoms: C_29  and  O_35
REMARK   14  A    between atoms: C_31  and  C_33
REMARK   15  A    between atoms: C_33  and  O_34
REMARK   16  A    between atoms: O_37  and  C_38
REMARK   17  A    between atoms: C_40  and  O_66
REMARK   18  A    between atoms: C_41  and  O_65
REMARK   19  A    between atoms: C_43  and  O_64
REMARK   20  A    between atoms: C_45  and  C_47
REMARK   21  A    between atoms: C_47  and  O_48
REMARK   22  A    between atoms: O_48  and  C_49
REMARK   23  A    between atoms: C_49  and  C_51
REMARK   24  A    between atoms: C_52  and  C_53
REMARK   25  A    between atoms: C_55  and  O_62
REMARK   26  A    between atoms: C_56  and  O_61
REMARK   27  A    between atoms: C_57  and  O_59
REMARK   28  A    between atoms: O_59  and  C_60
REMARK   29  A    between atoms: O_62  and  C_63
REMARK   30  A    between atoms: C_69  and  O_74
REMARK   31  A    between atoms: C_70  and  O_73
REMARK                            x       y       z     vdW  Elec       q    Type
REMARK                         _______ _______ _______ _____ _____    ______ ____
ROOT
ATOM      1  C   UNL     1       2.788  -5.042  25.241  0.00  0.00    +0.340 C 
ATOM      2  O   UNL     1       1.802  -5.871  25.914  0.00  0.00    -0.331 OA
ATOM      3  C   UNL     1       1.868  -7.283  25.677  0.00  0.00    +0.179 C 
ATOM      4  C   UNL     1       1.811  -7.596  24.178  0.00  0.00    +0.177 C 
ATOM      5  C   UNL     1       3.025  -6.951  23.506  0.00  0.00    +0.180 C 
ATOM      6  C   UNL     1       2.980  -5.422  23.705  0.00  0.00    +0.221 C 
ENDROOT
BRANCH   5   7
ATOM      7  O   UNL     1       4.239  -7.517  23.998  0.00  0.00    -0.386 OA
ATOM      8  H   UNL     1       4.168  -7.544  24.971  0.00  0.00    +0.210 HD
ENDBRANCH   5   7
BRANCH   4   9
ATOM      9  O   UNL     1       0.585  -7.095  23.614  0.00  0.00    -0.386 OA
ATOM     10  H   UNL     1       0.691  -7.090  22.643  0.00  0.00    +0.210 HD
ENDBRANCH   4   9
BRANCH   6  11
ATOM     11  O   UNL     1       3.998  -4.701  22.921  0.00  0.00    -0.337 OA
BRANCH  11  12
ATOM     12  C   UNL     1       5.236  -4.363  23.647  0.00  0.00    +0.282 C 
ATOM     13  O   UNL     1       5.531  -2.927  23.667  0.00  0.00    -0.339 OA
ATOM     14  C   UNL     1       6.077  -2.354  22.449  0.00  0.00    +0.190 C 
ATOM     15  C   UNL     1       7.216  -3.175  21.814  0.00  0.00    +0.178 C 
ATOM     16  C   UNL     1       6.827  -4.632  21.740  0.00  0.00    +0.179 C 
ATOM     17  C   UNL     1       6.518  -5.097  23.166  0.00  0.00    +0.201 C 
BRANCH  16  18
ATOM     18  O   UNL     1       5.741  -4.829  20.819  0.00  0.00    -0.386 OA
ATOM     19  H   UNL     1       6.040  -5.322  20.027  0.00  0.00    +0.210 HD
ENDBRANCH  16  18
BRANCH  15  20
ATOM     20  O   UNL     1       8.424  -3.060  22.587  0.00  0.00    -0.386 OA
ATOM     21  H   UNL     1       9.083  -3.679  22.225  0.00  0.00    +0.210 HD
ENDBRANCH  15  20
BRANCH  17  22
ATOM     22  O   UNL     1       6.505  -6.527  23.261  0.00  0.00    -0.384 OA
ATOM     23  H   UNL     1       7.119  -6.867  22.582  0.00  0.00    +0.210 HD
ENDBRANCH  17  22
BRANCH  14  24
ATOM     24  C   UNL     1       6.698  -0.952  22.651  0.00  0.00    +0.266 C 
BRANCH  24  25
ATOM     25  O   UNL     1       7.687  -0.883  23.667  0.00  0.00    -0.459 OA
BRANCH  25  26
ATOM     26  C   UNL     1       8.698  -0.024  23.403  0.00  0.00    +0.332 C 
ATOM     27  O   UNL     1       9.864  -0.268  23.195  0.00  0.00    -0.246 OA
BRANCH  26  28
ATOM     28  C   UNL     1       8.099   1.311  23.539  0.00  0.00    +0.092 C 
ATOM     29  C   UNL     1       7.724   2.023  22.470  0.00  0.00    +0.015 C 
BRANCH  29  30
ATOM     30  C   UNL     1       7.121   3.347  22.637  0.00  0.00    -0.018 A 
ATOM     31  C   UNL     1       5.739   3.538  22.547  0.00  0.00    +0.057 A 
ATOM     32  C   UNL     1       5.177   4.800  22.726  0.00  0.00    +0.166 A 
ATOM     33  C   UNL     1       6.020   5.911  22.954  0.00  0.00    +0.201 A 
ATOM     34  C   UNL     1       7.411   5.741  23.025  0.00  0.00    +0.166 A 
ATOM     35  C   UNL     1       7.939   4.451  22.859  0.00  0.00    +0.057 A 
BRANCH  34  36
ATOM     36  O   UNL     1       8.420   6.639  23.222  0.00  0.00    -0.491 OA
ATOM     37  C   UNL     1       9.667   6.260  23.755  0.00  0.00    +0.277 C 
ENDBRANCH  34  36
BRANCH  33  38
ATOM     38  O   UNL     1       5.365   7.108  23.066  0.00  0.00    -0.501 OA
ATOM     39  H   UNL     1       5.383   7.587  22.234  0.00  0.00    +0.292 HD
ENDBRANCH  33  38
BRANCH  32  40
ATOM     40  O   UNL     1       3.823   5.038  22.697  0.00  0.00    -0.491 OA
ATOM     41  C   UNL     1       3.012   4.150  21.934  0.00  0.00    +0.277 C 
ENDBRANCH  32  40
ENDBRANCH  29  30
ENDBRANCH  26  28
ENDBRANCH  25  26
ENDBRANCH  24  25
ENDBRANCH  14  24
ENDBRANCH  11  12
ENDBRANCH   6  11
BRANCH   3  42
ATOM     42  C   UNL     1       0.696  -7.971  26.416  0.00  0.00    +0.190 C 
BRANCH  42  43
ATOM     43  O   UNL     1       1.078  -9.124  27.166  0.00  0.00    -0.392 OA
ATOM     44  H   UNL     1       0.491  -9.159  27.949  0.00  0.00    +0.210 HD
ENDBRANCH  42  43
ENDBRANCH   3  42
BRANCH   1  45
ATOM     45  O   UNL     1       3.988  -4.948  26.036  0.00  0.00    -0.453 OA
BRANCH  45  51
ATOM     46  C   UNL     1       3.605   1.020  28.290  0.00  0.00    +0.131 A 
ATOM     47  C   UNL     1       4.660   0.102  28.248  0.00  0.00    +0.093 A 
ATOM     48  C   UNL     1       4.421  -1.252  27.982  0.00  0.00    +0.147 A 
ATOM     49  O   UNL     1       5.484  -2.116  27.948  0.00  0.00    -0.451 OA
ATOM     50  C   UNL     1       5.346  -3.301  27.215  0.00  0.00    +0.181 A 
ATOM     51  C   UNL     1       4.142  -3.864  26.916  0.00  0.00    +0.214 A 
ATOM     52  C   UNL     1       2.959  -3.140  27.518  0.00  0.00    +0.238 A 
ATOM     53  O   UNL     1       1.909  -3.690  27.820  0.00  0.00    -0.283 OA
ATOM     54  C   UNL     1       3.127  -1.705  27.755  0.00  0.00    +0.109 A 
ATOM     55  C   UNL     1       2.072  -0.789  27.768  0.00  0.00    +0.135 A 
ATOM     56  C   UNL     1       2.306   0.565  28.045  0.00  0.00    +0.092 A 
BRANCH  50  57
ATOM     57  C   UNL     1       6.676  -3.806  26.770  0.00  0.00    +0.025 A 
ATOM     58  C   UNL     1       7.016  -5.158  27.004  0.00  0.00    +0.015 A 
ATOM     59  C   UNL     1       8.273  -5.668  26.656  0.00  0.00    +0.050 A 
ATOM     60  C   UNL     1       9.188  -4.829  26.048  0.00  0.00    +0.158 A 
ATOM     61  C   UNL     1       8.847  -3.518  25.735  0.00  0.00    +0.159 A 
ATOM     62  C   UNL     1       7.594  -3.003  26.078  0.00  0.00    +0.060 A 
BRANCH  61  63
ATOM     63  O   UNL     1       9.788  -2.761  25.088  0.00  0.00    -0.503 OA
ATOM     64  H   UNL     1      10.556  -3.328  24.909  0.00  0.00    +0.292 HD
ENDBRANCH  61  63
BRANCH  60  65
ATOM     65  O   UNL     1      10.436  -5.305  25.760  0.00  0.00    -0.503 OA
ATOM     66  H   UNL     1      10.312  -6.268  25.643  0.00  0.00    +0.292 HD
ENDBRANCH  60  65
ENDBRANCH  50  57
BRANCH  55  67
ATOM     67  O   UNL     1       0.806  -1.199  27.462  0.00  0.00    -0.506 OA
ATOM     68  H   UNL     1       0.306  -1.391  28.273  0.00  0.00    +0.292 HD
ENDBRANCH  55  67
BRANCH  46  69
ATOM     69  O   UNL     1       3.697   2.367  28.558  0.00  0.00    -0.461 OA
BRANCH  69  73
ATOM     70  C   UNL     1       7.216   3.490  26.444  0.00  0.00    +0.041 C 
ATOM     71  C   UNL     1       6.513   4.428  27.422  0.00  0.00    +0.150 C 
ATOM     72  O   UNL     1       5.627   3.708  28.283  0.00  0.00    -0.334 OA
ATOM     73  C   UNL     1       4.462   3.172  27.646  0.00  0.00    +0.339 C 
ATOM     74  C   UNL     1       3.598   4.325  27.066  0.00  0.00    +0.214 C 
ATOM     75  C   UNL     1       4.467   5.124  26.080  0.00  0.00    +0.180 C 
ATOM     76  C   UNL     1       5.781   5.587  26.733  0.00  0.00    +0.174 C 
BRANCH  74  77
ATOM     77  O   UNL     1       3.126   5.226  28.089  0.00  0.00    -0.383 OA
ATOM     78  H   UNL     1       3.919   5.674  28.426  0.00  0.00    +0.210 HD
ENDBRANCH  74  77
BRANCH  75  79
ATOM     79  O   UNL     1       3.733   6.274  25.624  0.00  0.00    -0.386 OA
ATOM     80  H   UNL     1       2.851   6.212  26.049  0.00  0.00    +0.210 HD
ENDBRANCH  75  79
BRANCH  76  81
ATOM     81  O   UNL     1       5.459   6.604  27.700  0.00  0.00    -0.387 OA
ATOM     82  H   UNL     1       5.927   6.356  28.529  0.00  0.00    +0.210 HD
ENDBRANCH  76  81
ENDBRANCH  69  73
ENDBRANCH  46  69
ENDBRANCH  45  51
ENDBRANCH   1  45
TORSDOF 28
ENDMDL
MODEL 4
REMARK VINA RESULT:      -6.1      1.842      2.560
REMARK  Name = 
REMARK  31 active torsions:
REMARK  status: ('A' for Active; 'I' for Inactive)
REMARK    1  A    between atoms: C_1  and  C_2
REMARK    2  A    between atoms: C_3  and  O_78
REMARK    3  A    between atoms: C_5  and  O_77
REMARK    4  A    between atoms: C_6  and  O_76
REMARK    5  A    between atoms: C_8  and  O_11
REMARK    6  A    between atoms: O_11  and  C_12
REMARK    7  A    between atoms: C_14  and  O_75
REMARK    8  A    between atoms: C_19  and  C_67
REMARK    9  A    between atoms: C_20  and  O_23
REMARK   10  A    between atoms: O_23  and  C_24
REMARK   11  A    between atoms: C_26  and  O_37
REMARK   12  A    between atoms: C_27  and  O_36
REMARK   13  A    between atoms: C_29  and  O_35
REMARK   14  A    between atoms: C_31  and  C_33
REMARK   15  A    between atoms: C_33  and  O_34
REMARK   16  A    between atoms: O_37  and  C_38
REMARK   17  A    between atoms: C_40  and  O_66
REMARK   18  A    between atoms: C_41  and  O_65
REMARK   19  A    between atoms: C_43  and  O_64
REMARK   20  A    between atoms: C_45  and  C_47
REMARK   21  A    between atoms: C_47  and  O_48
REMARK   22  A    between atoms: O_48  and  C_49
REMARK   23  A    between atoms: C_49  and  C_51
REMARK   24  A    between atoms: C_52  and  C_53
REMARK   25  A    between atoms: C_55  and  O_62
REMARK   26  A    between atoms: C_56  and  O_61
REMARK   27  A    between atoms: C_57  and  O_59
REMARK   28  A    between atoms: O_59  and  C_60
REMARK   29  A    between atoms: O_62  and  C_63
REMARK   30  A    between atoms: C_69  and  O_74
REMARK   31  A    between atoms: C_70  and  O_73
REMARK                            x       y       z     vdW  Elec       q    Type
REMARK                         _______ _______ _______ _____ _____    ______ ____
ROOT
ATOM      1  C   UNL     1       2.632  -4.961  25.035  0.00  0.00    +0.340 C 
ATOM      2  O   UNL     1       1.604  -5.706  25.745  0.00  0.00    -0.331 OA
ATOM      3  C   UNL     1       1.657  -7.135  25.654  0.00  0.00    +0.179 C 
ATOM      4  C   UNL     1       1.658  -7.597  24.192  0.00  0.00    +0.177 C 
ATOM      5  C   UNL     1       2.910  -7.038  23.512  0.00  0.00    +0.180 C 
ATOM      6  C   UNL     1       2.882  -5.496  23.556  0.00  0.00    +0.221 C 
ENDROOT
BRANCH   5   7
ATOM      7  O   UNL     1       4.092  -7.566  24.112  0.00  0.00    -0.386 OA
ATOM      8  H   UNL     1       4.846  -7.068  23.745  0.00  0.00    +0.210 HD
ENDBRANCH   5   7
BRANCH   4   9
ATOM      9  O   UNL     1       0.465  -7.140  23.528  0.00  0.00    -0.386 OA
ATOM     10  H   UNL     1       0.219  -7.819  22.870  0.00  0.00    +0.210 HD
ENDBRANCH   4   9
BRANCH   6  11
ATOM     11  O   UNL     1       3.944  -4.871  22.749  0.00  0.00    -0.337 OA
BRANCH  11  12
ATOM     12  C   UNL     1       5.161  -4.490  23.487  0.00  0.00    +0.282 C 
ATOM     13  O   UNL     1       5.440  -3.050  23.457  0.00  0.00    -0.339 OA
ATOM     14  C   UNL     1       6.007  -2.519  22.229  0.00  0.00    +0.190 C 
ATOM     15  C   UNL     1       7.169  -3.352  21.653  0.00  0.00    +0.178 C 
ATOM     16  C   UNL     1       6.799  -4.815  21.629  0.00  0.00    +0.179 C 
ATOM     17  C   UNL     1       6.462  -5.227  23.065  0.00  0.00    +0.201 C 
BRANCH  16  18
ATOM     18  O   UNL     1       5.736  -5.062  20.693  0.00  0.00    -0.386 OA
ATOM     19  H   UNL     1       6.058  -4.986  19.771  0.00  0.00    +0.210 HD
ENDBRANCH  16  18
BRANCH  15  20
ATOM     20  O   UNL     1       8.358  -3.191  22.448  0.00  0.00    -0.386 OA
ATOM     21  H   UNL     1       8.267  -2.378  22.977  0.00  0.00    +0.210 HD
ENDBRANCH  15  20
BRANCH  17  22
ATOM     22  O   UNL     1       6.463  -6.651  23.217  0.00  0.00    -0.384 OA
ATOM     23  H   UNL     1       7.286  -6.892  23.684  0.00  0.00    +0.210 HD
ENDBRANCH  17  22
BRANCH  14  24
ATOM     24  C   UNL     1       6.607  -1.103  22.389  0.00  0.00    +0.266 C 
BRANCH  24  25
ATOM     25  O   UNL     1       7.180  -0.842  23.662  0.00  0.00    -0.459 OA
BRANCH  25  26
ATOM     26  C   UNL     1       8.279  -0.055  23.628  0.00  0.00    +0.332 C 
ATOM     27  O   UNL     1       9.421  -0.360  23.376  0.00  0.00    -0.246 OA
BRANCH  26  28
ATOM     28  C   UNL     1       7.810   1.261  24.087  0.00  0.00    +0.092 C 
ATOM     29  C   UNL     1       8.296   1.830  25.195  0.00  0.00    +0.015 C 
BRANCH  29  30
ATOM     30  C   UNL     1       7.817   3.146  25.623  0.00  0.00    -0.018 A 
ATOM     31  C   UNL     1       7.937   4.271  24.802  0.00  0.00    +0.057 A 
ATOM     32  C   UNL     1       7.460   5.513  25.213  0.00  0.00    +0.166 A 
ATOM     33  C   UNL     1       6.891   5.648  26.499  0.00  0.00    +0.201 A 
ATOM     34  C   UNL     1       6.784   4.534  27.347  0.00  0.00    +0.166 A 
ATOM     35  C   UNL     1       7.257   3.294  26.889  0.00  0.00    +0.057 A 
BRANCH  34  36
ATOM     36  O   UNL     1       6.291   4.409  28.614  0.00  0.00    -0.491 OA
ATOM     37  C   UNL     1       6.642   3.333  29.451  0.00  0.00    +0.277 C 
ENDBRANCH  34  36
BRANCH  33  38
ATOM     38  O   UNL     1       6.501   6.921  26.819  0.00  0.00    -0.501 OA
ATOM     39  H   UNL     1       5.559   7.037  26.677  0.00  0.00    +0.292 HD
ENDBRANCH  33  38
BRANCH  32  40
ATOM     40  O   UNL     1       7.506   6.642  24.429  0.00  0.00    -0.491 OA
ATOM     41  C   UNL     1       7.056   6.529  23.082  0.00  0.00    +0.277 C 
ENDBRANCH  32  40
ENDBRANCH  29  30
ENDBRANCH  26  28
ENDBRANCH  25  26
ENDBRANCH  24  25
ENDBRANCH  14  24
ENDBRANCH  11  12
ENDBRANCH   6  11
BRANCH   3  42
ATOM     42  C   UNL     1       0.443  -7.730  26.406  0.00  0.00    +0.190 C 
BRANCH  42  43
ATOM     43  O   UNL     1       0.443  -9.156  26.472  0.00  0.00    -0.392 OA
ATOM     44  H   UNL     1      -0.146  -9.404  27.214  0.00  0.00    +0.210 HD
ENDBRANCH  42  43
ENDBRANCH   3  42
BRANCH   1  45
ATOM     45  O   UNL     1       3.798  -4.802  25.869  0.00  0.00    -0.453 OA
BRANCH  45  51
ATOM     46  C   UNL     1       3.519   1.404  27.367  0.00  0.00    +0.131 A 
ATOM     47  C   UNL     1       4.541   0.457  27.492  0.00  0.00    +0.093 A 
ATOM     48  C   UNL     1       4.267  -0.912  27.378  0.00  0.00    +0.147 A 
ATOM     49  O   UNL     1       5.299  -1.804  27.504  0.00  0.00    -0.451 OA
ATOM     50  C   UNL     1       5.155  -3.065  26.912  0.00  0.00    +0.181 A 
ATOM     51  C   UNL     1       3.948  -3.625  26.620  0.00  0.00    +0.214 A 
ATOM     52  C   UNL     1       2.763  -2.798  27.066  0.00  0.00    +0.238 A 
ATOM     53  O   UNL     1       1.681  -3.276  27.376  0.00  0.00    -0.283 OA
ATOM     54  C   UNL     1       2.971  -1.351  27.138  0.00  0.00    +0.109 A 
ATOM     55  C   UNL     1       1.949  -0.409  26.986  0.00  0.00    +0.135 A 
ATOM     56  C   UNL     1       2.218   0.961  27.110  0.00  0.00    +0.092 A 
BRANCH  50  57
ATOM     57  C   UNL     1       6.487  -3.659  26.603  0.00  0.00    +0.025 A 
ATOM     58  C   UNL     1       6.755  -4.994  26.985  0.00  0.00    +0.015 A 
ATOM     59  C   UNL     1       8.007  -5.581  26.767  0.00  0.00    +0.050 A 
ATOM     60  C   UNL     1       8.991  -4.839  26.141  0.00  0.00    +0.158 A 
ATOM     61  C   UNL     1       8.725  -3.553  25.683  0.00  0.00    +0.159 A 
ATOM     62  C   UNL     1       7.477  -2.961  25.896  0.00  0.00    +0.060 A 
BRANCH  61  63
ATOM     63  O   UNL     1       9.735  -2.897  25.028  0.00  0.00    -0.503 OA
ATOM     64  H   UNL     1       9.803  -2.005  25.406  0.00  0.00    +0.292 HD
ENDBRANCH  61  63
BRANCH  60  65
ATOM     65  O   UNL     1      10.233  -5.386  25.979  0.00  0.00    -0.503 OA
ATOM     66  H   UNL     1      10.228  -6.181  26.548  0.00  0.00    +0.292 HD
ENDBRANCH  60  65
ENDBRANCH  50  57
BRANCH  55  67
ATOM     67  O   UNL     1       0.686  -0.816  26.664  0.00  0.00    -0.506 OA
ATOM     68  H   UNL     1       0.162  -0.963  27.470  0.00  0.00    +0.292 HD
ENDBRANCH  55  67
BRANCH  46  69
ATOM     69  O   UNL     1       3.645   2.770  27.477  0.00  0.00    -0.461 OA
BRANCH  69  73
ATOM     70  C   UNL     1       2.776   3.584  23.391  0.00  0.00    +0.041 C 
ATOM     71  C   UNL     1       3.725   4.450  24.215  0.00  0.00    +0.150 C 
ATOM     72  O   UNL     1       4.159   3.765  25.393  0.00  0.00    -0.334 OA
ATOM     73  C   UNL     1       3.150   3.568  26.389  0.00  0.00    +0.339 C 
ATOM     74  C   UNL     1       2.636   4.943  26.900  0.00  0.00    +0.214 C 
ATOM     75  C   UNL     1       2.096   5.729  25.692  0.00  0.00    +0.180 C 
ATOM     76  C   UNL     1       3.143   5.825  24.568  0.00  0.00    +0.174 C 
BRANCH  74  77
ATOM     77  O   UNL     1       3.678   5.723  27.521  0.00  0.00    -0.383 OA
ATOM     78  H   UNL     1       4.386   5.092  27.728  0.00  0.00    +0.210 HD
ENDBRANCH  74  77
BRANCH  75  79
ATOM     79  O   UNL     1       1.731   7.055  26.114  0.00  0.00    -0.386 OA
ATOM     80  H   UNL     1       1.358   7.494  25.320  0.00  0.00    +0.210 HD
ENDBRANCH  75  79
BRANCH  76  81
ATOM     81  O   UNL     1       4.194   6.699  25.016  0.00  0.00    -0.387 OA
ATOM     82  H   UNL     1       4.612   6.257  25.790  0.00  0.00    +0.210 HD
ENDBRANCH  76  81
ENDBRANCH  69  73
ENDBRANCH  46  69
ENDBRANCH  45  51
ENDBRANCH   1  45
TORSDOF 28
ENDMDL
MODEL 5
REMARK VINA RESULT:      -5.8      1.503      3.153
REMARK  Name = 
REMARK  31 active torsions:
REMARK  status: ('A' for Active; 'I' for Inactive)
REMARK    1  A    between atoms: C_1  and  C_2
REMARK    2  A    between atoms: C_3  and  O_78
REMARK    3  A    between atoms: C_5  and  O_77
REMARK    4  A    between atoms: C_6  and  O_76
REMARK    5  A    between atoms: C_8  and  O_11
REMARK    6  A    between atoms: O_11  and  C_12
REMARK    7  A    between atoms: C_14  and  O_75
REMARK    8  A    between atoms: C_19  and  C_67
REMARK    9  A    between atoms: C_20  and  O_23
REMARK   10  A    between atoms: O_23  and  C_24
REMARK   11  A    between atoms: C_26  and  O_37
REMARK   12  A    between atoms: C_27  and  O_36
REMARK   13  A    between atoms: C_29  and  O_35
REMARK   14  A    between atoms: C_31  and  C_33
REMARK   15  A    between atoms: C_33  and  O_34
REMARK   16  A    between atoms: O_37  and  C_38
REMARK   17  A    between atoms: C_40  and  O_66
REMARK   18  A    between atoms: C_41  and  O_65
REMARK   19  A    between atoms: C_43  and  O_64
REMARK   20  A    between atoms: C_45  and  C_47
REMARK   21  A    between atoms: C_47  and  O_48
REMARK   22  A    between atoms: O_48  and  C_49
REMARK   23  A    between atoms: C_49  and  C_51
REMARK   24  A    between atoms: C_52  and  C_53
REMARK   25  A    between atoms: C_55  and  O_62
REMARK   26  A    between atoms: C_56  and  O_61
REMARK   27  A    between atoms: C_57  and  O_59
REMARK   28  A    between atoms: O_59  and  C_60
REMARK   29  A    between atoms: O_62  and  C_63
REMARK   30  A    between atoms: C_69  and  O_74
REMARK   31  A    between atoms: C_70  and  O_73
REMARK                            x       y       z     vdW  Elec       q    Type
REMARK                         _______ _______ _______ _____ _____    ______ ____
ROOT
ATOM      1  C   UNL     1       4.082  -4.873  26.600  0.00  0.00    +0.340 C 
ATOM      2  O   UNL     1       3.290  -5.973  27.125  0.00  0.00    -0.331 OA
ATOM      3  C   UNL     1       3.274  -6.144  28.548  0.00  0.00    +0.179 C 
ATOM      4  C   UNL     1       4.697  -6.273  29.104  0.00  0.00    +0.177 C 
ATOM      5  C   UNL     1       5.452  -4.978  28.797  0.00  0.00    +0.180 C 
ATOM      6  C   UNL     1       5.524  -4.767  27.270  0.00  0.00    +0.221 C 
ENDROOT
BRANCH   5   7
ATOM      7  O   UNL     1       4.849  -3.868  29.459  0.00  0.00    -0.386 OA
ATOM      8  H   UNL     1       4.494  -4.198  30.306  0.00  0.00    +0.210 HD
ENDBRANCH   5   7
BRANCH   4   9
ATOM      9  O   UNL     1       5.359  -7.407  28.516  0.00  0.00    -0.386 OA
ATOM     10  H   UNL     1       4.727  -7.826  27.899  0.00  0.00    +0.210 HD
ENDBRANCH   4   9
BRANCH   6  11
ATOM     11  O   UNL     1       6.407  -3.655  26.876  0.00  0.00    -0.337 OA
BRANCH  11  12
ATOM     12  C   UNL     1       7.845  -3.873  27.110  0.00  0.00    +0.282 C 
ATOM     13  O   UNL     1       8.703  -2.875  26.462  0.00  0.00    -0.339 OA
ATOM     14  C   UNL     1       8.905  -3.017  25.031  0.00  0.00    +0.190 C 
ATOM     15  C   UNL     1       9.229  -4.453  24.573  0.00  0.00    +0.178 C 
ATOM     16  C   UNL     1       8.266  -5.429  25.202  0.00  0.00    +0.179 C 
ATOM     17  C   UNL     1       8.385  -5.277  26.722  0.00  0.00    +0.201 C 
BRANCH  16  18
ATOM     18  O   UNL     1       6.932  -5.230  24.704  0.00  0.00    -0.386 OA
ATOM     19  H   UNL     1       6.475  -4.522  25.204  0.00  0.00    +0.210 HD
ENDBRANCH  16  18
BRANCH  15  20
ATOM     20  O   UNL     1      10.568  -4.821  24.949  0.00  0.00    -0.386 OA
ATOM     21  H   UNL     1      11.023  -4.028  25.289  0.00  0.00    +0.210 HD
ENDBRANCH  15  20
BRANCH  17  22
ATOM     22  O   UNL     1       7.805  -6.392  27.409  0.00  0.00    -0.384 OA
ATOM     23  H   UNL     1       7.341  -6.040  28.193  0.00  0.00    +0.210 HD
ENDBRANCH  17  22
BRANCH  14  24
ATOM     24  C   UNL     1      10.086  -2.179  24.488  0.00  0.00    +0.266 C 
BRANCH  24  25
ATOM     25  O   UNL     1      10.352  -2.356  23.104  0.00  0.00    -0.459 OA
BRANCH  25  26
ATOM     26  C   UNL     1       9.668  -1.517  22.293  0.00  0.00    +0.332 C 
ATOM     27  O   UNL     1       9.091  -1.765  21.260  0.00  0.00    -0.246 OA
BRANCH  26  28
ATOM     28  C   UNL     1       9.872  -0.184  22.878  0.00  0.00    +0.092 C 
ATOM     29  C   UNL     1       9.790   0.927  22.136  0.00  0.00    +0.015 C 
BRANCH  29  30
ATOM     30  C   UNL     1       9.988   2.242  22.748  0.00  0.00    -0.018 A 
ATOM     31  C   UNL     1      11.247   2.847  22.792  0.00  0.00    +0.057 A 
ATOM     32  C   UNL     1      11.418   4.107  23.360  0.00  0.00    +0.166 A 
ATOM     33  C   UNL     1      10.311   4.762  23.945  0.00  0.00    +0.201 A 
ATOM     34  C   UNL     1       9.043   4.159  23.932  0.00  0.00    +0.166 A 
ATOM     35  C   UNL     1       8.907   2.897  23.331  0.00  0.00    +0.057 A 
BRANCH  34  36
ATOM     36  O   UNL     1       7.841   4.575  24.429  0.00  0.00    -0.491 OA
ATOM     37  C   UNL     1       7.502   4.429  25.788  0.00  0.00    +0.277 C 
ENDBRANCH  34  36
BRANCH  33  38
ATOM     38  O   UNL     1      10.602   5.970  24.518  0.00  0.00    -0.501 OA
ATOM     39  H   UNL     1      11.538   6.170  24.440  0.00  0.00    +0.292 HD
ENDBRANCH  33  38
BRANCH  32  40
ATOM     40  O   UNL     1      12.622   4.771  23.387  0.00  0.00    -0.491 OA
ATOM     41  C   UNL     1      13.035   5.438  22.198  0.00  0.00    +0.277 C 
ENDBRANCH  32  40
ENDBRANCH  29  30
ENDBRANCH  26  28
ENDBRANCH  25  26
ENDBRANCH  24  25
ENDBRANCH  14  24
ENDBRANCH  11  12
ENDBRANCH   6  11
BRANCH   3  42
ATOM     42  C   UNL     1       2.445  -7.403  28.892  0.00  0.00    +0.190 C 
BRANCH  42  43
ATOM     43  O   UNL     1       3.068  -8.266  29.844  0.00  0.00    -0.392 OA
ATOM     44  H   UNL     1       3.411  -7.694  30.561  0.00  0.00    +0.210 HD
ENDBRANCH  42  43
ENDBRANCH   3  42
BRANCH   1  45
ATOM     45  O   UNL     1       3.297  -3.663  26.567  0.00  0.00    -0.453 OA
BRANCH  45  51
ATOM     46  C   UNL     1       4.071   2.663  26.105  0.00  0.00    +0.131 A 
ATOM     47  C   UNL     1       4.657   1.597  25.416  0.00  0.00    +0.093 A 
ATOM     48  C   UNL     1       4.555   0.287  25.902  0.00  0.00    +0.147 A 
ATOM     49  O   UNL     1       5.143  -0.728  25.194  0.00  0.00    -0.451 OA
ATOM     50  C   UNL     1       4.644  -2.024  25.365  0.00  0.00    +0.181 A 
ATOM     51  C   UNL     1       3.951  -2.425  26.466  0.00  0.00    +0.214 A 
ATOM     52  C   UNL     1       3.835  -1.364  27.537  0.00  0.00    +0.238 A 
ATOM     53  O   UNL     1       3.736  -1.612  28.731  0.00  0.00    -0.283 OA
ATOM     54  C   UNL     1       3.866   0.027  27.080  0.00  0.00    +0.109 A 
ATOM     55  C   UNL     1       3.254   1.085  27.759  0.00  0.00    +0.135 A 
ATOM     56  C   UNL     1       3.364   2.398  27.282  0.00  0.00    +0.092 A 
BRANCH  50  57
ATOM     57  C   UNL     1       4.925  -2.862  24.163  0.00  0.00    +0.025 A 
ATOM     58  C   UNL     1       5.965  -2.483  23.283  0.00  0.00    +0.015 A 
ATOM     59  C   UNL     1       6.233  -3.204  22.113  0.00  0.00    +0.050 A 
ATOM     60  C   UNL     1       5.475  -4.325  21.832  0.00  0.00    +0.158 A 
ATOM     61  C   UNL     1       4.502  -4.763  22.723  0.00  0.00    +0.159 A 
ATOM     62  C   UNL     1       4.229  -4.049  23.894  0.00  0.00    +0.060 A 
BRANCH  61  63
ATOM     63  O   UNL     1       3.824  -5.910  22.400  0.00  0.00    -0.503 OA
ATOM     64  H   UNL     1       4.370  -6.665  22.673  0.00  0.00    +0.292 HD
ENDBRANCH  61  63
BRANCH  60  65
ATOM     65  O   UNL     1       5.693  -4.998  20.662  0.00  0.00    -0.503 OA
ATOM     66  H   UNL     1       5.558  -5.939  20.891  0.00  0.00    +0.292 HD
ENDBRANCH  60  65
ENDBRANCH  50  57
BRANCH  55  67
ATOM     67  O   UNL     1       2.500   0.838  28.871  0.00  0.00    -0.506 OA
ATOM     68  H   UNL     1       1.613   0.529  28.617  0.00  0.00    +0.292 HD
ENDBRANCH  55  67
BRANCH  46  69
ATOM     69  O   UNL     1       4.111   3.993  25.752  0.00  0.00    -0.461 OA
BRANCH  69  73
ATOM     70  C   UNL     1       0.511   4.191  23.492  0.00  0.00    +0.041 C 
ATOM     71  C   UNL     1       1.800   3.597  22.930  0.00  0.00    +0.150 C 
ATOM     72  O   UNL     1       2.722   3.279  23.975  0.00  0.00    -0.334 OA
ATOM     73  C   UNL     1       3.296   4.408  24.644  0.00  0.00    +0.339 C 
ATOM     74  C   UNL     1       4.120   5.257  23.637  0.00  0.00    +0.214 C 
ATOM     75  C   UNL     1       3.180   5.689  22.497  0.00  0.00    +0.180 C 
ATOM     76  C   UNL     1       2.464   4.482  21.867  0.00  0.00    +0.174 C 
BRANCH  74  77
ATOM     77  O   UNL     1       5.218   4.517  23.065  0.00  0.00    -0.383 OA
ATOM     78  H   UNL     1       6.010   5.049  23.244  0.00  0.00    +0.210 HD
ENDBRANCH  74  77
BRANCH  75  79
ATOM     79  O   UNL     1       3.944   6.369  21.485  0.00  0.00    -0.386 OA
ATOM     80  H   UNL     1       4.019   7.299  21.789  0.00  0.00    +0.210 HD
ENDBRANCH  75  79
BRANCH  76  81
ATOM     81  O   UNL     1       3.444   3.717  21.140  0.00  0.00    -0.387 OA
ATOM     82  H   UNL     1       3.027   3.475  20.283  0.00  0.00    +0.210 HD
ENDBRANCH  76  81
ENDBRANCH  69  73
ENDBRANCH  46  69
ENDBRANCH  45  51
ENDBRANCH   1  45
TORSDOF 28
ENDMDL
MODEL 6
REMARK VINA RESULT:      -5.7      1.456      2.671
REMARK  Name = 
REMARK  31 active torsions:
REMARK  status: ('A' for Active; 'I' for Inactive)
REMARK    1  A    between atoms: C_1  and  C_2
REMARK    2  A    between atoms: C_3  and  O_78
REMARK    3  A    between atoms: C_5  and  O_77
REMARK    4  A    between atoms: C_6  and  O_76
REMARK    5  A    between atoms: C_8  and  O_11
REMARK    6  A    between atoms: O_11  and  C_12
REMARK    7  A    between atoms: C_14  and  O_75
REMARK    8  A    between atoms: C_19  and  C_67
REMARK    9  A    between atoms: C_20  and  O_23
REMARK   10  A    between atoms: O_23  and  C_24
REMARK   11  A    between atoms: C_26  and  O_37
REMARK   12  A    between atoms: C_27  and  O_36
REMARK   13  A    between atoms: C_29  and  O_35
REMARK   14  A    between atoms: C_31  and  C_33
REMARK   15  A    between atoms: C_33  and  O_34
REMARK   16  A    between atoms: O_37  and  C_38
REMARK   17  A    between atoms: C_40  and  O_66
REMARK   18  A    between atoms: C_41  and  O_65
REMARK   19  A    between atoms: C_43  and  O_64
REMARK   20  A    between atoms: C_45  and  C_47
REMARK   21  A    between atoms: C_47  and  O_48
REMARK   22  A    between atoms: O_48  and  C_49
REMARK   23  A    between atoms: C_49  and  C_51
REMARK   24  A    between atoms: C_52  and  C_53
REMARK   25  A    between atoms: C_55  and  O_62
REMARK   26  A    between atoms: C_56  and  O_61
REMARK   27  A    between atoms: C_57  and  O_59
REMARK   28  A    between atoms: O_59  and  C_60
REMARK   29  A    between atoms: O_62  and  C_63
REMARK   30  A    between atoms: C_69  and  O_74
REMARK   31  A    between atoms: C_70  and  O_73
REMARK                            x       y       z     vdW  Elec       q    Type
REMARK                         _______ _______ _______ _____ _____    ______ ____
ROOT
ATOM      1  C   UNL     1       2.508  -5.013  25.301  0.00  0.00    +0.340 C 
ATOM      2  O   UNL     1       1.526  -5.772  26.059  0.00  0.00    -0.331 OA
ATOM      3  C   UNL     1       1.652  -7.200  26.041  0.00  0.00    +0.179 C 
ATOM      4  C   UNL     1       1.664  -7.735  24.604  0.00  0.00    +0.177 C 
ATOM      5  C   UNL     1       2.880  -7.149  23.883  0.00  0.00    +0.180 C 
ATOM      6  C   UNL     1       2.773  -5.611  23.848  0.00  0.00    +0.221 C 
ENDROOT
BRANCH   5   7
ATOM      7  O   UNL     1       4.092  -7.584  24.495  0.00  0.00    -0.386 OA
ATOM      8  H   UNL     1       4.145  -8.551  24.373  0.00  0.00    +0.210 HD
ENDBRANCH   5   7
BRANCH   4   9
ATOM      9  O   UNL     1       0.443  -7.376  23.931  0.00  0.00    -0.386 OA
ATOM     10  H   UNL     1      -0.067  -8.198  23.794  0.00  0.00    +0.210 HD
ENDBRANCH   4   9
BRANCH   6  11
ATOM     11  O   UNL     1       3.794  -4.974  22.997  0.00  0.00    -0.337 OA
BRANCH  11  12
ATOM     12  C   UNL     1       4.994  -4.489  23.703  0.00  0.00    +0.282 C 
ATOM     13  O   UNL     1       5.266  -3.065  23.488  0.00  0.00    -0.339 OA
ATOM     14  C   UNL     1       5.854  -2.696  22.212  0.00  0.00    +0.190 C 
ATOM     15  C   UNL     1       7.032  -3.588  21.773  0.00  0.00    +0.178 C 
ATOM     16  C   UNL     1       6.670  -5.044  21.935  0.00  0.00    +0.179 C 
ATOM     17  C   UNL     1       6.307  -5.266  23.407  0.00  0.00    +0.201 C 
BRANCH  16  18
ATOM     18  O   UNL     1       5.627  -5.421  21.020  0.00  0.00    -0.386 OA
ATOM     19  H   UNL     1       4.891  -5.863  21.492  0.00  0.00    +0.210 HD
ENDBRANCH  16  18
BRANCH  15  20
ATOM     20  O   UNL     1       8.204  -3.315  22.562  0.00  0.00    -0.386 OA
ATOM     21  H   UNL     1       8.512  -4.150  22.957  0.00  0.00    +0.210 HD
ENDBRANCH  15  20
BRANCH  17  22
ATOM     22  O   UNL     1       6.312  -6.658  23.745  0.00  0.00    -0.384 OA
ATOM     23  H   UNL     1       5.699  -7.107  23.130  0.00  0.00    +0.210 HD
ENDBRANCH  17  22
BRANCH  14  24
ATOM     24  C   UNL     1       6.444  -1.267  22.194  0.00  0.00    +0.266 C 
BRANCH  24  25
ATOM     25  O   UNL     1       7.195  -0.921  23.349  0.00  0.00    -0.459 OA
BRANCH  25  26
ATOM     26  C   UNL     1       8.379  -0.323  23.086  0.00  0.00    +0.332 C 
ATOM     27  O   UNL     1       9.360  -0.787  22.554  0.00  0.00    -0.246 OA
BRANCH  26  28
ATOM     28  C   UNL     1       8.268   1.009  23.700  0.00  0.00    +0.092 C 
ATOM     29  C   UNL     1       9.330   1.814  23.822  0.00  0.00    +0.015 C 
BRANCH  29  30
ATOM     30  C   UNL     1       9.188   3.139  24.428  0.00  0.00    -0.018 A 
ATOM     31  C   UNL     1       8.297   3.371  25.480  0.00  0.00    +0.057 A 
ATOM     32  C   UNL     1       8.186   4.632  26.061  0.00  0.00    +0.166 A 
ATOM     33  C   UNL     1       8.949   5.704  25.546  0.00  0.00    +0.201 A 
ATOM     34  C   UNL     1       9.831   5.495  24.474  0.00  0.00    +0.166 A 
ATOM     35  C   UNL     1       9.931   4.205  23.929  0.00  0.00    +0.057 A 
BRANCH  34  36
ATOM     36  O   UNL     1      10.655   6.353  23.804  0.00  0.00    -0.491 OA
ATOM     37  C   UNL     1      11.808   5.909  23.127  0.00  0.00    +0.277 C 
ENDBRANCH  34  36
BRANCH  33  38
ATOM     38  O   UNL     1       8.724   6.908  26.157  0.00  0.00    -0.501 OA
ATOM     39  H   UNL     1       7.793   7.142  26.123  0.00  0.00    +0.292 HD
ENDBRANCH  33  38
BRANCH  32  40
ATOM     40  O   UNL     1       7.365   4.906  27.129  0.00  0.00    -0.491 OA
ATOM     41  C   UNL     1       6.704   3.809  27.753  0.00  0.00    +0.277 C 
ENDBRANCH  32  40
ENDBRANCH  29  30
ENDBRANCH  26  28
ENDBRANCH  25  26
ENDBRANCH  24  25
ENDBRANCH  14  24
ENDBRANCH  11  12
ENDBRANCH   6  11
BRANCH   3  42
ATOM     42  C   UNL     1       0.477  -7.816  26.836  0.00  0.00    +0.190 C 
BRANCH  42  43
ATOM     43  O   UNL     1       0.872  -8.472  28.041  0.00  0.00    -0.392 OA
ATOM     44  H   UNL     1       1.670  -8.007  28.367  0.00  0.00    +0.210 HD
ENDBRANCH  42  43
ENDBRANCH   3  42
BRANCH   1  45
ATOM     45  O   UNL     1       3.671  -4.752  26.112  0.00  0.00    -0.453 OA
BRANCH  45  51
ATOM     46  C   UNL     1       3.212   1.549  27.075  0.00  0.00    +0.131 A 
ATOM     47  C   UNL     1       4.264   0.648  27.267  0.00  0.00    +0.093 A 
ATOM     48  C   UNL     1       4.033  -0.733  27.275  0.00  0.00    +0.147 A 
ATOM     49  O   UNL     1       5.093  -1.580  27.465  0.00  0.00    -0.451 OA
ATOM     50  C   UNL     1       4.983  -2.890  26.985  0.00  0.00    +0.181 A 
ATOM     51  C   UNL     1       3.792  -3.510  26.757  0.00  0.00    +0.214 A 
ATOM     52  C   UNL     1       2.586  -2.685  27.146  0.00  0.00    +0.238 A 
ATOM     53  O   UNL     1       1.522  -3.167  27.509  0.00  0.00    -0.283 OA
ATOM     54  C   UNL     1       2.748  -1.231  27.090  0.00  0.00    +0.109 A 
ATOM     55  C   UNL     1       1.696  -0.337  26.870  0.00  0.00    +0.135 A 
ATOM     56  C   UNL     1       1.923   1.046  26.873  0.00  0.00    +0.092 A 
BRANCH  50  57
ATOM     57  C   UNL     1       6.330  -3.468  26.711  0.00  0.00    +0.025 A 
ATOM     58  C   UNL     1       6.619  -4.783  27.142  0.00  0.00    +0.015 A 
ATOM     59  C   UNL     1       7.885  -5.352  26.958  0.00  0.00    +0.050 A 
ATOM     60  C   UNL     1       8.862  -4.613  26.318  0.00  0.00    +0.158 A 
ATOM     61  C   UNL     1       8.576  -3.350  25.813  0.00  0.00    +0.159 A 
ATOM     62  C   UNL     1       7.314  -2.775  25.992  0.00  0.00    +0.060 A 
BRANCH  61  63
ATOM     63  O   UNL     1       9.580  -2.696  25.147  0.00  0.00    -0.503 OA
ATOM     64  H   UNL     1      10.330  -3.308  25.065  0.00  0.00    +0.292 HD
ENDBRANCH  61  63
BRANCH  60  65
ATOM     65  O   UNL     1      10.116  -5.140  26.189  0.00  0.00    -0.503 OA
ATOM     66  H   UNL     1      10.676  -4.383  25.927  0.00  0.00    +0.292 HD
ENDBRANCH  60  65
ENDBRANCH  50  57
BRANCH  55  67
ATOM     67  O   UNL     1       0.443  -0.809  26.600  0.00  0.00    -0.506 OA
ATOM     68  H   UNL     1      -0.133  -0.702  27.376  0.00  0.00    +0.292 HD
ENDBRANCH  55  67
BRANCH  46  69
ATOM     69  O   UNL     1       3.296   2.923  27.065  0.00  0.00    -0.461 OA
BRANCH  69  73
ATOM     70  C   UNL     1       1.126   4.631  23.826  0.00  0.00    +0.041 C 
ATOM     71  C   UNL     1       2.075   3.448  23.645  0.00  0.00    +0.150 C 
ATOM     72  O   UNL     1       2.359   2.816  24.895  0.00  0.00    -0.334 OA
ATOM     73  C   UNL     1       3.165   3.584  25.796  0.00  0.00    +0.339 C 
ATOM     74  C   UNL     1       4.559   3.849  25.162  0.00  0.00    +0.214 C 
ATOM     75  C   UNL     1       4.344   4.581  23.826  0.00  0.00    +0.180 C 
ATOM     76  C   UNL     1       3.372   3.816  22.912  0.00  0.00    +0.174 C 
BRANCH  74  77
ATOM     77  O   UNL     1       5.284   2.630  24.901  0.00  0.00    -0.383 OA
ATOM     78  H   UNL     1       4.649   2.038  24.466  0.00  0.00    +0.210 HD
ENDBRANCH  74  77
BRANCH  75  79
ATOM     79  O   UNL     1       5.609   4.727  23.157  0.00  0.00    -0.386 OA
ATOM     80  H   UNL     1       6.035   5.514  23.560  0.00  0.00    +0.210 HD
ENDBRANCH  75  79
BRANCH  76  81
ATOM     81  O   UNL     1       4.035   2.619  22.466  0.00  0.00    -0.387 OA
ATOM     82  H   UNL     1       4.257   2.762  21.518  0.00  0.00    +0.210 HD
ENDBRANCH  76  81
ENDBRANCH  69  73
ENDBRANCH  46  69
ENDBRANCH  45  51
ENDBRANCH   1  45
TORSDOF 28
ENDMDL
MODEL 7
REMARK VINA RESULT:      -5.2      1.942      7.416
REMARK  Name = 
REMARK  31 active torsions:
REMARK  status: ('A' for Active; 'I' for Inactive)
REMARK    1  A    between atoms: C_1  and  C_2
REMARK    2  A    between atoms: C_3  and  O_78
REMARK    3  A    between atoms: C_5  and  O_77
REMARK    4  A    between atoms: C_6  and  O_76
REMARK    5  A    between atoms: C_8  and  O_11
REMARK    6  A    between atoms: O_11  and  C_12
REMARK    7  A    between atoms: C_14  and  O_75
REMARK    8  A    between atoms: C_19  and  C_67
REMARK    9  A    between atoms: C_20  and  O_23
REMARK   10  A    between atoms: O_23  and  C_24
REMARK   11  A    between atoms: C_26  and  O_37
REMARK   12  A    between atoms: C_27  and  O_36
REMARK   13  A    between atoms: C_29  and  O_35
REMARK   14  A    between atoms: C_31  and  C_33
REMARK   15  A    between atoms: C_33  and  O_34
REMARK   16  A    between atoms: O_37  and  C_38
REMARK   17  A    between atoms: C_40  and  O_66
REMARK   18  A    between atoms: C_41  and  O_65
REMARK   19  A    between atoms: C_43  and  O_64
REMARK   20  A    between atoms: C_45  and  C_47
REMARK   21  A    between atoms: C_47  and  O_48
REMARK   22  A    between atoms: O_48  and  C_49
REMARK   23  A    between atoms: C_49  and  C_51
REMARK   24  A    between atoms: C_52  and  C_53
REMARK   25  A    between atoms: C_55  and  O_62
REMARK   26  A    between atoms: C_56  and  O_61
REMARK   27  A    between atoms: C_57  and  O_59
REMARK   28  A    between atoms: O_59  and  C_60
REMARK   29  A    between atoms: O_62  and  C_63
REMARK   30  A    between atoms: C_69  and  O_74
REMARK   31  A    between atoms: C_70  and  O_73
REMARK                            x       y       z     vdW  Elec       q    Type
REMARK                         _______ _______ _______ _____ _____    ______ ____
ROOT
ATOM      1  C   UNL     1       4.902   1.202  29.063  0.00  0.00    +0.340 C 
ATOM      2  O   UNL     1       5.456   2.209  29.954  0.00  0.00    -0.331 OA
ATOM      3  C   UNL     1       6.311   3.198  29.367  0.00  0.00    +0.179 C 
ATOM      4  C   UNL     1       7.470   2.544  28.605  0.00  0.00    +0.177 C 
ATOM      5  C   UNL     1       6.884   1.700  27.471  0.00  0.00    +0.180 C 
ATOM      6  C   UNL     1       5.980   0.597  28.058  0.00  0.00    +0.221 C 
ENDROOT
BRANCH   5   7
ATOM      7  O   UNL     1       6.186   2.519  26.535  0.00  0.00    -0.386 OA
ATOM      8  H   UNL     1       5.621   3.125  27.051  0.00  0.00    +0.210 HD
ENDBRANCH   5   7
BRANCH   4   9
ATOM      9  O   UNL     1       8.256   1.734  29.498  0.00  0.00    -0.386 OA
ATOM     10  H   UNL     1       8.341   2.224  30.339  0.00  0.00    +0.210 HD
ENDBRANCH   4   9
BRANCH   6  11
ATOM     11  O   UNL     1       5.536  -0.388  27.055  0.00  0.00    -0.337 OA
BRANCH  11  12
ATOM     12  C   UNL     1       6.449  -1.522  26.832  0.00  0.00    +0.282 C 
ATOM     13  O   UNL     1       7.267  -1.388  25.622  0.00  0.00    -0.339 OA
ATOM     14  C   UNL     1       6.610  -1.656  24.355  0.00  0.00    +0.190 C 
ATOM     15  C   UNL     1       5.751  -2.936  24.341  0.00  0.00    +0.178 C 
ATOM     16  C   UNL     1       4.868  -2.983  25.564  0.00  0.00    +0.179 C 
ATOM     17  C   UNL     1       5.782  -2.925  26.792  0.00  0.00    +0.201 C 
BRANCH  16  18
ATOM     18  O   UNL     1       3.882  -1.938  25.528  0.00  0.00    -0.386 OA
ATOM     19  H   UNL     1       3.702  -1.660  24.606  0.00  0.00    +0.210 HD
ENDBRANCH  16  18
BRANCH  15  20
ATOM     20  O   UNL     1       6.583  -4.110  24.328  0.00  0.00    -0.386 OA
ATOM     21  H   UNL     1       7.171  -4.081  25.104  0.00  0.00    +0.210 HD
ENDBRANCH  15  20
BRANCH  17  22
ATOM     22  O   UNL     1       5.093  -3.334  27.980  0.00  0.00    -0.384 OA
ATOM     23  H   UNL     1       4.424  -2.650  28.176  0.00  0.00    +0.210 HD
ENDBRANCH  17  22
BRANCH  14  24
ATOM     24  C   UNL     1       7.594  -1.856  23.179  0.00  0.00    +0.266 C 
BRANCH  24  25
ATOM     25  O   UNL     1       8.159  -0.658  22.669  0.00  0.00    -0.459 OA
BRANCH  25  26
ATOM     26  C   UNL     1       9.509  -0.608  22.730  0.00  0.00    +0.332 C 
ATOM     27  O   UNL     1      10.304  -1.518  22.677  0.00  0.00    -0.246 OA
BRANCH  26  28
ATOM     28  C   UNL     1       9.819   0.804  22.998  0.00  0.00    +0.092 C 
ATOM     29  C   UNL     1       8.880   1.660  23.414  0.00  0.00    +0.015 C 
BRANCH  29  30
ATOM     30  C   UNL     1       9.220   3.059  23.683  0.00  0.00    -0.018 A 
ATOM     31  C   UNL     1      10.541   3.512  23.641  0.00  0.00    +0.057 A 
ATOM     32  C   UNL     1      10.849   4.849  23.880  0.00  0.00    +0.166 A 
ATOM     33  C   UNL     1       9.815   5.750  24.219  0.00  0.00    +0.201 A 
ATOM     34  C   UNL     1       8.484   5.308  24.290  0.00  0.00    +0.166 A 
ATOM     35  C   UNL     1       8.211   3.957  24.021  0.00  0.00    +0.057 A 
BRANCH  34  36
ATOM     36  O   UNL     1       7.330   5.968  24.599  0.00  0.00    -0.491 OA
ATOM     37  C   UNL     1       7.197   6.735  25.772  0.00  0.00    +0.277 C 
ENDBRANCH  34  36
BRANCH  33  38
ATOM     38  O   UNL     1      10.235   7.026  24.483  0.00  0.00    -0.501 OA
ATOM     39  H   UNL     1      10.584   7.095  25.375  0.00  0.00    +0.292 HD
ENDBRANCH  33  38
BRANCH  32  40
ATOM     40  O   UNL     1      12.123   5.360  23.803  0.00  0.00    -0.491 OA
ATOM     41  C   UNL     1      12.780   5.311  22.540  0.00  0.00    +0.277 C 
ENDBRANCH  32  40
ENDBRANCH  29  30
ENDBRANCH  26  28
ENDBRANCH  25  26
ENDBRANCH  24  25
ENDBRANCH  14  24
ENDBRANCH  11  12
ENDBRANCH   6  11
BRANCH   3  42
ATOM     42  C   UNL     1       6.853   4.119  30.485  0.00  0.00    +0.190 C 
BRANCH  42  43
ATOM     43  O   UNL     1       8.255   4.376  30.397  0.00  0.00    -0.392 OA
ATOM     44  H   UNL     1       8.353   5.303  30.096  0.00  0.00    +0.210 HD
ENDBRANCH  42  43
ENDBRANCH   3  42
BRANCH   1  45
ATOM     45  O   UNL     1       3.671   1.676  28.479  0.00  0.00    -0.453 OA
BRANCH  45  51
ATOM     46  C   UNL     1       0.912  -3.834  26.784  0.00  0.00    +0.131 A 
ATOM     47  C   UNL     1       0.684  -2.512  26.386  0.00  0.00    +0.093 A 
ATOM     48  C   UNL     1       1.207  -1.441  27.122  0.00  0.00    +0.147 A 
ATOM     49  O   UNL     1       0.960  -0.163  26.695  0.00  0.00    -0.451 OA
ATOM     50  C   UNL     1       1.850   0.844  27.086  0.00  0.00    +0.181 A 
ATOM     51  C   UNL     1       2.654   0.754  28.182  0.00  0.00    +0.214 A 
ATOM     52  C   UNL     1       2.446  -0.504  28.994  0.00  0.00    +0.238 A 
ATOM     53  O   UNL     1       2.641  -0.574  30.200  0.00  0.00    -0.283 OA
ATOM     54  C   UNL     1       1.964  -1.678  28.263  0.00  0.00    +0.109 A 
ATOM     55  C   UNL     1       2.220  -2.996  28.650  0.00  0.00    +0.135 A 
ATOM     56  C   UNL     1       1.689  -4.070  27.922  0.00  0.00    +0.092 A 
BRANCH  50  57
ATOM     57  C   UNL     1       1.828   1.975  26.115  0.00  0.00    +0.025 A 
ATOM     58  C   UNL     1       0.606   2.341  25.505  0.00  0.00    +0.015 A 
ATOM     59  C   UNL     1       0.542   3.359  24.546  0.00  0.00    +0.050 A 
ATOM     60  C   UNL     1       1.701   4.034  24.211  0.00  0.00    +0.158 A 
ATOM     61  C   UNL     1       2.898   3.747  24.857  0.00  0.00    +0.159 A 
ATOM     62  C   UNL     1       2.970   2.733  25.816  0.00  0.00    +0.060 A 
BRANCH  61  63
ATOM     63  O   UNL     1       3.995   4.491  24.507  0.00  0.00    -0.503 OA
ATOM     64  H   UNL     1       3.770   5.428  24.625  0.00  0.00    +0.292 HD
ENDBRANCH  61  63
BRANCH  60  65
ATOM     65  O   UNL     1       1.655   4.987  23.233  0.00  0.00    -0.503 OA
ATOM     66  H   UNL     1       0.978   4.665  22.606  0.00  0.00    +0.292 HD
ENDBRANCH  60  65
ENDBRANCH  50  57
BRANCH  55  67
ATOM     67  O   UNL     1       3.034  -3.250  29.717  0.00  0.00    -0.506 OA
ATOM     68  H   UNL     1       3.934  -2.926  29.542  0.00  0.00    +0.292 HD
ENDBRANCH  55  67
BRANCH  46  69
ATOM     69  O   UNL     1       0.443  -4.971  26.167  0.00  0.00    -0.461 OA
BRANCH  69  73
ATOM     70  C   UNL     1       4.264  -6.845  26.235  0.00  0.00    +0.041 C 
ATOM     71  C   UNL     1       3.669  -6.242  24.965  0.00  0.00    +0.150 C 
ATOM     72  O   UNL     1       2.601  -5.342  25.271  0.00  0.00    -0.334 OA
ATOM     73  C   UNL     1       1.412  -5.958  25.777  0.00  0.00    +0.339 C 
ATOM     74  C   UNL     1       0.822  -6.922  24.710  0.00  0.00    +0.214 C 
ATOM     75  C   UNL     1       1.898  -7.965  24.362  0.00  0.00    +0.180 C 
ATOM     76  C   UNL     1       3.219  -7.295  23.945  0.00  0.00    +0.174 C 
BRANCH  74  77
ATOM     77  O   UNL     1       0.444  -6.236  23.499  0.00  0.00    -0.383 OA
ATOM     78  H   UNL     1      -0.317  -6.727  23.150  0.00  0.00    +0.210 HD
ENDBRANCH  74  77
BRANCH  75  79
ATOM     79  O   UNL     1       1.425  -8.793  23.285  0.00  0.00    -0.386 OA
ATOM     80  H   UNL     1       2.200  -8.937  22.700  0.00  0.00    +0.210 HD
ENDBRANCH  75  79
BRANCH  76  81
ATOM     81  O   UNL     1       3.013  -6.675  22.662  0.00  0.00    -0.387 OA
ATOM     82  H   UNL     1       2.241  -6.074  22.765  0.00  0.00    +0.210 HD
ENDBRANCH  76  81
ENDBRANCH  69  73
ENDBRANCH  46  69
ENDBRANCH  45  51
ENDBRANCH   1  45
TORSDOF 28
ENDMDL
MODEL 8
REMARK VINA RESULT:      -5.1      2.194     10.397
REMARK  Name = 
REMARK  31 active torsions:
REMARK  status: ('A' for Active; 'I' for Inactive)
REMARK    1  A    between atoms: C_1  and  C_2
REMARK    2  A    between atoms: C_3  and  O_78
REMARK    3  A    between atoms: C_5  and  O_77
REMARK    4  A    between atoms: C_6  and  O_76
REMARK    5  A    between atoms: C_8  and  O_11
REMARK    6  A    between atoms: O_11  and  C_12
REMARK    7  A    between atoms: C_14  and  O_75
REMARK    8  A    between atoms: C_19  and  C_67
REMARK    9  A    between atoms: C_20  and  O_23
REMARK   10  A    between atoms: O_23  and  C_24
REMARK   11  A    between atoms: C_26  and  O_37
REMARK   12  A    between atoms: C_27  and  O_36
REMARK   13  A    between atoms: C_29  and  O_35
REMARK   14  A    between atoms: C_31  and  C_33
REMARK   15  A    between atoms: C_33  and  O_34
REMARK   16  A    between atoms: O_37  and  C_38
REMARK   17  A    between atoms: C_40  and  O_66
REMARK   18  A    between atoms: C_41  and  O_65
REMARK   19  A    between atoms: C_43  and  O_64
REMARK   20  A    between atoms: C_45  and  C_47
REMARK   21  A    between atoms: C_47  and  O_48
REMARK   22  A    between atoms: O_48  and  C_49
REMARK   23  A    between atoms: C_49  and  C_51
REMARK   24  A    between atoms: C_52  and  C_53
REMARK   25  A    between atoms: C_55  and  O_62
REMARK   26  A    between atoms: C_56  and  O_61
REMARK   27  A    between atoms: C_57  and  O_59
REMARK   28  A    between atoms: O_59  and  C_60
REMARK   29  A    between atoms: O_62  and  C_63
REMARK   30  A    between atoms: C_69  and  O_74
REMARK   31  A    between atoms: C_70  and  O_73
REMARK                            x       y       z     vdW  Elec       q    Type
REMARK                         _______ _______ _______ _____ _____    ______ ____
ROOT
ATOM      1  C   UNL     1       3.939   4.251  23.713  0.00  0.00    +0.340 C 
ATOM      2  O   UNL     1       3.888   5.051  22.500  0.00  0.00    -0.331 OA
ATOM      3  C   UNL     1       3.156   6.282  22.563  0.00  0.00    +0.179 C 
ATOM      4  C   UNL     1       1.719   6.047  23.040  0.00  0.00    +0.177 C 
ATOM      5  C   UNL     1       1.771   5.461  24.453  0.00  0.00    +0.180 C 
ATOM      6  C   UNL     1       2.523   4.114  24.431  0.00  0.00    +0.221 C 
ENDROOT
BRANCH   5   7
ATOM      7  O   UNL     1       2.362   6.386  25.365  0.00  0.00    -0.386 OA
ATOM      8  H   UNL     1       1.653   6.987  25.662  0.00  0.00    +0.210 HD
ENDBRANCH   5   7
BRANCH   4   9
ATOM      9  O   UNL     1       1.037   5.155  22.138  0.00  0.00    -0.386 OA
ATOM     10  H   UNL     1       1.601   5.053  21.347  0.00  0.00    +0.210 HD
ENDBRANCH   4   9
BRANCH   6  11
ATOM     11  O   UNL     1       2.445   3.382  25.707  0.00  0.00    -0.337 OA
BRANCH  11  12
ATOM     12  C   UNL     1       3.599   3.555  26.609  0.00  0.00    +0.282 C 
ATOM     13  O   UNL     1       4.324   2.310  26.880  0.00  0.00    -0.339 OA
ATOM     14  C   UNL     1       3.713   1.388  27.822  0.00  0.00    +0.190 C 
ATOM     15  C   UNL     1       3.188   2.051  29.111  0.00  0.00    +0.178 C 
ATOM     16  C   UNL     1       2.379   3.279  28.772  0.00  0.00    +0.179 C 
ATOM     17  C   UNL     1       3.288   4.223  27.977  0.00  0.00    +0.201 C 
BRANCH  16  18
ATOM     18  O   UNL     1       1.169   2.925  28.081  0.00  0.00    -0.386 OA
ATOM     19  H   UNL     1       1.328   2.189  27.454  0.00  0.00    +0.210 HD
ENDBRANCH  16  18
BRANCH  15  20
ATOM     20  O   UNL     1       4.277   2.439  29.967  0.00  0.00    -0.386 OA
ATOM     21  H   UNL     1       5.115   2.211  29.525  0.00  0.00    +0.210 HD
ENDBRANCH  15  20
BRANCH  17  22
ATOM     22  O   UNL     1       2.753   5.550  27.929  0.00  0.00    -0.384 OA
ATOM     23  H   UNL     1       2.266   5.697  28.763  0.00  0.00    +0.210 HD
ENDBRANCH  17  22
BRANCH  14  24
ATOM     24  C   UNL     1       4.681   0.296  28.334  0.00  0.00    +0.266 C 
BRANCH  24  25
ATOM     25  O   UNL     1       5.690  -0.082  27.409  0.00  0.00    -0.459 OA
BRANCH  25  26
ATOM     26  C   UNL     1       5.256  -0.874  26.403  0.00  0.00    +0.332 C 
ATOM     27  O   UNL     1       5.109  -0.602  25.234  0.00  0.00    -0.246 OA
BRANCH  26  28
ATOM     28  C   UNL     1       4.878  -2.135  27.057  0.00  0.00    +0.092 C 
ATOM     29  C   UNL     1       4.204  -3.089  26.404  0.00  0.00    +0.015 C 
BRANCH  29  30
ATOM     30  C   UNL     1       3.850  -4.339  27.079  0.00  0.00    -0.018 A 
ATOM     31  C   UNL     1       2.937  -5.239  26.522  0.00  0.00    +0.057 A 
ATOM     32  C   UNL     1       2.624  -6.433  27.166  0.00  0.00    +0.166 A 
ATOM     33  C   UNL     1       3.199  -6.716  28.425  0.00  0.00    +0.201 A 
ATOM     34  C   UNL     1       4.100  -5.813  29.011  0.00  0.00    +0.166 A 
ATOM     35  C   UNL     1       4.407  -4.629  28.322  0.00  0.00    +0.057 A 
BRANCH  34  36
ATOM     36  O   UNL     1       4.771  -5.852  30.199  0.00  0.00    -0.491 OA
ATOM     37  C   UNL     1       6.067  -6.392  30.310  0.00  0.00    +0.277 C 
ENDBRANCH  34  36
BRANCH  33  38
ATOM     38  O   UNL     1       2.783  -7.892  28.989  0.00  0.00    -0.501 OA
ATOM     39  H   UNL     1       2.460  -8.499  28.318  0.00  0.00    +0.292 HD
ENDBRANCH  33  38
BRANCH  32  40
ATOM     40  O   UNL     1       1.772  -7.377  26.641  0.00  0.00    -0.491 OA
ATOM     41  C   UNL     1       2.147  -7.997  25.415  0.00  0.00    +0.277 C 
ENDBRANCH  32  40
ENDBRANCH  29  30
ENDBRANCH  26  28
ENDBRANCH  25  26
ENDBRANCH  24  25
ENDBRANCH  14  24
ENDBRANCH  11  12
ENDBRANCH   6  11
BRANCH   3  42
ATOM     42  C   UNL     1       3.159   6.937  21.162  0.00  0.00    +0.190 C 
BRANCH  42  43
ATOM     43  O   UNL     1       2.693   6.080  20.119  0.00  0.00    -0.392 OA
ATOM     44  H   UNL     1       1.734   5.949  20.269  0.00  0.00    +0.210 HD
ENDBRANCH  42  43
ENDBRANCH   3  42
BRANCH   1  45
ATOM     45  O   UNL     1       5.043   4.669  24.541  0.00  0.00    -0.453 OA
BRANCH  45  51
ATOM     46  C   UNL     1       8.895  -0.430  24.492  0.00  0.00    +0.131 A 
ATOM     47  C   UNL     1       8.916   0.751  25.241  0.00  0.00    +0.093 A 
ATOM     48  C   UNL     1       8.143   1.855  24.861  0.00  0.00    +0.147 A 
ATOM     49  O   UNL     1       8.193   2.991  25.625  0.00  0.00    -0.451 OA
ATOM     50  C   UNL     1       7.104   3.869  25.571  0.00  0.00    +0.181 A 
ATOM     51  C   UNL     1       6.232   3.922  24.526  0.00  0.00    +0.214 A 
ATOM     52  C   UNL     1       6.589   3.001  23.381  0.00  0.00    +0.238 A 
ATOM     53  O   UNL     1       6.301   3.226  22.214  0.00  0.00    -0.283 OA
ATOM     54  C   UNL     1       7.340   1.793  23.729  0.00  0.00    +0.109 A 
ATOM     55  C   UNL     1       7.292   0.606  22.991  0.00  0.00    +0.135 A 
ATOM     56  C   UNL     1       8.073  -0.496  23.362  0.00  0.00    +0.092 A 
BRANCH  50  57
ATOM     57  C   UNL     1       7.010   4.673  26.823  0.00  0.00    +0.025 A 
ATOM     58  C   UNL     1       7.031   6.084  26.743  0.00  0.00    +0.015 A 
ATOM     59  C   UNL     1       7.000   6.884  27.891  0.00  0.00    +0.050 A 
ATOM     60  C   UNL     1       6.924   6.271  29.128  0.00  0.00    +0.158 A 
ATOM     61  C   UNL     1       6.819   4.889  29.228  0.00  0.00    +0.159 A 
ATOM     62  C   UNL     1       6.848   4.084  28.085  0.00  0.00    +0.060 A 
BRANCH  61  63
ATOM     63  O   UNL     1       6.697   4.356  30.485  0.00  0.00    -0.503 OA
ATOM     64  H   UNL     1       7.573   4.043  30.762  0.00  0.00    +0.292 HD
ENDBRANCH  61  63
BRANCH  60  65
ATOM     65  O   UNL     1       6.953   7.044  30.255  0.00  0.00    -0.503 OA
ATOM     66  H   UNL     1       6.020   7.093  30.545  0.00  0.00    +0.292 HD
ENDBRANCH  60  65
ENDBRANCH  50  57
BRANCH  55  67
ATOM     67  O   UNL     1       6.444   0.497  21.926  0.00  0.00    -0.506 OA
ATOM     68  H   UNL     1       6.296   1.368  21.520  0.00  0.00    +0.292 HD
ENDBRANCH  55  67
BRANCH  46  69
ATOM     69  O   UNL     1       9.616  -1.576  24.740  0.00  0.00    -0.461 OA
BRANCH  69  73
ATOM     70  C   UNL     1       6.880  -4.053  22.620  0.00  0.00    +0.041 C 
ATOM     71  C   UNL     1       6.892  -3.961  24.144  0.00  0.00    +0.150 C 
ATOM     72  O   UNL     1       7.596  -2.799  24.587  0.00  0.00    -0.334 OA
ATOM     73  C   UNL     1       9.012  -2.828  24.377  0.00  0.00    +0.339 C 
ATOM     74  C   UNL     1       9.641  -4.000  25.180  0.00  0.00    +0.214 C 
ATOM     75  C   UNL     1       8.972  -5.307  24.721  0.00  0.00    +0.180 C 
ATOM     76  C   UNL     1       7.438  -5.223  24.825  0.00  0.00    +0.174 C 
BRANCH  74  77
ATOM     77  O   UNL     1       9.441  -3.861  26.602  0.00  0.00    -0.383 OA
ATOM     78  H   UNL     1       8.654  -3.302  26.699  0.00  0.00    +0.210 HD
ENDBRANCH  74  77
BRANCH  75  79
ATOM     79  O   UNL     1       9.443  -6.394  25.537  0.00  0.00    -0.386 OA
ATOM     80  H   UNL     1       9.293  -7.208  25.009  0.00  0.00    +0.210 HD
ENDBRANCH  75  79
BRANCH  76  81
ATOM     81  O   UNL     1       7.091  -5.212  26.222  0.00  0.00    -0.387 OA
ATOM     82  H   UNL     1       6.997  -6.153  26.492  0.00  0.00    +0.210 HD
ENDBRANCH  76  81
ENDBRANCH  69  73
ENDBRANCH  46  69
ENDBRANCH  45  51
ENDBRANCH   1  45
TORSDOF 28
ENDMDL
MODEL 9
REMARK VINA RESULT:      -4.7      1.617      2.526
REMARK  Name = 
REMARK  31 active torsions:
REMARK  status: ('A' for Active; 'I' for Inactive)
REMARK    1  A    between atoms: C_1  and  C_2
REMARK    2  A    between atoms: C_3  and  O_78
REMARK    3  A    between atoms: C_5  and  O_77
REMARK    4  A    between atoms: C_6  and  O_76
REMARK    5  A    between atoms: C_8  and  O_11
REMARK    6  A    between atoms: O_11  and  C_12
REMARK    7  A    between atoms: C_14  and  O_75
REMARK    8  A    between atoms: C_19  and  C_67
REMARK    9  A    between atoms: C_20  and  O_23
REMARK   10  A    between atoms: O_23  and  C_24
REMARK   11  A    between atoms: C_26  and  O_37
REMARK   12  A    between atoms: C_27  and  O_36
REMARK   13  A    between atoms: C_29  and  O_35
REMARK   14  A    between atoms: C_31  and  C_33
REMARK   15  A    between atoms: C_33  and  O_34
REMARK   16  A    between atoms: O_37  and  C_38
REMARK   17  A    between atoms: C_40  and  O_66
REMARK   18  A    between atoms: C_41  and  O_65
REMARK   19  A    between atoms: C_43  and  O_64
REMARK   20  A    between atoms: C_45  and  C_47
REMARK   21  A    between atoms: C_47  and  O_48
REMARK   22  A    between atoms: O_48  and  C_49
REMARK   23  A    between atoms: C_49  and  C_51
REMARK   24  A    between atoms: C_52  and  C_53
REMARK   25  A    between atoms: C_55  and  O_62
REMARK   26  A    between atoms: C_56  and  O_61
REMARK   27  A    between atoms: C_57  and  O_59
REMARK   28  A    between atoms: O_59  and  C_60
REMARK   29  A    between atoms: O_62  and  C_63
REMARK   30  A    between atoms: C_69  and  O_74
REMARK   31  A    between atoms: C_70  and  O_73
REMARK                            x       y       z     vdW  Elec       q    Type
REMARK                         _______ _______ _______ _____ _____    ______ ____
ROOT
ATOM      1  C   UNL     1       2.868  -4.267  25.515  0.00  0.00    +0.340 C 
ATOM      2  O   UNL     1       1.817  -4.906  26.291  0.00  0.00    -0.331 OA
ATOM      3  C   UNL     1       1.740  -6.336  26.229  0.00  0.00    +0.179 C 
ATOM      4  C   UNL     1       1.626  -6.821  24.780  0.00  0.00    +0.177 C 
ATOM      5  C   UNL     1       2.886  -6.387  24.027  0.00  0.00    +0.180 C 
ATOM      6  C   UNL     1       2.994  -4.848  24.037  0.00  0.00    +0.221 C 
ENDROOT
BRANCH   5   7
ATOM      7  O   UNL     1       4.046  -7.006  24.578  0.00  0.00    -0.386 OA
ATOM      8  H   UNL     1       4.072  -6.775  25.526  0.00  0.00    +0.210 HD
ENDBRANCH   5   7
BRANCH   4   9
ATOM      9  O   UNL     1       0.445  -6.274  24.165  0.00  0.00    -0.386 OA
ATOM     10  H   UNL     1      -0.266  -6.291  24.835  0.00  0.00    +0.210 HD
ENDBRANCH   4   9
BRANCH   6  11
ATOM     11  O   UNL     1       4.064  -4.333  23.164  0.00  0.00    -0.337 OA
BRANCH  11  12
ATOM     12  C   UNL     1       5.386  -4.190  23.799  0.00  0.00    +0.282 C 
ATOM     13  O   UNL     1       5.866  -2.805  23.850  0.00  0.00    -0.339 OA
ATOM     14  C   UNL     1       6.387  -2.247  22.614  0.00  0.00    +0.190 C 
ATOM     15  C   UNL     1       7.358  -3.174  21.857  0.00  0.00    +0.178 C 
ATOM     16  C   UNL     1       6.780  -4.565  21.760  0.00  0.00    +0.179 C 
ATOM     17  C   UNL     1       6.522  -5.056  23.188  0.00  0.00    +0.201 C 
BRANCH  16  18
ATOM     18  O   UNL     1       5.611  -4.579  20.924  0.00  0.00    -0.386 OA
ATOM     19  H   UNL     1       5.468  -5.468  20.538  0.00  0.00    +0.210 HD
ENDBRANCH  16  18
BRANCH  15  20
ATOM     20  O   UNL     1       8.626  -3.250  22.533  0.00  0.00    -0.386 OA
ATOM     21  H   UNL     1       9.181  -2.507  22.233  0.00  0.00    +0.210 HD
ENDBRANCH  15  20
BRANCH  17  22
ATOM     22  O   UNL     1       6.331  -6.475  23.229  0.00  0.00    -0.384 OA
ATOM     23  H   UNL     1       6.045  -6.702  24.135  0.00  0.00    +0.210 HD
ENDBRANCH  17  22
BRANCH  14  24
ATOM     24  C   UNL     1       7.199  -0.947  22.818  0.00  0.00    +0.266 C 
BRANCH  24  25
ATOM     25  O   UNL     1       6.428   0.245  22.781  0.00  0.00    -0.459 OA
BRANCH  25  26
ATOM     26  C   UNL     1       6.091   0.730  23.998  0.00  0.00    +0.332 C 
ATOM     27  O   UNL     1       5.320   0.272  24.808  0.00  0.00    -0.246 OA
BRANCH  26  28
ATOM     28  C   UNL     1       6.785   2.023  24.090  0.00  0.00    +0.092 C 
ATOM     29  C   UNL     1       8.001   2.127  24.638  0.00  0.00    +0.015 C 
BRANCH  29  30
ATOM     30  C   UNL     1       8.672   3.427  24.707  0.00  0.00    -0.018 A 
ATOM     31  C   UNL     1       9.752   3.739  23.876  0.00  0.00    +0.057 A 
ATOM     32  C   UNL     1      10.369   4.986  23.939  0.00  0.00    +0.166 A 
ATOM     33  C   UNL     1       9.929   5.932  24.892  0.00  0.00    +0.201 A 
ATOM     34  C   UNL     1       8.861   5.627  25.751  0.00  0.00    +0.166 A 
ATOM     35  C   UNL     1       8.251   4.367  25.643  0.00  0.00    +0.057 A 
BRANCH  34  36
ATOM     36  O   UNL     1       8.266   6.353  26.743  0.00  0.00    -0.491 OA
ATOM     37  C   UNL     1       6.939   6.118  27.151  0.00  0.00    +0.277 C 
ENDBRANCH  34  36
BRANCH  33  38
ATOM     38  O   UNL     1      10.637   7.103  24.900  0.00  0.00    -0.501 OA
ATOM     39  H   UNL     1      10.080   7.843  24.645  0.00  0.00    +0.292 HD
ENDBRANCH  33  38
BRANCH  32  40
ATOM     40  O   UNL     1      11.401   5.364  23.113  0.00  0.00    -0.491 OA
ATOM     41  C   UNL     1      12.698   4.849  23.398  0.00  0.00    +0.277 C 
ENDBRANCH  32  40
ENDBRANCH  29  30
ENDBRANCH  26  28
ENDBRANCH  25  26
ENDBRANCH  24  25
ENDBRANCH  14  24
ENDBRANCH  11  12
ENDBRANCH   6  11
BRANCH   3  42
ATOM     42  C   UNL     1       0.520  -6.808  27.053  0.00  0.00    +0.190 C 
BRANCH  42  43
ATOM     43  O   UNL     1       0.627  -8.149  27.533  0.00  0.00    -0.392 OA
ATOM     44  H   UNL     1       1.439  -8.189  28.079  0.00  0.00    +0.210 HD
ENDBRANCH  42  43
ENDBRANCH   3  42
BRANCH   1  45
ATOM     45  O   UNL     1       4.084  -4.196  26.286  0.00  0.00    -0.453 OA
BRANCH  45  51
ATOM     46  C   UNL     1       3.829   1.827  28.407  0.00  0.00    +0.131 A 
ATOM     47  C   UNL     1       4.887   0.919  28.295  0.00  0.00    +0.093 A 
ATOM     48  C   UNL     1       4.643  -0.445  28.087  0.00  0.00    +0.147 A 
ATOM     49  O   UNL     1       5.709  -1.298  27.981  0.00  0.00    -0.451 OA
ATOM     50  C   UNL     1       5.521  -2.503  27.295  0.00  0.00    +0.181 A 
ATOM     51  C   UNL     1       4.304  -3.088  27.120  0.00  0.00    +0.214 A 
ATOM     52  C   UNL     1       3.169  -2.359  27.805  0.00  0.00    +0.238 A 
ATOM     53  O   UNL     1       2.157  -2.911  28.215  0.00  0.00    -0.283 OA
ATOM     54  C   UNL     1       3.340  -0.917  27.988  0.00  0.00    +0.109 A 
ATOM     55  C   UNL     1       2.279  -0.011  28.072  0.00  0.00    +0.135 A 
ATOM     56  C   UNL     1       2.519   1.352  28.291  0.00  0.00    +0.092 A 
BRANCH  50  57
ATOM     57  C   UNL     1       6.813  -3.007  26.746  0.00  0.00    +0.025 A 
ATOM     58  C   UNL     1       7.743  -2.087  26.209  0.00  0.00    +0.015 A 
ATOM     59  C   UNL     1       8.945  -2.513  25.633  0.00  0.00    +0.050 A 
ATOM     60  C   UNL     1       9.234  -3.865  25.614  0.00  0.00    +0.158 A 
ATOM     61  C   UNL     1       8.373  -4.781  26.209  0.00  0.00    +0.159 A 
ATOM     62  C   UNL     1       7.171  -4.362  26.788  0.00  0.00    +0.060 A 
BRANCH  61  63
ATOM     63  O   UNL     1       8.749  -6.098  26.195  0.00  0.00    -0.503 OA
ATOM     64  H   UNL     1       9.229  -6.280  27.019  0.00  0.00    +0.292 HD
ENDBRANCH  61  63
BRANCH  60  65
ATOM     65  O   UNL     1      10.378  -4.292  25.000  0.00  0.00    -0.503 OA
ATOM     66  H   UNL     1      10.908  -4.693  25.717  0.00  0.00    +0.292 HD
ENDBRANCH  60  65
ENDBRANCH  50  57
BRANCH  55  67
ATOM     67  O   UNL     1       0.996  -0.443  27.891  0.00  0.00    -0.506 OA
ATOM     68  H   UNL     1       0.747  -1.070  28.591  0.00  0.00    +0.292 HD
ENDBRANCH  55  67
BRANCH  46  69
ATOM     69  O   UNL     1       3.927   3.181  28.630  0.00  0.00    -0.461 OA
BRANCH  69  73
ATOM     70  C   UNL     1       0.784   5.797  27.449  0.00  0.00    +0.041 C 
ATOM     71  C   UNL     1       1.085   4.493  26.714  0.00  0.00    +0.150 C 
ATOM     72  O   UNL     1       1.887   3.621  27.515  0.00  0.00    -0.334 OA
ATOM     73  C   UNL     1       3.237   4.053  27.720  0.00  0.00    +0.339 C 
ATOM     74  C   UNL     1       3.979   4.131  26.357  0.00  0.00    +0.214 C 
ATOM     75  C   UNL     1       3.205   5.099  25.446  0.00  0.00    +0.180 C 
ATOM     76  C   UNL     1       1.721   4.705  25.335  0.00  0.00    +0.174 C 
BRANCH  74  77
ATOM     77  O   UNL     1       4.055   2.849  25.698  0.00  0.00    -0.383 OA
ATOM     78  H   UNL     1       3.135   2.557  25.595  0.00  0.00    +0.210 HD
ENDBRANCH  74  77
BRANCH  75  79
ATOM     79  O   UNL     1       3.797   5.094  24.135  0.00  0.00    -0.386 OA
ATOM     80  H   UNL     1       3.507   5.929  23.709  0.00  0.00    +0.210 HD
ENDBRANCH  75  79
BRANCH  76  81
ATOM     81  O   UNL     1       1.644   3.489  24.570  0.00  0.00    -0.387 OA
ATOM     82  H   UNL     1       2.433   2.955  24.816  0.00  0.00    +0.210 HD
ENDBRANCH  76  81
ENDBRANCH  69  73
ENDBRANCH  46  69
ENDBRANCH  45  51
ENDBRANCH   1  45
TORSDOF 28
ENDMDL
