MODEL 1
REMARK VINA RESULT:      -6.7      0.000      0.000
REMARK  Name = 
REMARK  16 active torsions:
REMARK  status: ('A' for Active; 'I' for Inactive)
REMARK    1  A    between atoms: C_3  and  O_47
REMARK    2  A    between atoms: C_6  and  C_7
REMARK    3  A    between atoms: C_8  and  C_9
REMARK    4  A    between atoms: C_9  and  O_11
REMARK    5  A    between atoms: O_11  and  C_12
REMARK    6  A    between atoms: C_14  and  O_25
REMARK    7  A    between atoms: C_17  and  C_23
REMARK    8  A    between atoms: C_18  and  O_22
REMARK    9  A    between atoms: C_20  and  O_21
REMARK   10  A    between atoms: C_23  and  O_24
REMARK   11  A    between atoms: O_25  and  C_26
REMARK   12  A    between atoms: C_27  and  C_39
REMARK   13  A    between atoms: C_31  and  O_38
REMARK   14  A    between atoms: C_33  and  O_37
REMARK   15  A    between atoms: C_41  and  O_46
REMARK   16  A    between atoms: C_42  and  O_45
REMARK                            x       y       z     vdW  Elec       q    Type
REMARK                         _______ _______ _______ _____ _____    ______ ____
ROOT
ATOM      1  C   UNL     1       5.669   0.120  28.074  0.00  0.00    +0.276 C 
ATOM      2  C   UNL     1       6.060   1.089  29.209  0.00  0.00    +0.192 C 
ATOM      3  C   UNL     1       5.376   2.457  29.048  0.00  0.00    +0.178 C 
ATOM      4  C   UNL     1       5.572   3.064  27.651  0.00  0.00    +0.179 C 
ATOM      5  O   UNL     1       5.274   2.115  26.620  0.00  0.00    -0.330 OA
ATOM      6  C   UNL     1       5.896   0.827  26.719  0.00  0.00    +0.352 C 
ENDROOT
BRANCH   3   7
ATOM      7  O   UNL     1       3.967   2.301  29.284  0.00  0.00    -0.386 OA
ATOM      8  H   UNL     1       3.520   2.256  28.416  0.00  0.00    +0.210 HD
ENDBRANCH   3   7
BRANCH   2   9
ATOM      9  O   UNL     1       7.479   1.272  29.291  0.00  0.00    -0.385 OA
ATOM     10  H   UNL     1       7.678   1.890  30.016  0.00  0.00    +0.210 HD
ENDBRANCH   2   9
BRANCH   6  11
ATOM     11  O   UNL     1       7.339   0.889  26.479  0.00  0.00    -0.452 OA
BRANCH  11  12
ATOM     12  C   UNL     1       7.784  -0.015  25.527  0.00  0.00    +0.214 A 
ATOM     13  C   UNL     1       8.444  -1.269  26.007  0.00  0.00    +0.238 A 
ATOM     14  O   UNL     1       9.131  -1.266  27.023  0.00  0.00    -0.283 OA
ATOM     15  C   UNL     1       8.239  -2.448  25.181  0.00  0.00    +0.109 A 
ATOM     16  C   UNL     1       8.063  -2.201  23.827  0.00  0.00    +0.147 A 
ATOM     17  C   UNL     1       7.925  -3.273  22.948  0.00  0.00    +0.092 A 
ATOM     18  C   UNL     1       7.971  -4.572  23.451  0.00  0.00    +0.124 A 
ATOM     19  C   UNL     1       8.134  -4.826  24.813  0.00  0.00    +0.091 A 
ATOM     20  O   UNL     1       8.087  -0.919  23.317  0.00  0.00    -0.451 OA
ATOM     21  C   UNL     1       8.259  -3.752  25.686  0.00  0.00    +0.135 A 
ATOM     22  C   UNL     1       7.844   0.173  24.182  0.00  0.00    +0.181 A 
BRANCH  22  23
ATOM     23  C   UNL     1       7.738   1.482  23.413  0.00  0.00    +0.025 A 
ATOM     24  C   UNL     1       6.645   1.831  22.596  0.00  0.00    +0.015 A 
ATOM     25  C   UNL     1       6.521   3.097  21.984  0.00  0.00    +0.050 A 
ATOM     26  C   UNL     1       7.481   4.061  22.215  0.00  0.00    +0.158 A 
ATOM     27  C   UNL     1       8.562   3.771  23.030  0.00  0.00    +0.159 A 
ATOM     28  C   UNL     1       8.701   2.502  23.613  0.00  0.00    +0.060 A 
BRANCH  27  29
ATOM     29  O   UNL     1       9.460   4.776  23.259  0.00  0.00    -0.503 OA
ATOM     30  H   UNL     1      10.274   4.594  22.764  0.00  0.00    +0.292 HD
ENDBRANCH  27  29
BRANCH  26  31
ATOM     31  O   UNL     1       7.342   5.301  21.661  0.00  0.00    -0.503 OA
ATOM     32  H   UNL     1       6.395   5.523  21.765  0.00  0.00    +0.292 HD
ENDBRANCH  26  31
ENDBRANCH  22  23
BRANCH  21  33
ATOM     33  O   UNL     1       8.376  -3.978  27.025  0.00  0.00    -0.506 OA
ATOM     34  H   UNL     1       7.645  -4.535  27.339  0.00  0.00    +0.292 HD
ENDBRANCH  21  33
BRANCH  18  35
ATOM     35  O   UNL     1       7.872  -5.663  22.634  0.00  0.00    -0.507 OA
ATOM     36  H   UNL     1       8.236  -6.439  23.089  0.00  0.00    +0.292 HD
ENDBRANCH  18  35
ENDBRANCH  11  12
ENDBRANCH   6  11
BRANCH   4  37
ATOM     37  C   UNL     1       6.927   3.725  27.379  0.00  0.00    +0.190 C 
BRANCH  37  38
ATOM     38  O   UNL     1       7.453   4.233  28.606  0.00  0.00    -0.392 OA
ATOM     39  H   UNL     1       8.396   4.428  28.444  0.00  0.00    +0.210 HD
ENDBRANCH  37  38
ENDBRANCH   4  37
BRANCH   1  40
ATOM     40  O   UNL     1       4.370  -0.471  28.375  0.00  0.00    -0.449 OA
BRANCH  40  41
ATOM     41  C   UNL     1       3.414  -0.623  27.428  0.00  0.00    +0.332 C 
ATOM     42  O   UNL     1       2.639   0.231  27.042  0.00  0.00    -0.246 OA
BRANCH  41  44
ATOM     43  C   UNL     1       4.197  -2.294  25.815  0.00  0.00    +0.015 C 
ATOM     44  C   UNL     1       3.483  -2.016  26.918  0.00  0.00    +0.092 C 
BRANCH  43  46
ATOM     45  C   UNL     1       4.269  -3.888  23.848  0.00  0.00    +0.011 A 
ATOM     46  C   UNL     1       4.385  -3.633  25.223  0.00  0.00    -0.025 A 
ATOM     47  C   UNL     1       4.617  -4.717  26.083  0.00  0.00    +0.011 A 
ATOM     48  C   UNL     1       4.748  -6.017  25.584  0.00  0.00    +0.046 A 
ATOM     49  C   UNL     1       4.628  -6.246  24.220  0.00  0.00    +0.117 A 
ATOM     50  C   UNL     1       4.394  -5.192  23.345  0.00  0.00    +0.046 A 
BRANCH  49  51
ATOM     51  O   UNL     1       4.735  -7.532  23.780  0.00  0.00    -0.507 OA
ATOM     52  H   UNL     1       4.044  -7.695  23.117  0.00  0.00    +0.292 HD
ENDBRANCH  49  51
ENDBRANCH  43  46
ENDBRANCH  41  44
ENDBRANCH  40  41
ENDBRANCH   1  40
TORSDOF 16
ENDMDL
MODEL 2
REMARK VINA RESULT:      -6.6      2.388      7.574
REMARK  Name = 
REMARK  16 active torsions:
REMARK  status: ('A' for Active; 'I' for Inactive)
REMARK    1  A    between atoms: C_3  and  O_47
REMARK    2  A    between atoms: C_6  and  C_7
REMARK    3  A    between atoms: C_8  and  C_9
REMARK    4  A    between atoms: C_9  and  O_11
REMARK    5  A    between atoms: O_11  and  C_12
REMARK    6  A    between atoms: C_14  and  O_25
REMARK    7  A    between atoms: C_17  and  C_23
REMARK    8  A    between atoms: C_18  and  O_22
REMARK    9  A    between atoms: C_20  and  O_21
REMARK   10  A    between atoms: C_23  and  O_24
REMARK   11  A    between atoms: O_25  and  C_26
REMARK   12  A    between atoms: C_27  and  C_39
REMARK   13  A    between atoms: C_31  and  O_38
REMARK   14  A    between atoms: C_33  and  O_37
REMARK   15  A    between atoms: C_41  and  O_46
REMARK   16  A    between atoms: C_42  and  O_45
REMARK                            x       y       z     vdW  Elec       q    Type
REMARK                         _______ _______ _______ _____ _____    ______ ____
ROOT
ATOM      1  C   UNL     1       5.212  -5.161  24.671  0.00  0.00    +0.276 C 
ATOM      2  C   UNL     1       5.036  -6.615  25.153  0.00  0.00    +0.192 C 
ATOM      3  C   UNL     1       3.583  -7.092  24.997  0.00  0.00    +0.178 C 
ATOM      4  C   UNL     1       2.564  -6.129  25.623  0.00  0.00    +0.179 C 
ATOM      5  O   UNL     1       2.803  -4.776  25.214  0.00  0.00    -0.330 OA
ATOM      6  C   UNL     1       4.141  -4.280  25.350  0.00  0.00    +0.352 C 
ENDROOT
BRANCH   3   7
ATOM      7  O   UNL     1       3.286  -7.224  23.596  0.00  0.00    -0.386 OA
ATOM      8  H   UNL     1       2.745  -8.029  23.478  0.00  0.00    +0.210 HD
ENDBRANCH   3   7
BRANCH   2   9
ATOM      9  O   UNL     1       5.448  -6.779  26.516  0.00  0.00    -0.385 OA
ATOM     10  H   UNL     1       6.180  -7.421  26.552  0.00  0.00    +0.210 HD
ENDBRANCH   2   9
BRANCH   6  11
ATOM     11  O   UNL     1       4.526  -4.102  26.752  0.00  0.00    -0.452 OA
BRANCH  11  12
ATOM     12  C   UNL     1       5.415  -3.059  26.957  0.00  0.00    +0.214 A 
ATOM     13  C   UNL     1       6.878  -3.354  26.853  0.00  0.00    +0.238 A 
ATOM     14  O   UNL     1       7.324  -4.441  27.207  0.00  0.00    -0.283 OA
ATOM     15  C   UNL     1       7.708  -2.274  26.345  0.00  0.00    +0.109 A 
ATOM     16  C   UNL     1       7.250  -0.994  26.624  0.00  0.00    +0.147 A 
ATOM     17  C   UNL     1       8.013   0.106  26.233  0.00  0.00    +0.092 A 
ATOM     18  C   UNL     1       9.222  -0.109  25.574  0.00  0.00    +0.124 A 
ATOM     19  C   UNL     1       9.680  -1.394  25.280  0.00  0.00    +0.091 A 
ATOM     20  O   UNL     1       6.089  -0.779  27.337  0.00  0.00    -0.451 OA
ATOM     21  C   UNL     1       8.909  -2.485  25.660  0.00  0.00    +0.135 A 
ATOM     22  C   UNL     1       5.124  -1.810  27.411  0.00  0.00    +0.181 A 
BRANCH  22  23
ATOM     23  C   UNL     1       3.847  -1.333  28.085  0.00  0.00    +0.025 A 
ATOM     24  C   UNL     1       3.632  -1.357  29.477  0.00  0.00    +0.015 A 
ATOM     25  C   UNL     1       2.483  -0.805  30.084  0.00  0.00    +0.050 A 
ATOM     26  C   UNL     1       1.536  -0.175  29.301  0.00  0.00    +0.158 A 
ATOM     27  C   UNL     1       1.716  -0.106  27.930  0.00  0.00    +0.159 A 
ATOM     28  C   UNL     1       2.842  -0.683  27.324  0.00  0.00    +0.060 A 
BRANCH  27  29
ATOM     29  O   UNL     1       0.769   0.566  27.209  0.00  0.00    -0.503 OA
ATOM     30  H   UNL     1       1.202   1.048  26.488  0.00  0.00    +0.292 HD
ENDBRANCH  27  29
BRANCH  26  31
ATOM     31  O   UNL     1       0.446   0.400  29.888  0.00  0.00    -0.503 OA
ATOM     32  H   UNL     1      -0.227   0.452  29.181  0.00  0.00    +0.292 HD
ENDBRANCH  26  31
ENDBRANCH  22  23
BRANCH  21  33
ATOM     33  O   UNL     1       9.317  -3.747  25.344  0.00  0.00    -0.506 OA
ATOM     34  H   UNL     1       9.473  -3.821  24.389  0.00  0.00    +0.292 HD
ENDBRANCH  21  33
BRANCH  18  35
ATOM     35  O   UNL     1      10.028   0.928  25.195  0.00  0.00    -0.507 OA
ATOM     36  H   UNL     1       9.923   1.661  25.821  0.00  0.00    +0.292 HD
ENDBRANCH  18  35
ENDBRANCH  11  12
ENDBRANCH   6  11
BRANCH   4  37
ATOM     37  C   UNL     1       2.408  -6.196  27.145  0.00  0.00    +0.190 C 
BRANCH  37  38
ATOM     38  O   UNL     1       2.701  -7.523  27.586  0.00  0.00    -0.392 OA
ATOM     39  H   UNL     1       1.894  -7.855  28.023  0.00  0.00    +0.210 HD
ENDBRANCH  37  38
ENDBRANCH   4  37
BRANCH   1  40
ATOM     40  O   UNL     1       5.344  -5.151  23.218  0.00  0.00    -0.449 OA
BRANCH  40  41
ATOM     41  C   UNL     1       6.506  -4.825  22.604  0.00  0.00    +0.332 C 
ATOM     42  O   UNL     1       7.286  -5.597  22.079  0.00  0.00    -0.246 OA
BRANCH  41  44
ATOM     43  C   UNL     1       7.805  -2.777  22.245  0.00  0.00    +0.015 C 
ATOM     44  C   UNL     1       6.662  -3.350  22.659  0.00  0.00    +0.092 C 
BRANCH  43  46
ATOM     45  C   UNL     1       7.160  -0.358  22.630  0.00  0.00    +0.011 A 
ATOM     46  C   UNL     1       8.081  -1.328  22.206  0.00  0.00    -0.025 A 
ATOM     47  C   UNL     1       9.294  -0.895  21.649  0.00  0.00    +0.011 A 
ATOM     48  C   UNL     1       9.588   0.468  21.534  0.00  0.00    +0.046 A 
ATOM     49  C   UNL     1       8.661   1.410  21.960  0.00  0.00    +0.117 A 
ATOM     50  C   UNL     1       7.450   1.010  22.511  0.00  0.00    +0.046 A 
BRANCH  49  51
ATOM     51  O   UNL     1       8.977   2.727  21.805  0.00  0.00    -0.507 OA
ATOM     52  H   UNL     1       8.671   3.022  20.931  0.00  0.00    +0.292 HD
ENDBRANCH  49  51
ENDBRANCH  43  46
ENDBRANCH  41  44
ENDBRANCH  40  41
ENDBRANCH   1  40
TORSDOF 16
ENDMDL
MODEL 3
REMARK VINA RESULT:      -6.5      1.629      2.258
REMARK  Name = 
REMARK  16 active torsions:
REMARK  status: ('A' for Active; 'I' for Inactive)
REMARK    1  A    between atoms: C_3  and  O_47
REMARK    2  A    between atoms: C_6  and  C_7
REMARK    3  A    between atoms: C_8  and  C_9
REMARK    4  A    between atoms: C_9  and  O_11
REMARK    5  A    between atoms: O_11  and  C_12
REMARK    6  A    between atoms: C_14  and  O_25
REMARK    7  A    between atoms: C_17  and  C_23
REMARK    8  A    between atoms: C_18  and  O_22
REMARK    9  A    between atoms: C_20  and  O_21
REMARK   10  A    between atoms: C_23  and  O_24
REMARK   11  A    between atoms: O_25  and  C_26
REMARK   12  A    between atoms: C_27  and  C_39
REMARK   13  A    between atoms: C_31  and  O_38
REMARK   14  A    between atoms: C_33  and  O_37
REMARK   15  A    between atoms: C_41  and  O_46
REMARK   16  A    between atoms: C_42  and  O_45
REMARK                            x       y       z     vdW  Elec       q    Type
REMARK                         _______ _______ _______ _____ _____    ______ ____
ROOT
ATOM      1  C   UNL     1       5.151  -0.643  27.981  0.00  0.00    +0.276 C 
ATOM      2  C   UNL     1       5.593   0.614  28.757  0.00  0.00    +0.192 C 
ATOM      3  C   UNL     1       5.171   1.904  28.035  0.00  0.00    +0.178 C 
ATOM      4  C   UNL     1       5.596   1.933  26.560  0.00  0.00    +0.179 C 
ATOM      5  O   UNL     1       5.238   0.719  25.887  0.00  0.00    -0.330 OA
ATOM      6  C   UNL     1       5.620  -0.511  26.515  0.00  0.00    +0.352 C 
ENDROOT
BRANCH   3   7
ATOM      7  O   UNL     1       3.739   2.024  28.099  0.00  0.00    -0.386 OA
ATOM      8  H   UNL     1       3.353   1.201  27.739  0.00  0.00    +0.210 HD
ENDBRANCH   3   7
BRANCH   2   9
ATOM      9  O   UNL     1       7.009   0.634  28.980  0.00  0.00    -0.385 OA
ATOM     10  H   UNL     1       7.184   0.466  29.923  0.00  0.00    +0.210 HD
ENDBRANCH   2   9
BRANCH   6  11
ATOM     11  O   UNL     1       7.069  -0.724  26.485  0.00  0.00    -0.452 OA
BRANCH  11  12
ATOM     12  C   UNL     1       7.484  -1.586  25.482  0.00  0.00    +0.214 A 
ATOM     13  C   UNL     1       7.368  -3.057  25.732  0.00  0.00    +0.238 A 
ATOM     14  O   UNL     1       7.531  -3.516  26.857  0.00  0.00    -0.283 OA
ATOM     15  C   UNL     1       7.088  -3.877  24.564  0.00  0.00    +0.109 A 
ATOM     16  C   UNL     1       7.582  -3.387  23.364  0.00  0.00    +0.147 A 
ATOM     17  C   UNL     1       7.419  -4.137  22.200  0.00  0.00    +0.092 A 
ATOM     18  C   UNL     1       6.765  -5.366  22.272  0.00  0.00    +0.124 A 
ATOM     19  C   UNL     1       6.255  -5.856  23.474  0.00  0.00    +0.091 A 
ATOM     20  O   UNL     1       8.290  -2.205  23.300  0.00  0.00    -0.451 OA
ATOM     21  C   UNL     1       6.410  -5.098  24.628  0.00  0.00    +0.135 A 
ATOM     22  C   UNL     1       8.149  -1.259  24.342  0.00  0.00    +0.181 A 
BRANCH  22  23
ATOM     23  C   UNL     1       8.864   0.043  24.015  0.00  0.00    +0.025 A 
ATOM     24  C   UNL     1      10.095   0.432  24.578  0.00  0.00    +0.015 A 
ATOM     25  C   UNL     1      10.790   1.592  24.173  0.00  0.00    +0.050 A 
ATOM     26  C   UNL     1      10.277   2.372  23.157  0.00  0.00    +0.158 A 
ATOM     27  C   UNL     1       9.080   2.018  22.557  0.00  0.00    +0.159 A 
ATOM     28  C   UNL     1       8.374   0.882  22.982  0.00  0.00    +0.060 A 
BRANCH  27  29
ATOM     29  O   UNL     1       8.640   2.802  21.528  0.00  0.00    -0.503 OA
ATOM     30  H   UNL     1       7.825   2.421  21.164  0.00  0.00    +0.292 HD
ENDBRANCH  27  29
BRANCH  26  31
ATOM     31  O   UNL     1      10.967   3.470  22.732  0.00  0.00    -0.503 OA
ATOM     32  H   UNL     1      11.709   3.117  22.202  0.00  0.00    +0.292 HD
ENDBRANCH  26  31
ENDBRANCH  22  23
BRANCH  21  33
ATOM     33  O   UNL     1       5.881  -5.539  25.805  0.00  0.00    -0.506 OA
ATOM     34  H   UNL     1       6.497  -6.148  26.244  0.00  0.00    +0.292 HD
ENDBRANCH  21  33
BRANCH  18  35
ATOM     35  O   UNL     1       6.603  -6.159  21.171  0.00  0.00    -0.507 OA
ATOM     36  H   UNL     1       5.661  -6.359  21.055  0.00  0.00    +0.292 HD
ENDBRANCH  18  35
ENDBRANCH  11  12
ENDBRANCH   6  11
BRANCH   4  37
ATOM     37  C   UNL     1       7.063   2.274  26.280  0.00  0.00    +0.190 C 
BRANCH  37  38
ATOM     38  O   UNL     1       7.552   3.122  27.320  0.00  0.00    -0.392 OA
ATOM     39  H   UNL     1       7.022   2.922  28.115  0.00  0.00    +0.210 HD
ENDBRANCH  37  38
ENDBRANCH   4  37
BRANCH   1  40
ATOM     40  O   UNL     1       3.748  -0.917  28.271  0.00  0.00    -0.449 OA
BRANCH  40  41
ATOM     41  C   UNL     1       2.834  -1.100  27.289  0.00  0.00    +0.332 C 
ATOM     42  O   UNL     1       2.199  -0.231  26.723  0.00  0.00    -0.246 OA
BRANCH  41  44
ATOM     43  C   UNL     1       2.679  -2.984  25.729  0.00  0.00    +0.015 C 
ATOM     44  C   UNL     1       2.749  -2.554  26.999  0.00  0.00    +0.092 C 
BRANCH  43  46
ATOM     45  C   UNL     1       2.552  -5.472  26.190  0.00  0.00    +0.011 A 
ATOM     46  C   UNL     1       2.631  -4.394  25.295  0.00  0.00    -0.025 A 
ATOM     47  C   UNL     1       2.747  -4.675  23.925  0.00  0.00    +0.011 A 
ATOM     48  C   UNL     1       2.765  -5.994  23.459  0.00  0.00    +0.046 A 
ATOM     49  C   UNL     1       2.686  -7.044  24.364  0.00  0.00    +0.117 A 
ATOM     50  C   UNL     1       2.574  -6.796  25.726  0.00  0.00    +0.046 A 
BRANCH  49  51
ATOM     51  O   UNL     1       2.733  -8.313  23.868  0.00  0.00    -0.507 OA
ATOM     52  H   UNL     1       3.187  -8.883  24.511  0.00  0.00    +0.292 HD
ENDBRANCH  49  51
ENDBRANCH  43  46
ENDBRANCH  41  44
ENDBRANCH  40  41
ENDBRANCH   1  40
TORSDOF 16
ENDMDL
MODEL 4
REMARK VINA RESULT:      -6.4      2.019      7.494
REMARK  Name = 
REMARK  16 active torsions:
REMARK  status: ('A' for Active; 'I' for Inactive)
REMARK    1  A    between atoms: C_3  and  O_47
REMARK    2  A    between atoms: C_6  and  C_7
REMARK    3  A    between atoms: C_8  and  C_9
REMARK    4  A    between atoms: C_9  and  O_11
REMARK    5  A    between atoms: O_11  and  C_12
REMARK    6  A    between atoms: C_14  and  O_25
REMARK    7  A    between atoms: C_17  and  C_23
REMARK    8  A    between atoms: C_18  and  O_22
REMARK    9  A    between atoms: C_20  and  O_21
REMARK   10  A    between atoms: C_23  and  O_24
REMARK   11  A    between atoms: O_25  and  C_26
REMARK   12  A    between atoms: C_27  and  C_39
REMARK   13  A    between atoms: C_31  and  O_38
REMARK   14  A    between atoms: C_33  and  O_37
REMARK   15  A    between atoms: C_41  and  O_46
REMARK   16  A    between atoms: C_42  and  O_45
REMARK                            x       y       z     vdW  Elec       q    Type
REMARK                         _______ _______ _______ _____ _____    ______ ____
ROOT
ATOM      1  C   UNL     1       8.945   1.514  24.285  0.00  0.00    +0.276 C 
ATOM      2  C   UNL     1      10.269   1.154  23.581  0.00  0.00    +0.192 C 
ATOM      3  C   UNL     1      10.079   0.985  22.065  0.00  0.00    +0.178 C 
ATOM      4  C   UNL     1       8.933   0.027  21.707  0.00  0.00    +0.179 C 
ATOM      5  O   UNL     1       7.739   0.342  22.435  0.00  0.00    -0.330 OA
ATOM      6  C   UNL     1       7.863   0.499  23.854  0.00  0.00    +0.352 C 
ENDROOT
BRANCH   3   7
ATOM      7  O   UNL     1       9.795   2.271  21.488  0.00  0.00    -0.386 OA
ATOM      8  H   UNL     1       8.846   2.459  21.624  0.00  0.00    +0.210 HD
ENDBRANCH   3   7
BRANCH   2   9
ATOM      9  O   UNL     1      10.856  -0.036  24.124  0.00  0.00    -0.385 OA
ATOM     10  H   UNL     1      11.826   0.049  24.101  0.00  0.00    +0.210 HD
ENDBRANCH   2   9
BRANCH   6  11
ATOM     11  O   UNL     1       8.141  -0.770  24.530  0.00  0.00    -0.452 OA
BRANCH  11  12
ATOM     12  C   UNL     1       7.245  -1.068  25.544  0.00  0.00    +0.214 A 
ATOM     13  C   UNL     1       7.507  -0.496  26.902  0.00  0.00    +0.238 A 
ATOM     14  O   UNL     1       8.655  -0.344  27.306  0.00  0.00    -0.283 OA
ATOM     15  C   UNL     1       6.330  -0.175  27.692  0.00  0.00    +0.109 A 
ATOM     16  C   UNL     1       5.218  -0.968  27.448  0.00  0.00    +0.147 A 
ATOM     17  C   UNL     1       4.062  -0.777  28.204  0.00  0.00    +0.092 A 
ATOM     18  C   UNL     1       4.053   0.206  29.191  0.00  0.00    +0.124 A 
ATOM     19  C   UNL     1       5.164   1.015  29.431  0.00  0.00    +0.091 A 
ATOM     20  O   UNL     1       5.246  -1.988  26.520  0.00  0.00    -0.451 OA
ATOM     21  C   UNL     1       6.308   0.828  28.666  0.00  0.00    +0.135 A 
ATOM     22  C   UNL     1       6.225  -1.967  25.500  0.00  0.00    +0.181 A 
BRANCH  22  23
ATOM     23  C   UNL     1       5.991  -3.068  24.477  0.00  0.00    +0.025 A 
ATOM     24  C   UNL     1       7.011  -3.880  23.942  0.00  0.00    +0.015 A 
ATOM     25  C   UNL     1       6.751  -4.967  23.080  0.00  0.00    +0.050 A 
ATOM     26  C   UNL     1       5.447  -5.289  22.766  0.00  0.00    +0.158 A 
ATOM     27  C   UNL     1       4.409  -4.534  23.286  0.00  0.00    +0.159 A 
ATOM     28  C   UNL     1       4.669  -3.434  24.117  0.00  0.00    +0.060 A 
BRANCH  27  29
ATOM     29  O   UNL     1       3.136  -4.924  22.976  0.00  0.00    -0.503 OA
ATOM     30  H   UNL     1       2.822  -5.547  23.649  0.00  0.00    +0.292 HD
ENDBRANCH  27  29
BRANCH  26  31
ATOM     31  O   UNL     1       5.189  -6.367  21.969  0.00  0.00    -0.503 OA
ATOM     32  H   UNL     1       5.727  -6.224  21.164  0.00  0.00    +0.292 HD
ENDBRANCH  26  31
ENDBRANCH  22  23
BRANCH  21  33
ATOM     33  O   UNL     1       7.390   1.637  28.855  0.00  0.00    -0.506 OA
ATOM     34  H   UNL     1       7.855   1.392  29.671  0.00  0.00    +0.292 HD
ENDBRANCH  21  33
BRANCH  18  35
ATOM     35  O   UNL     1       2.960   0.418  29.984  0.00  0.00    -0.507 OA
ATOM     36  H   UNL     1       2.198  -0.053  29.613  0.00  0.00    +0.292 HD
ENDBRANCH  18  35
ENDBRANCH  11  12
ENDBRANCH   6  11
BRANCH   4  37
ATOM     37  C   UNL     1       9.236  -1.471  21.822  0.00  0.00    +0.190 C 
BRANCH  37  38
ATOM     38  O   UNL     1      10.650  -1.666  21.772  0.00  0.00    -0.392 OA
ATOM     39  H   UNL     1      10.852  -2.013  20.883  0.00  0.00    +0.210 HD
ENDBRANCH  37  38
ENDBRANCH   4  37
BRANCH   1  40
ATOM     40  O   UNL     1       8.697   2.944  24.136  0.00  0.00    -0.449 OA
BRANCH  40  41
ATOM     41  C   UNL     1       7.521   3.425  23.669  0.00  0.00    +0.332 C 
ATOM     42  O   UNL     1       7.223   3.596  22.503  0.00  0.00    -0.246 OA
BRANCH  41  44
ATOM     43  C   UNL     1       5.435   3.095  24.914  0.00  0.00    +0.015 C 
ATOM     44  C   UNL     1       6.635   3.692  24.831  0.00  0.00    +0.092 C 
BRANCH  43  46
ATOM     45  C   UNL     1       4.707   4.051  27.145  0.00  0.00    +0.011 A 
ATOM     46  C   UNL     1       4.474   3.237  26.025  0.00  0.00    -0.025 A 
ATOM     47  C   UNL     1       3.304   2.463  25.998  0.00  0.00    +0.011 A 
ATOM     48  C   UNL     1       2.382   2.513  27.050  0.00  0.00    +0.046 A 
ATOM     49  C   UNL     1       2.635   3.325  28.147  0.00  0.00    +0.117 A 
ATOM     50  C   UNL     1       3.788   4.099  28.203  0.00  0.00    +0.046 A 
BRANCH  49  51
ATOM     51  O   UNL     1       1.724   3.323  29.162  0.00  0.00    -0.507 OA
ATOM     52  H   UNL     1       0.839   3.465  28.788  0.00  0.00    +0.292 HD
ENDBRANCH  49  51
ENDBRANCH  43  46
ENDBRANCH  41  44
ENDBRANCH  40  41
ENDBRANCH   1  40
TORSDOF 16
ENDMDL
MODEL 5
REMARK VINA RESULT:      -6.3      2.175      5.649
REMARK  Name = 
REMARK  16 active torsions:
REMARK  status: ('A' for Active; 'I' for Inactive)
REMARK    1  A    between atoms: C_3  and  O_47
REMARK    2  A    between atoms: C_6  and  C_7
REMARK    3  A    between atoms: C_8  and  C_9
REMARK    4  A    between atoms: C_9  and  O_11
REMARK    5  A    between atoms: O_11  and  C_12
REMARK    6  A    between atoms: C_14  and  O_25
REMARK    7  A    between atoms: C_17  and  C_23
REMARK    8  A    between atoms: C_18  and  O_22
REMARK    9  A    between atoms: C_20  and  O_21
REMARK   10  A    between atoms: C_23  and  O_24
REMARK   11  A    between atoms: O_25  and  C_26
REMARK   12  A    between atoms: C_27  and  C_39
REMARK   13  A    between atoms: C_31  and  O_38
REMARK   14  A    between atoms: C_33  and  O_37
REMARK   15  A    between atoms: C_41  and  O_46
REMARK   16  A    between atoms: C_42  and  O_45
REMARK                            x       y       z     vdW  Elec       q    Type
REMARK                         _______ _______ _______ _____ _____    ______ ____
ROOT
ATOM      1  C   UNL     1       6.097   0.320  25.584  0.00  0.00    +0.276 C 
ATOM      2  C   UNL     1       5.511   0.542  26.993  0.00  0.00    +0.192 C 
ATOM      3  C   UNL     1       4.375   1.577  26.977  0.00  0.00    +0.178 C 
ATOM      4  C   UNL     1       4.766   2.888  26.280  0.00  0.00    +0.179 C 
ATOM      5  O   UNL     1       5.377   2.643  25.007  0.00  0.00    -0.330 OA
ATOM      6  C   UNL     1       6.450   1.694  24.971  0.00  0.00    +0.352 C 
ENDROOT
BRANCH   3   7
ATOM      7  O   UNL     1       3.244   1.015  26.289  0.00  0.00    -0.386 OA
ATOM      8  H   UNL     1       2.711   1.753  25.935  0.00  0.00    +0.210 HD
ENDBRANCH   3   7
BRANCH   2   9
ATOM      9  O   UNL     1       6.516   0.950  27.930  0.00  0.00    -0.385 OA
ATOM     10  H   UNL     1       7.199   0.258  27.984  0.00  0.00    +0.210 HD
ENDBRANCH   2   9
BRANCH   6  11
ATOM     11  O   UNL     1       7.653   2.191  25.641  0.00  0.00    -0.452 OA
BRANCH  11  12
ATOM     12  C   UNL     1       8.695   2.477  24.774  0.00  0.00    +0.214 A 
ATOM     13  C   UNL     1       8.768   3.856  24.198  0.00  0.00    +0.238 A 
ATOM     14  O   UNL     1       7.745   4.483  23.942  0.00  0.00    -0.283 OA
ATOM     15  C   UNL     1      10.105   4.367  23.943  0.00  0.00    +0.109 A 
ATOM     16  C   UNL     1      11.057   3.406  23.632  0.00  0.00    +0.147 A 
ATOM     17  C   UNL     1      12.353   3.806  23.308  0.00  0.00    +0.092 A 
ATOM     18  C   UNL     1      12.660   5.165  23.302  0.00  0.00    +0.124 A 
ATOM     19  C   UNL     1      11.710   6.134  23.627  0.00  0.00    +0.091 A 
ATOM     20  O   UNL     1      10.738   2.065  23.569  0.00  0.00    -0.451 OA
ATOM     21  C   UNL     1      10.424   5.728  23.961  0.00  0.00    +0.135 A 
ATOM     22  C   UNL     1       9.585   1.597  24.241  0.00  0.00    +0.181 A 
BRANCH  22  23
ATOM     23  C   UNL     1       9.494   0.079  24.206  0.00  0.00    +0.025 A 
ATOM     24  C   UNL     1       9.958  -0.715  23.139  0.00  0.00    +0.015 A 
ATOM     25  C   UNL     1       9.963  -2.126  23.181  0.00  0.00    +0.050 A 
ATOM     26  C   UNL     1       9.537  -2.774  24.322  0.00  0.00    +0.158 A 
ATOM     27  C   UNL     1       9.093  -2.034  25.406  0.00  0.00    +0.159 A 
ATOM     28  C   UNL     1       9.058  -0.632  25.351  0.00  0.00    +0.060 A 
BRANCH  27  29
ATOM     29  O   UNL     1       8.723  -2.726  26.525  0.00  0.00    -0.503 OA
ATOM     30  H   UNL     1       7.877  -3.170  26.359  0.00  0.00    +0.292 HD
ENDBRANCH  27  29
BRANCH  26  31
ATOM     31  O   UNL     1       9.582  -4.137  24.384  0.00  0.00    -0.503 OA
ATOM     32  H   UNL     1       9.832  -4.343  25.307  0.00  0.00    +0.292 HD
ENDBRANCH  26  31
ENDBRANCH  22  23
BRANCH  21  33
ATOM     33  O   UNL     1       9.494   6.656  24.323  0.00  0.00    -0.506 OA
ATOM     34  H   UNL     1       9.390   7.321  23.624  0.00  0.00    +0.292 HD
ENDBRANCH  21  33
BRANCH  18  35
ATOM     35  O   UNL     1      13.904   5.619  22.963  0.00  0.00    -0.507 OA
ATOM     36  H   UNL     1      14.505   5.501  23.715  0.00  0.00    +0.292 HD
ENDBRANCH  18  35
ENDBRANCH  11  12
ENDBRANCH   6  11
BRANCH   4  37
ATOM     37  C   UNL     1       5.624   3.863  27.094  0.00  0.00    +0.190 C 
BRANCH  37  38
ATOM     38  O   UNL     1       6.094   4.901  26.232  0.00  0.00    -0.392 OA
ATOM     39  H   UNL     1       6.575   4.462  25.505  0.00  0.00    +0.210 HD
ENDBRANCH  37  38
ENDBRANCH   4  37
BRANCH   1  40
ATOM     40  O   UNL     1       5.240  -0.603  24.848  0.00  0.00    -0.449 OA
BRANCH  40  41
ATOM     41  C   UNL     1       5.745  -1.562  24.037  0.00  0.00    +0.332 C 
ATOM     42  O   UNL     1       6.494  -1.390  23.095  0.00  0.00    -0.246 OA
BRANCH  41  44
ATOM     43  C   UNL     1       4.695  -3.741  23.637  0.00  0.00    +0.015 C 
ATOM     44  C   UNL     1       5.245  -2.879  24.508  0.00  0.00    +0.092 C 
BRANCH  43  46
ATOM     45  C   UNL     1       3.079  -5.668  23.329  0.00  0.00    +0.011 A 
ATOM     46  C   UNL     1       4.195  -5.092  23.957  0.00  0.00    -0.025 A 
ATOM     47  C   UNL     1       4.818  -5.806  24.991  0.00  0.00    +0.011 A 
ATOM     48  C   UNL     1       4.353  -7.068  25.377  0.00  0.00    +0.046 A 
ATOM     49  C   UNL     1       3.247  -7.617  24.742  0.00  0.00    +0.117 A 
ATOM     50  C   UNL     1       2.608  -6.931  23.718  0.00  0.00    +0.046 A 
BRANCH  49  51
ATOM     51  O   UNL     1       2.812  -8.838  25.168  0.00  0.00    -0.507 OA
ATOM     52  H   UNL     1       1.954  -8.727  25.611  0.00  0.00    +0.292 HD
ENDBRANCH  49  51
ENDBRANCH  43  46
ENDBRANCH  41  44
ENDBRANCH  40  41
ENDBRANCH   1  40
TORSDOF 16
ENDMDL
MODEL 6
REMARK VINA RESULT:      -6.3      2.335      7.942
REMARK  Name = 
REMARK  16 active torsions:
REMARK  status: ('A' for Active; 'I' for Inactive)
REMARK    1  A    between atoms: C_3  and  O_47
REMARK    2  A    between atoms: C_6  and  C_7
REMARK    3  A    between atoms: C_8  and  C_9
REMARK    4  A    between atoms: C_9  and  O_11
REMARK    5  A    between atoms: O_11  and  C_12
REMARK    6  A    between atoms: C_14  and  O_25
REMARK    7  A    between atoms: C_17  and  C_23
REMARK    8  A    between atoms: C_18  and  O_22
REMARK    9  A    between atoms: C_20  and  O_21
REMARK   10  A    between atoms: C_23  and  O_24
REMARK   11  A    between atoms: O_25  and  C_26
REMARK   12  A    between atoms: C_27  and  C_39
REMARK   13  A    between atoms: C_31  and  O_38
REMARK   14  A    between atoms: C_33  and  O_37
REMARK   15  A    between atoms: C_41  and  O_46
REMARK   16  A    between atoms: C_42  and  O_45
REMARK                            x       y       z     vdW  Elec       q    Type
REMARK                         _______ _______ _______ _____ _____    ______ ____
ROOT
ATOM      1  C   UNL     1       5.050  -5.950  25.145  0.00  0.00    +0.276 C 
ATOM      2  C   UNL     1       4.390  -7.215  25.730  0.00  0.00    +0.192 C 
ATOM      3  C   UNL     1       3.007  -7.472  25.110  0.00  0.00    +0.178 C 
ATOM      4  C   UNL     1       2.088  -6.242  25.161  0.00  0.00    +0.179 C 
ATOM      5  O   UNL     1       2.756  -5.069  24.681  0.00  0.00    -0.330 OA
ATOM      6  C   UNL     1       4.045  -4.779  25.237  0.00  0.00    +0.352 C 
ENDROOT
BRANCH   3   7
ATOM      7  O   UNL     1       3.179  -7.856  23.735  0.00  0.00    -0.386 OA
ATOM      8  H   UNL     1       3.959  -7.382  23.386  0.00  0.00    +0.210 HD
ENDBRANCH   3   7
BRANCH   2   9
ATOM      9  O   UNL     1       4.267  -7.142  27.156  0.00  0.00    -0.385 OA
ATOM     10  H   UNL     1       4.329  -6.210  27.433  0.00  0.00    +0.210 HD
ENDBRANCH   2   9
BRANCH   6  11
ATOM     11  O   UNL     1       3.964  -4.365  26.640  0.00  0.00    -0.452 OA
BRANCH  11  12
ATOM     12  C   UNL     1       4.415  -3.074  26.865  0.00  0.00    +0.214 A 
ATOM     13  C   UNL     1       3.426  -1.957  26.752  0.00  0.00    +0.238 A 
ATOM     14  O   UNL     1       2.513  -2.010  25.935  0.00  0.00    -0.283 OA
ATOM     15  C   UNL     1       3.646  -0.824  27.636  0.00  0.00    +0.109 A 
ATOM     16  C   UNL     1       4.971  -0.581  27.970  0.00  0.00    +0.147 A 
ATOM     17  C   UNL     1       5.286   0.523  28.762  0.00  0.00    +0.092 A 
ATOM     18  C   UNL     1       4.260   1.360  29.195  0.00  0.00    +0.124 A 
ATOM     19  C   UNL     1       2.925   1.112  28.873  0.00  0.00    +0.091 A 
ATOM     20  O   UNL     1       5.995  -1.367  27.485  0.00  0.00    -0.451 OA
ATOM     21  C   UNL     1       2.616   0.003  28.095  0.00  0.00    +0.135 A 
ATOM     22  C   UNL     1       5.705  -2.671  27.019  0.00  0.00    +0.181 A 
BRANCH  22  23
ATOM     23  C   UNL     1       6.974  -3.443  26.691  0.00  0.00    +0.025 A 
ATOM     24  C   UNL     1       7.225  -4.764  27.110  0.00  0.00    +0.015 A 
ATOM     25  C   UNL     1       8.360  -5.495  26.698  0.00  0.00    +0.050 A 
ATOM     26  C   UNL     1       9.254  -4.923  25.815  0.00  0.00    +0.158 A 
ATOM     27  C   UNL     1       9.036  -3.634  25.358  0.00  0.00    +0.159 A 
ATOM     28  C   UNL     1       7.925  -2.896  25.793  0.00  0.00    +0.060 A 
BRANCH  27  29
ATOM     29  O   UNL     1       9.930  -3.133  24.453  0.00  0.00    -0.503 OA
ATOM     30  H   UNL     1      10.824  -3.418  24.697  0.00  0.00    +0.292 HD
ENDBRANCH  27  29
BRANCH  26  31
ATOM     31  O   UNL     1      10.329  -5.642  25.379  0.00  0.00    -0.503 OA
ATOM     32  H   UNL     1      10.332  -6.453  25.925  0.00  0.00    +0.292 HD
ENDBRANCH  26  31
ENDBRANCH  22  23
BRANCH  21  33
ATOM     33  O   UNL     1       1.315  -0.280  27.805  0.00  0.00    -0.506 OA
ATOM     34  H   UNL     1       0.858   0.516  27.488  0.00  0.00    +0.292 HD
ENDBRANCH  21  33
BRANCH  18  35
ATOM     35  O   UNL     1       4.510   2.474  29.946  0.00  0.00    -0.507 OA
ATOM     36  H   UNL     1       3.726   2.686  30.477  0.00  0.00    +0.292 HD
ENDBRANCH  18  35
ENDBRANCH  11  12
ENDBRANCH   6  11
BRANCH   4  37
ATOM     37  C   UNL     1       1.415  -5.949  26.505  0.00  0.00    +0.190 C 
BRANCH  37  38
ATOM     38  O   UNL     1       0.973  -4.591  26.519  0.00  0.00    -0.392 OA
ATOM     39  H   UNL     1       0.370  -4.486  25.759  0.00  0.00    +0.210 HD
ENDBRANCH  37  38
ENDBRANCH   4  37
BRANCH   1  40
ATOM     40  O   UNL     1       5.663  -6.279  23.863  0.00  0.00    -0.449 OA
BRANCH  40  41
ATOM     41  C   UNL     1       5.479  -5.514  22.761  0.00  0.00    +0.332 C 
ATOM     42  O   UNL     1       4.597  -5.642  21.933  0.00  0.00    -0.246 OA
BRANCH  41  44
ATOM     43  C   UNL     1       6.202  -3.185  22.515  0.00  0.00    +0.015 C 
ATOM     44  C   UNL     1       6.532  -4.467  22.741  0.00  0.00    +0.092 C 
BRANCH  43  46
ATOM     45  C   UNL     1       6.818  -0.786  23.047  0.00  0.00    +0.011 A 
ATOM     46  C   UNL     1       7.135  -2.041  22.506  0.00  0.00    -0.025 A 
ATOM     47  C   UNL     1       8.371  -2.193  21.860  0.00  0.00    +0.011 A 
ATOM     48  C   UNL     1       9.274  -1.128  21.771  0.00  0.00    +0.046 A 
ATOM     49  C   UNL     1       8.938   0.105  22.312  0.00  0.00    +0.117 A 
ATOM     50  C   UNL     1       7.719   0.286  22.955  0.00  0.00    +0.046 A 
BRANCH  49  51
ATOM     51  O   UNL     1       9.835   1.123  22.180  0.00  0.00    -0.507 OA
ATOM     52  H   UNL     1      10.730   0.747  22.133  0.00  0.00    +0.292 HD
ENDBRANCH  49  51
ENDBRANCH  43  46
ENDBRANCH  41  44
ENDBRANCH  40  41
ENDBRANCH   1  40
TORSDOF 16
ENDMDL
MODEL 7
REMARK VINA RESULT:      -6.3      2.159      5.511
REMARK  Name = 
REMARK  16 active torsions:
REMARK  status: ('A' for Active; 'I' for Inactive)
REMARK    1  A    between atoms: C_3  and  O_47
REMARK    2  A    between atoms: C_6  and  C_7
REMARK    3  A    between atoms: C_8  and  C_9
REMARK    4  A    between atoms: C_9  and  O_11
REMARK    5  A    between atoms: O_11  and  C_12
REMARK    6  A    between atoms: C_14  and  O_25
REMARK    7  A    between atoms: C_17  and  C_23
REMARK    8  A    between atoms: C_18  and  O_22
REMARK    9  A    between atoms: C_20  and  O_21
REMARK   10  A    between atoms: C_23  and  O_24
REMARK   11  A    between atoms: O_25  and  C_26
REMARK   12  A    between atoms: C_27  and  C_39
REMARK   13  A    between atoms: C_31  and  O_38
REMARK   14  A    between atoms: C_33  and  O_37
REMARK   15  A    between atoms: C_41  and  O_46
REMARK   16  A    between atoms: C_42  and  O_45
REMARK                            x       y       z     vdW  Elec       q    Type
REMARK                         _______ _______ _______ _____ _____    ______ ____
ROOT
ATOM      1  C   UNL     1       5.795   1.325  26.274  0.00  0.00    +0.276 C 
ATOM      2  C   UNL     1       5.570   1.582  27.778  0.00  0.00    +0.192 C 
ATOM      3  C   UNL     1       4.774   2.875  28.019  0.00  0.00    +0.178 C 
ATOM      4  C   UNL     1       5.365   4.089  27.288  0.00  0.00    +0.179 C 
ATOM      5  O   UNL     1       5.633   3.793  25.912  0.00  0.00    -0.330 OA
ATOM      6  C   UNL     1       6.382   2.604  25.635  0.00  0.00    +0.352 C 
ENDROOT
BRANCH   3   7
ATOM      7  O   UNL     1       3.424   2.680  27.563  0.00  0.00    -0.386 OA
ATOM      8  H   UNL     1       2.889   3.436  27.876  0.00  0.00    +0.210 HD
ENDBRANCH   3   7
BRANCH   2   9
ATOM      9  O   UNL     1       6.807   1.642  28.500  0.00  0.00    -0.385 OA
ATOM     10  H   UNL     1       6.654   1.347  29.416  0.00  0.00    +0.210 HD
ENDBRANCH   2   9
BRANCH   6  11
ATOM     11  O   UNL     1       7.780   2.718  26.057  0.00  0.00    -0.452 OA
BRANCH  11  12
ATOM     12  C   UNL     1       8.649   3.033  25.025  0.00  0.00    +0.214 A 
ATOM     13  C   UNL     1       8.904   4.480  24.741  0.00  0.00    +0.238 A 
ATOM     14  O   UNL     1       8.017   5.313  24.893  0.00  0.00    -0.283 OA
ATOM     15  C   UNL     1      10.235   4.805  24.256  0.00  0.00    +0.109 A 
ATOM     16  C   UNL     1      10.858   3.807  23.521  0.00  0.00    +0.147 A 
ATOM     17  C   UNL     1      12.111   4.051  22.959  0.00  0.00    +0.092 A 
ATOM     18  C   UNL     1      12.706   5.297  23.147  0.00  0.00    +0.124 A 
ATOM     19  C   UNL     1      12.090   6.299  23.897  0.00  0.00    +0.091 A 
ATOM     20  O   UNL     1      10.242   2.598  23.273  0.00  0.00    -0.451 OA
ATOM     21  C   UNL     1      10.847   6.045  24.465  0.00  0.00    +0.135 A 
ATOM     22  C   UNL     1       9.184   2.178  24.113  0.00  0.00    +0.181 A 
BRANCH  22  23
ATOM     23  C   UNL     1       8.751   0.754  23.796  0.00  0.00    +0.025 A 
ATOM     24  C   UNL     1       7.507   0.415  23.228  0.00  0.00    +0.015 A 
ATOM     25  C   UNL     1       7.176  -0.902  22.842  0.00  0.00    +0.050 A 
ATOM     26  C   UNL     1       8.110  -1.907  22.983  0.00  0.00    +0.158 A 
ATOM     27  C   UNL     1       9.355  -1.617  23.516  0.00  0.00    +0.159 A 
ATOM     28  C   UNL     1       9.673  -0.314  23.929  0.00  0.00    +0.060 A 
BRANCH  27  29
ATOM     29  O   UNL     1      10.256  -2.642  23.593  0.00  0.00    -0.503 OA
ATOM     30  H   UNL     1      11.105  -2.296  23.907  0.00  0.00    +0.292 HD
ENDBRANCH  27  29
BRANCH  26  31
ATOM     31  O   UNL     1       7.810  -3.173  22.569  0.00  0.00    -0.503 OA
ATOM     32  H   UNL     1       8.576  -3.718  22.837  0.00  0.00    +0.292 HD
ENDBRANCH  26  31
ENDBRANCH  22  23
BRANCH  21  33
ATOM     33  O   UNL     1      10.248   6.995  25.237  0.00  0.00    -0.506 OA
ATOM     34  H   UNL     1      10.348   7.872  24.831  0.00  0.00    +0.292 HD
ENDBRANCH  21  33
BRANCH  18  35
ATOM     35  O   UNL     1      13.918   5.605  22.595  0.00  0.00    -0.507 OA
ATOM     36  H   UNL     1      14.612   5.502  23.265  0.00  0.00    +0.292 HD
ENDBRANCH  18  35
ENDBRANCH  11  12
ENDBRANCH   6  11
BRANCH   4  37
ATOM     37  C   UNL     1       6.592   4.742  27.932  0.00  0.00    +0.190 C 
BRANCH  37  38
ATOM     38  O   UNL     1       6.612   4.425  29.325  0.00  0.00    -0.392 OA
ATOM     39  H   UNL     1       7.466   3.985  29.498  0.00  0.00    +0.210 HD
ENDBRANCH  37  38
ENDBRANCH   4  37
BRANCH   1  40
ATOM     40  O   UNL     1       4.597   0.716  25.707  0.00  0.00    -0.449 OA
BRANCH  40  41
ATOM     41  C   UNL     1       4.160  -0.506  26.094  0.00  0.00    +0.332 C 
ATOM     42  O   UNL     1       3.138  -0.745  26.709  0.00  0.00    -0.246 OA
BRANCH  41  44
ATOM     43  C   UNL     1       5.868  -2.216  26.504  0.00  0.00    +0.015 C 
ATOM     44  C   UNL     1       5.136  -1.519  25.619  0.00  0.00    +0.092 C 
BRANCH  43  46
ATOM     45  C   UNL     1       6.494  -4.457  25.502  0.00  0.00    +0.011 A 
ATOM     46  C   UNL     1       6.841  -3.276  26.176  0.00  0.00    -0.025 A 
ATOM     47  C   UNL     1       8.162  -3.130  26.626  0.00  0.00    +0.011 A 
ATOM     48  C   UNL     1       9.116  -4.127  26.394  0.00  0.00    +0.046 A 
ATOM     49  C   UNL     1       8.749  -5.288  25.726  0.00  0.00    +0.117 A 
ATOM     50  C   UNL     1       7.447  -5.461  25.273  0.00  0.00    +0.046 A 
BRANCH  49  51
ATOM     51  O   UNL     1       9.704  -6.245  25.545  0.00  0.00    -0.507 OA
ATOM     52  H   UNL     1      10.345  -5.928  24.888  0.00  0.00    +0.292 HD
ENDBRANCH  49  51
ENDBRANCH  43  46
ENDBRANCH  41  44
ENDBRANCH  40  41
ENDBRANCH   1  40
TORSDOF 16
ENDMDL
MODEL 8
REMARK VINA RESULT:      -6.2      2.528      7.476
REMARK  Name = 
REMARK  16 active torsions:
REMARK  status: ('A' for Active; 'I' for Inactive)
REMARK    1  A    between atoms: C_3  and  O_47
REMARK    2  A    between atoms: C_6  and  C_7
REMARK    3  A    between atoms: C_8  and  C_9
REMARK    4  A    between atoms: C_9  and  O_11
REMARK    5  A    between atoms: O_11  and  C_12
REMARK    6  A    between atoms: C_14  and  O_25
REMARK    7  A    between atoms: C_17  and  C_23
REMARK    8  A    between atoms: C_18  and  O_22
REMARK    9  A    between atoms: C_20  and  O_21
REMARK   10  A    between atoms: C_23  and  O_24
REMARK   11  A    between atoms: O_25  and  C_26
REMARK   12  A    between atoms: C_27  and  C_39
REMARK   13  A    between atoms: C_31  and  O_38
REMARK   14  A    between atoms: C_33  and  O_37
REMARK   15  A    between atoms: C_41  and  O_46
REMARK   16  A    between atoms: C_42  and  O_45
REMARK                            x       y       z     vdW  Elec       q    Type
REMARK                         _______ _______ _______ _____ _____    ______ ____
ROOT
ATOM      1  C   UNL     1       8.834   1.666  24.226  0.00  0.00    +0.276 C 
ATOM      2  C   UNL     1      10.199   1.165  23.712  0.00  0.00    +0.192 C 
ATOM      3  C   UNL     1      10.189   0.954  22.189  0.00  0.00    +0.178 C 
ATOM      4  C   UNL     1       9.016   0.086  21.711  0.00  0.00    +0.179 C 
ATOM      5  O   UNL     1       7.773   0.531  22.267  0.00  0.00    -0.330 OA
ATOM      6  C   UNL     1       7.728   0.733  23.685  0.00  0.00    +0.352 C 
ENDROOT
BRANCH   3   7
ATOM      7  O   UNL     1      10.100   2.236  21.544  0.00  0.00    -0.386 OA
ATOM      8  H   UNL     1      11.008   2.578  21.429  0.00  0.00    +0.210 HD
ENDBRANCH   3   7
BRANCH   2   9
ATOM      9  O   UNL     1      10.601  -0.049  24.359  0.00  0.00    -0.385 OA
ATOM     10  H   UNL     1      10.026  -0.775  24.057  0.00  0.00    +0.210 HD
ENDBRANCH   2   9
BRANCH   6  11
ATOM     11  O   UNL     1       7.801  -0.528  24.427  0.00  0.00    -0.452 OA
BRANCH  11  12
ATOM     12  C   UNL     1       6.718  -0.745  25.265  0.00  0.00    +0.214 A 
ATOM     13  C   UNL     1       6.649   0.040  26.537  0.00  0.00    +0.238 A 
ATOM     14  O   UNL     1       7.673   0.340  27.144  0.00  0.00    -0.283 OA
ATOM     15  C   UNL     1       5.314   0.379  27.001  0.00  0.00    +0.109 A 
ATOM     16  C   UNL     1       4.320  -0.527  26.659  0.00  0.00    +0.147 A 
ATOM     17  C   UNL     1       3.019  -0.320  27.115  0.00  0.00    +0.092 A 
ATOM     18  C   UNL     1       2.749   0.794  27.908  0.00  0.00    +0.124 A 
ATOM     19  C   UNL     1       3.742   1.715  28.242  0.00  0.00    +0.091 A 
ATOM     20  O   UNL     1       4.598  -1.667  25.934  0.00  0.00    -0.451 OA
ATOM     21  C   UNL     1       5.034   1.509  27.774  0.00  0.00    +0.135 A 
ATOM     22  C   UNL     1       5.776  -1.719  25.152  0.00  0.00    +0.181 A 
BRANCH  22  23
ATOM     23  C   UNL     1       5.822  -2.973  24.293  0.00  0.00    +0.025 A 
ATOM     24  C   UNL     1       5.726  -4.283  24.803  0.00  0.00    +0.015 A 
ATOM     25  C   UNL     1       5.660  -5.423  23.973  0.00  0.00    +0.050 A 
ATOM     26  C   UNL     1       5.649  -5.268  22.602  0.00  0.00    +0.158 A 
ATOM     27  C   UNL     1       5.719  -3.998  22.055  0.00  0.00    +0.159 A 
ATOM     28  C   UNL     1       5.817  -2.866  22.880  0.00  0.00    +0.060 A 
BRANCH  27  29
ATOM     29  O   UNL     1       5.661  -3.899  20.693  0.00  0.00    -0.503 OA
ATOM     30  H   UNL     1       6.559  -3.786  20.345  0.00  0.00    +0.292 HD
ENDBRANCH  27  29
BRANCH  26  31
ATOM     31  O   UNL     1       5.540  -6.365  21.797  0.00  0.00    -0.503 OA
ATOM     32  H   UNL     1       4.590  -6.423  21.571  0.00  0.00    +0.292 HD
ENDBRANCH  26  31
ENDBRANCH  22  23
BRANCH  21  33
ATOM     33  O   UNL     1       6.009   2.420  28.054  0.00  0.00    -0.506 OA
ATOM     34  H   UNL     1       6.691   2.407  27.364  0.00  0.00    +0.292 HD
ENDBRANCH  21  33
BRANCH  18  35
ATOM     35  O   UNL     1       1.500   1.033  28.409  0.00  0.00    -0.507 OA
ATOM     36  H   UNL     1       0.945   1.425  27.716  0.00  0.00    +0.292 HD
ENDBRANCH  18  35
ENDBRANCH  11  12
ENDBRANCH   6  11
BRANCH   4  37
ATOM     37  C   UNL     1       9.165  -1.427  21.905  0.00  0.00    +0.190 C 
BRANCH  37  38
ATOM     38  O   UNL     1      10.552  -1.768  21.873  0.00  0.00    -0.392 OA
ATOM     39  H   UNL     1      10.597  -2.738  21.775  0.00  0.00    +0.210 HD
ENDBRANCH  37  38
ENDBRANCH   4  37
BRANCH   1  40
ATOM     40  O   UNL     1       8.738   3.105  24.007  0.00  0.00    -0.449 OA
BRANCH  40  41
ATOM     41  C   UNL     1       8.009   3.908  24.816  0.00  0.00    +0.332 C 
ATOM     42  O   UNL     1       8.380   4.409  25.861  0.00  0.00    -0.246 OA
BRANCH  41  44
ATOM     43  C   UNL     1       5.663   3.264  24.512  0.00  0.00    +0.015 C 
ATOM     44  C   UNL     1       6.671   4.096  24.200  0.00  0.00    +0.092 C 
BRANCH  43  46
ATOM     45  C   UNL     1       3.154   3.360  24.847  0.00  0.00    +0.011 A 
ATOM     46  C   UNL     1       4.279   3.356  24.008  0.00  0.00    -0.025 A 
ATOM     47  C   UNL     1       4.073   3.364  22.620  0.00  0.00    +0.011 A 
ATOM     48  C   UNL     1       2.782   3.394  22.083  0.00  0.00    +0.046 A 
ATOM     49  C   UNL     1       1.684   3.396  22.933  0.00  0.00    +0.117 A 
ATOM     50  C   UNL     1       1.857   3.384  24.311  0.00  0.00    +0.046 A 
BRANCH  49  51
ATOM     51  O   UNL     1       0.443   3.398  22.367  0.00  0.00    -0.507 OA
ATOM     52  H   UNL     1      -0.218   3.240  23.061  0.00  0.00    +0.292 HD
ENDBRANCH  49  51
ENDBRANCH  43  46
ENDBRANCH  41  44
ENDBRANCH  40  41
ENDBRANCH   1  40
TORSDOF 16
ENDMDL
MODEL 9
REMARK VINA RESULT:      -6.2      2.361      4.935
REMARK  Name = 
REMARK  16 active torsions:
REMARK  status: ('A' for Active; 'I' for Inactive)
REMARK    1  A    between atoms: C_3  and  O_47
REMARK    2  A    between atoms: C_6  and  C_7
REMARK    3  A    between atoms: C_8  and  C_9
REMARK    4  A    between atoms: C_9  and  O_11
REMARK    5  A    between atoms: O_11  and  C_12
REMARK    6  A    between atoms: C_14  and  O_25
REMARK    7  A    between atoms: C_17  and  C_23
REMARK    8  A    between atoms: C_18  and  O_22
REMARK    9  A    between atoms: C_20  and  O_21
REMARK   10  A    between atoms: C_23  and  O_24
REMARK   11  A    between atoms: O_25  and  C_26
REMARK   12  A    between atoms: C_27  and  C_39
REMARK   13  A    between atoms: C_31  and  O_38
REMARK   14  A    between atoms: C_33  and  O_37
REMARK   15  A    between atoms: C_41  and  O_46
REMARK   16  A    between atoms: C_42  and  O_45
REMARK                            x       y       z     vdW  Elec       q    Type
REMARK                         _______ _______ _______ _____ _____    ______ ____
ROOT
ATOM      1  C   UNL     1       7.137   4.177  26.357  0.00  0.00    +0.276 C 
ATOM      2  C   UNL     1       5.958   4.971  26.955  0.00  0.00    +0.192 C 
ATOM      3  C   UNL     1       6.014   5.000  28.491  0.00  0.00    +0.178 C 
ATOM      4  C   UNL     1       6.168   3.604  29.112  0.00  0.00    +0.179 C 
ATOM      5  O   UNL     1       7.222   2.864  28.482  0.00  0.00    -0.330 OA
ATOM      6  C   UNL     1       7.208   2.798  27.051  0.00  0.00    +0.352 C 
ENDROOT
BRANCH   3   7
ATOM      7  O   UNL     1       7.132   5.807  28.899  0.00  0.00    -0.386 OA
ATOM      8  H   UNL     1       6.864   6.745  28.836  0.00  0.00    +0.210 HD
ENDBRANCH   3   7
BRANCH   2   9
ATOM      9  O   UNL     1       4.692   4.447  26.533  0.00  0.00    -0.385 OA
ATOM     10  H   UNL     1       4.765   3.481  26.435  0.00  0.00    +0.210 HD
ENDBRANCH   2   9
BRANCH   6  11
ATOM     11  O   UNL     1       6.103   1.981  26.544  0.00  0.00    -0.452 OA
BRANCH  11  12
ATOM     12  C   UNL     1       6.448   1.190  25.459  0.00  0.00    +0.214 A 
ATOM     13  C   UNL     1       7.492   0.138  25.663  0.00  0.00    +0.238 A 
ATOM     14  O   UNL     1       8.425   0.324  26.437  0.00  0.00    -0.283 OA
ATOM     15  C   UNL     1       7.336  -1.071  24.871  0.00  0.00    +0.109 A 
ATOM     16  C   UNL     1       6.719  -0.898  23.640  0.00  0.00    +0.147 A 
ATOM     17  C   UNL     1       6.583  -1.990  22.784  0.00  0.00    +0.092 A 
ATOM     18  C   UNL     1       7.075  -3.230  23.184  0.00  0.00    +0.124 A 
ATOM     19  C   UNL     1       7.684  -3.412  24.426  0.00  0.00    +0.091 A 
ATOM     20  O   UNL     1       6.293   0.342  23.212  0.00  0.00    -0.451 OA
ATOM     21  C   UNL     1       7.805  -2.323  25.281  0.00  0.00    +0.135 A 
ATOM     22  C   UNL     1       6.067   1.362  24.165  0.00  0.00    +0.181 A 
BRANCH  22  23
ATOM     23  C   UNL     1       5.439   2.592  23.528  0.00  0.00    +0.025 A 
ATOM     24  C   UNL     1       4.080   2.942  23.657  0.00  0.00    +0.015 A 
ATOM     25  C   UNL     1       3.549   4.148  23.150  0.00  0.00    +0.050 A 
ATOM     26  C   UNL     1       4.387   5.054  22.532  0.00  0.00    +0.158 A 
ATOM     27  C   UNL     1       5.735   4.763  22.402  0.00  0.00    +0.159 A 
ATOM     28  C   UNL     1       6.257   3.551  22.878  0.00  0.00    +0.060 A 
BRANCH  27  29
ATOM     29  O   UNL     1       6.526   5.714  21.820  0.00  0.00    -0.503 OA
ATOM     30  H   UNL     1       7.423   5.360  21.715  0.00  0.00    +0.292 HD
ENDBRANCH  27  29
BRANCH  26  31
ATOM     31  O   UNL     1       3.886   6.240  22.079  0.00  0.00    -0.503 OA
ATOM     32  H   UNL     1       3.079   6.395  22.609  0.00  0.00    +0.292 HD
ENDBRANCH  26  31
ENDBRANCH  22  23
BRANCH  21  33
ATOM     33  O   UNL     1       8.357  -2.489  26.516  0.00  0.00    -0.506 OA
ATOM     34  H   UNL     1       8.098  -1.760  27.103  0.00  0.00    +0.292 HD
ENDBRANCH  21  33
BRANCH  18  35
ATOM     35  O   UNL     1       6.999  -4.329  22.375  0.00  0.00    -0.507 OA
ATOM     36  H   UNL     1       7.506  -4.166  21.564  0.00  0.00    +0.292 HD
ENDBRANCH  18  35
ENDBRANCH  11  12
ENDBRANCH   6  11
BRANCH   4  37
ATOM     37  C   UNL     1       4.900   2.748  29.188  0.00  0.00    +0.190 C 
BRANCH  37  38
ATOM     38  O   UNL     1       3.761   3.606  29.260  0.00  0.00    -0.392 OA
ATOM     39  H   UNL     1       3.586   3.758  30.208  0.00  0.00    +0.210 HD
ENDBRANCH  37  38
ENDBRANCH   4  37
BRANCH   1  40
ATOM     40  O   UNL     1       8.319   5.030  26.318  0.00  0.00    -0.449 OA
BRANCH  40  41
ATOM     41  C   UNL     1       9.021   5.233  25.178  0.00  0.00    +0.332 C 
ATOM     42  O   UNL     1       9.663   6.226  24.893  0.00  0.00    -0.246 OA
BRANCH  41  44
ATOM     43  C   UNL     1       9.958   3.224  24.131  0.00  0.00    +0.015 C 
ATOM     44  C   UNL     1       8.894   4.019  24.332  0.00  0.00    +0.092 C 
BRANCH  43  46
ATOM     45  C   UNL     1       9.340   1.839  22.102  0.00  0.00    +0.011 A 
ATOM     46  C   UNL     1       9.966   1.972  23.351  0.00  0.00    -0.025 A 
ATOM     47  C   UNL     1      10.564   0.836  23.918  0.00  0.00    +0.011 A 
ATOM     48  C   UNL     1      10.554  -0.393  23.250  0.00  0.00    +0.046 A 
ATOM     49  C   UNL     1       9.927  -0.500  22.016  0.00  0.00    +0.117 A 
ATOM     50  C   UNL     1       9.323   0.607  21.432  0.00  0.00    +0.046 A 
BRANCH  49  51
ATOM     51  O   UNL     1       9.917  -1.723  21.413  0.00  0.00    -0.507 OA
ATOM     52  H   UNL     1       9.051  -2.137  21.558  0.00  0.00    +0.292 HD
ENDBRANCH  49  51
ENDBRANCH  43  46
ENDBRANCH  41  44
ENDBRANCH  40  41
ENDBRANCH   1  40
TORSDOF 16
ENDMDL
