MODEL 1
REMARK VINA RESULT:      -6.8      0.000      0.000
REMARK  Name = 
REMARK  12 active torsions:
REMARK  status: ('A' for Active; 'I' for Inactive)
REMARK    1  A    between atoms: C_1  and  O_2
REMARK    2  A    between atoms: O_2  and  C_3
REMARK    3  A    between atoms: C_4  and  O_28
REMARK    4  A    between atoms: C_5  and  O_26
REMARK    5  A    between atoms: C_8  and  O_9
REMARK    6  A    between atoms: C_12  and  O_23
REMARK    7  A    between atoms: C_13  and  C_15
REMARK    8  A    between atoms: C_17  and  O_22
REMARK    9  A    between atoms: C_18  and  O_21
REMARK   10  A    between atoms: O_23  and  O_24
REMARK   11  A    between atoms: O_24  and  C_25
REMARK   12  A    between atoms: O_26  and  C_27
REMARK                            x       y       z     vdW  Elec       q    Type
REMARK                         _______ _______ _______ _____ _____    ______ ____
ROOT
ATOM      1  C   UNL     1       4.658  -6.676  25.046  0.00  0.00    +0.208 A 
ATOM      2  C   UNL     1       5.587  -5.988  25.841  0.00  0.00    +0.177 A 
ATOM      3  C   UNL     1       6.361  -4.946  25.288  0.00  0.00    +0.117 A 
ATOM      4  C   UNL     1       7.302  -4.179  26.111  0.00  0.00    +0.242 A 
ATOM      5  C   UNL     1       7.979  -3.011  25.491  0.00  0.00    +0.255 A 
ATOM      6  C   UNL     1       7.694  -2.716  24.200  0.00  0.00    +0.185 A 
ATOM      7  O   UNL     1       6.888  -3.527  23.399  0.00  0.00    -0.447 OA
ATOM      8  O   UNL     1       7.494  -4.500  27.282  0.00  0.00    -0.283 OA
ATOM      9  C   UNL     1       6.211  -4.595  23.951  0.00  0.00    +0.188 A 
ATOM     10  C   UNL     1       5.311  -5.303  23.125  0.00  0.00    +0.209 A 
ATOM     11  C   UNL     1       4.529  -6.333  23.692  0.00  0.00    +0.209 A 
ENDROOT
BRANCH   6  12
ATOM     12  C   UNL     1       8.221  -1.517  23.471  0.00  0.00    +0.025 A 
ATOM     13  C   UNL     1       9.558  -1.434  23.024  0.00  0.00    +0.015 A 
ATOM     14  C   UNL     1      10.020  -0.349  22.269  0.00  0.00    +0.050 A 
ATOM     15  C   UNL     1       9.165   0.705  22.015  0.00  0.00    +0.158 A 
ATOM     16  C   UNL     1       7.859   0.683  22.494  0.00  0.00    +0.159 A 
ATOM     17  C   UNL     1       7.378  -0.419  23.207  0.00  0.00    +0.060 A 
BRANCH  15  18
ATOM     18  O   UNL     1       9.619   1.775  21.300  0.00  0.00    -0.503 OA
ATOM     19  H   UNL     1       9.396   2.552  21.850  0.00  0.00    +0.292 HD
ENDBRANCH  15  18
BRANCH  16  20
ATOM     20  O   UNL     1       7.077   1.776  22.237  0.00  0.00    -0.503 OA
ATOM     21  H   UNL     1       6.171   1.466  22.069  0.00  0.00    +0.292 HD
ENDBRANCH  16  20
ENDBRANCH   6  12
BRANCH   1  23
ATOM     22  C   UNL     1       2.550  -6.960  26.131  0.00  0.00    +0.277 C 
ATOM     23  O   UNL     1       3.785  -7.522  25.691  0.00  0.00    -0.488 OA
ENDBRANCH   1  23
BRANCH   2  24
ATOM     24  O   UNL     1       5.688  -6.340  27.164  0.00  0.00    -0.503 OA
ATOM     25  H   UNL     1       6.403  -7.007  27.264  0.00  0.00    +0.292 HD
ENDBRANCH   2  24
BRANCH  10  26
ATOM     26  O   UNL     1       5.261  -4.852  21.828  0.00  0.00    -0.488 OA
ATOM     27  C   UNL     1       6.055  -5.496  20.842  0.00  0.00    +0.277 C 
ENDBRANCH  10  26
BRANCH  11  28
ATOM     28  O   UNL     1       3.567  -6.959  22.946  0.00  0.00    -0.501 OA
ATOM     29  H   UNL     1       2.949  -6.261  22.664  0.00  0.00    +0.292 HD
ENDBRANCH  11  28
BRANCH   5  30
ATOM     30  O   UNL     1       8.788  -2.277  26.345  0.00  0.00    -0.328 OA
BRANCH  30  31
ATOM     31  O   UNL     1       7.929  -1.284  26.976  0.00  0.00    -0.189 OA
ATOM     32  C   UNL     1       8.532  -0.024  26.743  0.00  0.00    +0.253 C 
ENDBRANCH  30  31
ENDBRANCH   5  30
TORSDOF 9
ENDMDL
MODEL 2
REMARK VINA RESULT:      -6.5      1.803      7.846
REMARK  Name = 
REMARK  12 active torsions:
REMARK  status: ('A' for Active; 'I' for Inactive)
REMARK    1  A    between atoms: C_1  and  O_2
REMARK    2  A    between atoms: O_2  and  C_3
REMARK    3  A    between atoms: C_4  and  O_28
REMARK    4  A    between atoms: C_5  and  O_26
REMARK    5  A    between atoms: C_8  and  O_9
REMARK    6  A    between atoms: C_12  and  O_23
REMARK    7  A    between atoms: C_13  and  C_15
REMARK    8  A    between atoms: C_17  and  O_22
REMARK    9  A    between atoms: C_18  and  O_21
REMARK   10  A    between atoms: O_23  and  O_24
REMARK   11  A    between atoms: O_24  and  C_25
REMARK   12  A    between atoms: O_26  and  C_27
REMARK                            x       y       z     vdW  Elec       q    Type
REMARK                         _______ _______ _______ _____ _____    ______ ____
ROOT
ATOM      1  C   UNL     1       9.154   1.550  23.749  0.00  0.00    +0.208 A 
ATOM      2  C   UNL     1       9.275   0.325  23.076  0.00  0.00    +0.177 A 
ATOM      3  C   UNL     1       8.817  -0.864  23.681  0.00  0.00    +0.117 A 
ATOM      4  C   UNL     1       8.887  -2.150  22.977  0.00  0.00    +0.242 A 
ATOM      5  C   UNL     1       8.261  -3.332  23.622  0.00  0.00    +0.255 A 
ATOM      6  C   UNL     1       7.663  -3.165  24.825  0.00  0.00    +0.185 A 
ATOM      7  O   UNL     1       7.711  -1.961  25.533  0.00  0.00    -0.447 OA
ATOM      8  O   UNL     1       9.433  -2.218  21.877  0.00  0.00    -0.283 OA
ATOM      9  C   UNL     1       8.246  -0.833  24.947  0.00  0.00    +0.188 A 
ATOM     10  C   UNL     1       8.154   0.385  25.657  0.00  0.00    +0.209 A 
ATOM     11  C   UNL     1       8.599   1.572  25.037  0.00  0.00    +0.209 A 
ENDROOT
BRANCH   6  12
ATOM     12  C   UNL     1       6.908  -4.237  25.551  0.00  0.00    +0.025 A 
ATOM     13  C   UNL     1       5.638  -4.684  25.124  0.00  0.00    +0.015 A 
ATOM     14  C   UNL     1       4.976  -5.745  25.756  0.00  0.00    +0.050 A 
ATOM     15  C   UNL     1       5.547  -6.322  26.873  0.00  0.00    +0.158 A 
ATOM     16  C   UNL     1       6.767  -5.863  27.357  0.00  0.00    +0.159 A 
ATOM     17  C   UNL     1       7.456  -4.837  26.702  0.00  0.00    +0.060 A 
BRANCH  15  18
ATOM     18  O   UNL     1       4.893  -7.339  27.505  0.00  0.00    -0.503 OA
ATOM     19  H   UNL     1       4.029  -7.396  27.053  0.00  0.00    +0.292 HD
ENDBRANCH  15  18
BRANCH  16  20
ATOM     20  O   UNL     1       7.257  -6.455  28.489  0.00  0.00    -0.503 OA
ATOM     21  H   UNL     1       7.645  -5.761  29.048  0.00  0.00    +0.292 HD
ENDBRANCH  16  20
ENDBRANCH   6  12
BRANCH   1  23
ATOM     22  C   UNL     1      10.645   3.358  23.289  0.00  0.00    +0.277 C 
ATOM     23  O   UNL     1       9.412   2.692  23.025  0.00  0.00    -0.488 OA
ENDBRANCH   1  23
BRANCH   2  24
ATOM     24  O   UNL     1       9.816   0.335  21.815  0.00  0.00    -0.503 OA
ATOM     25  H   UNL     1      10.480   1.057  21.756  0.00  0.00    +0.292 HD
ENDBRANCH   2  24
BRANCH  10  26
ATOM     26  O   UNL     1       7.568   0.273  26.895  0.00  0.00    -0.488 OA
ATOM     27  C   UNL     1       6.206   0.642  27.051  0.00  0.00    +0.277 C 
ENDBRANCH  10  26
BRANCH  11  28
ATOM     28  O   UNL     1       8.418   2.781  25.653  0.00  0.00    -0.501 OA
ATOM     29  H   UNL     1       9.266   3.253  25.571  0.00  0.00    +0.292 HD
ENDBRANCH  11  28
BRANCH   5  30
ATOM     30  O   UNL     1       8.284  -4.496  22.868  0.00  0.00    -0.328 OA
BRANCH  30  31
ATOM     31  O   UNL     1       7.135  -4.431  21.974  0.00  0.00    -0.189 OA
ATOM     32  C   UNL     1       6.797  -5.769  21.655  0.00  0.00    +0.253 C 
ENDBRANCH  30  31
ENDBRANCH   5  30
TORSDOF 9
ENDMDL
MODEL 3
REMARK VINA RESULT:      -6.4      2.232      7.409
REMARK  Name = 
REMARK  12 active torsions:
REMARK  status: ('A' for Active; 'I' for Inactive)
REMARK    1  A    between atoms: C_1  and  O_2
REMARK    2  A    between atoms: O_2  and  C_3
REMARK    3  A    between atoms: C_4  and  O_28
REMARK    4  A    between atoms: C_5  and  O_26
REMARK    5  A    between atoms: C_8  and  O_9
REMARK    6  A    between atoms: C_12  and  O_23
REMARK    7  A    between atoms: C_13  and  C_15
REMARK    8  A    between atoms: C_17  and  O_22
REMARK    9  A    between atoms: C_18  and  O_21
REMARK   10  A    between atoms: O_23  and  O_24
REMARK   11  A    between atoms: O_24  and  C_25
REMARK   12  A    between atoms: O_26  and  C_27
REMARK                            x       y       z     vdW  Elec       q    Type
REMARK                         _______ _______ _______ _____ _____    ______ ____
ROOT
ATOM      1  C   UNL     1       6.863   1.663  22.837  0.00  0.00    +0.208 A 
ATOM      2  C   UNL     1       7.690   0.543  22.663  0.00  0.00    +0.177 A 
ATOM      3  C   UNL     1       7.505  -0.606  23.459  0.00  0.00    +0.117 A 
ATOM      4  C   UNL     1       8.325  -1.807  23.261  0.00  0.00    +0.242 A 
ATOM      5  C   UNL     1       7.980  -3.022  24.043  0.00  0.00    +0.255 A 
ATOM      6  C   UNL     1       6.933  -2.959  24.898  0.00  0.00    +0.185 A 
ATOM      7  O   UNL     1       6.241  -1.774  25.161  0.00  0.00    -0.447 OA
ATOM      8  O   UNL     1       9.250  -1.792  22.451  0.00  0.00    -0.283 OA
ATOM      9  C   UNL     1       6.506  -0.638  24.423  0.00  0.00    +0.188 A 
ATOM     10  C   UNL     1       5.691   0.494  24.642  0.00  0.00    +0.209 A 
ATOM     11  C   UNL     1       5.872   1.634  23.829  0.00  0.00    +0.209 A 
ENDROOT
BRANCH   6  12
ATOM     12  C   UNL     1       6.406  -4.125  25.680  0.00  0.00    +0.025 A 
ATOM     13  C   UNL     1       5.642  -5.150  25.079  0.00  0.00    +0.015 A 
ATOM     14  C   UNL     1       5.227  -6.279  25.796  0.00  0.00    +0.050 A 
ATOM     15  C   UNL     1       5.508  -6.359  27.146  0.00  0.00    +0.158 A 
ATOM     16  C   UNL     1       6.204  -5.336  27.781  0.00  0.00    +0.159 A 
ATOM     17  C   UNL     1       6.664  -4.230  27.061  0.00  0.00    +0.060 A 
BRANCH  15  18
ATOM     18  O   UNL     1       5.084  -7.446  27.852  0.00  0.00    -0.503 OA
ATOM     19  H   UNL     1       5.487  -8.211  27.395  0.00  0.00    +0.292 HD
ENDBRANCH  15  18
BRANCH  16  20
ATOM     20  O   UNL     1       6.417  -5.463  29.127  0.00  0.00    -0.503 OA
ATOM     21  H   UNL     1       5.646  -5.913  29.513  0.00  0.00    +0.292 HD
ENDBRANCH  16  20
ENDBRANCH   6  12
BRANCH   1  23
ATOM     22  C   UNL     1       7.587   3.871  22.286  0.00  0.00    +0.277 C 
ATOM     23  O   UNL     1       6.947   2.659  21.891  0.00  0.00    -0.488 OA
ENDBRANCH   1  23
BRANCH   2  24
ATOM     24  O   UNL     1       8.648   0.598  21.681  0.00  0.00    -0.503 OA
ATOM     25  H   UNL     1       9.172   1.423  21.790  0.00  0.00    +0.292 HD
ENDBRANCH   2  24
BRANCH  10  26
ATOM     26  O   UNL     1       4.743   0.326  25.623  0.00  0.00    -0.488 OA
ATOM     27  C   UNL     1       4.961   0.907  26.901  0.00  0.00    +0.277 C 
ENDBRANCH  10  26
BRANCH  11  28
ATOM     28  O   UNL     1       5.023   2.702  23.940  0.00  0.00    -0.501 OA
ATOM     29  H   UNL     1       4.825   2.983  23.028  0.00  0.00    +0.292 HD
ENDBRANCH  11  28
BRANCH   5  30
ATOM     30  O   UNL     1       8.735  -4.147  23.747  0.00  0.00    -0.328 OA
BRANCH  30  31
ATOM     31  O   UNL     1       9.931  -4.073  24.576  0.00  0.00    -0.189 OA
ATOM     32  C   UNL     1       9.876  -5.177  25.461  0.00  0.00    +0.253 C 
ENDBRANCH  30  31
ENDBRANCH   5  30
TORSDOF 9
ENDMDL
MODEL 4
REMARK VINA RESULT:      -6.4      2.696      3.662
REMARK  Name = 
REMARK  12 active torsions:
REMARK  status: ('A' for Active; 'I' for Inactive)
REMARK    1  A    between atoms: C_1  and  O_2
REMARK    2  A    between atoms: O_2  and  C_3
REMARK    3  A    between atoms: C_4  and  O_28
REMARK    4  A    between atoms: C_5  and  O_26
REMARK    5  A    between atoms: C_8  and  O_9
REMARK    6  A    between atoms: C_12  and  O_23
REMARK    7  A    between atoms: C_13  and  C_15
REMARK    8  A    between atoms: C_17  and  O_22
REMARK    9  A    between atoms: C_18  and  O_21
REMARK   10  A    between atoms: O_23  and  O_24
REMARK   11  A    between atoms: O_24  and  C_25
REMARK   12  A    between atoms: O_26  and  C_27
REMARK                            x       y       z     vdW  Elec       q    Type
REMARK                         _______ _______ _______ _____ _____    ______ ____
ROOT
ATOM      1  C   UNL     1       5.688  -4.728  27.498  0.00  0.00    +0.208 A 
ATOM      2  C   UNL     1       5.022  -3.551  27.126  0.00  0.00    +0.177 A 
ATOM      3  C   UNL     1       5.730  -2.503  26.500  0.00  0.00    +0.117 A 
ATOM      4  C   UNL     1       5.046  -1.283  26.057  0.00  0.00    +0.242 A 
ATOM      5  C   UNL     1       5.831  -0.286  25.284  0.00  0.00    +0.255 A 
ATOM      6  C   UNL     1       7.134  -0.552  25.033  0.00  0.00    +0.185 A 
ATOM      7  O   UNL     1       7.797  -1.660  25.564  0.00  0.00    -0.447 OA
ATOM      8  O   UNL     1       3.853  -1.123  26.309  0.00  0.00    -0.283 OA
ATOM      9  C   UNL     1       7.091  -2.627  26.250  0.00  0.00    +0.188 A 
ATOM     10  C   UNL     1       7.787  -3.788  26.655  0.00  0.00    +0.209 A 
ATOM     11  C   UNL     1       7.067  -4.837  27.265  0.00  0.00    +0.209 A 
ENDROOT
BRANCH   6  12
ATOM     12  C   UNL     1       8.025   0.308  24.187  0.00  0.00    +0.025 A 
ATOM     13  C   UNL     1       9.030   1.129  24.746  0.00  0.00    +0.015 A 
ATOM     14  C   UNL     1       9.914   1.863  23.946  0.00  0.00    +0.050 A 
ATOM     15  C   UNL     1       9.754   1.843  22.574  0.00  0.00    +0.158 A 
ATOM     16  C   UNL     1       8.735   1.094  21.996  0.00  0.00    +0.159 A 
ATOM     17  C   UNL     1       7.879   0.321  22.786  0.00  0.00    +0.060 A 
BRANCH  15  18
ATOM     18  O   UNL     1      10.599   2.577  21.794  0.00  0.00    -0.503 OA
ATOM     19  H   UNL     1      11.454   2.554  22.266  0.00  0.00    +0.292 HD
ENDBRANCH  15  18
BRANCH  16  20
ATOM     20  O   UNL     1       8.611   1.148  20.634  0.00  0.00    -0.503 OA
ATOM     21  H   UNL     1       8.077   0.387  20.350  0.00  0.00    +0.292 HD
ENDBRANCH  16  20
ENDBRANCH   6  12
BRANCH   1  23
ATOM     22  C   UNL     1       4.519  -6.719  26.888  0.00  0.00    +0.277 C 
ATOM     23  O   UNL     1       4.909  -5.790  27.898  0.00  0.00    -0.488 OA
ENDBRANCH   1  23
BRANCH   2  24
ATOM     24  O   UNL     1       3.672  -3.474  27.361  0.00  0.00    -0.503 OA
ATOM     25  H   UNL     1       3.217  -4.179  26.850  0.00  0.00    +0.292 HD
ENDBRANCH   2  24
BRANCH  10  26
ATOM     26  O   UNL     1       9.126  -3.779  26.346  0.00  0.00    -0.488 OA
ATOM     27  C   UNL     1       9.584  -4.544  25.239  0.00  0.00    +0.277 C 
ENDBRANCH  10  26
BRANCH  11  28
ATOM     28  O   UNL     1       7.691  -6.019  27.564  0.00  0.00    -0.501 OA
ATOM     29  H   UNL     1       7.145  -6.719  27.163  0.00  0.00    +0.292 HD
ENDBRANCH  11  28
BRANCH   5  30
ATOM     30  O   UNL     1       5.107   0.801  24.819  0.00  0.00    -0.328 OA
BRANCH  30  31
ATOM     31  O   UNL     1       5.250   1.851  25.819  0.00  0.00    -0.189 OA
ATOM     32  C   UNL     1       5.676   3.011  25.127  0.00  0.00    +0.253 C 
ENDBRANCH  30  31
ENDBRANCH   5  30
TORSDOF 9
ENDMDL
MODEL 5
REMARK VINA RESULT:      -6.3      2.968      3.796
REMARK  Name = 
REMARK  12 active torsions:
REMARK  status: ('A' for Active; 'I' for Inactive)
REMARK    1  A    between atoms: C_1  and  O_2
REMARK    2  A    between atoms: O_2  and  C_3
REMARK    3  A    between atoms: C_4  and  O_28
REMARK    4  A    between atoms: C_5  and  O_26
REMARK    5  A    between atoms: C_8  and  O_9
REMARK    6  A    between atoms: C_12  and  O_23
REMARK    7  A    between atoms: C_13  and  C_15
REMARK    8  A    between atoms: C_17  and  O_22
REMARK    9  A    between atoms: C_18  and  O_21
REMARK   10  A    between atoms: O_23  and  O_24
REMARK   11  A    between atoms: O_24  and  C_25
REMARK   12  A    between atoms: O_26  and  C_27
REMARK                            x       y       z     vdW  Elec       q    Type
REMARK                         _______ _______ _______ _____ _____    ______ ____
ROOT
ATOM      1  C   UNL     1       6.694  -5.038  27.576  0.00  0.00    +0.208 A 
ATOM      2  C   UNL     1       7.714  -4.883  26.625  0.00  0.00    +0.177 A 
ATOM      3  C   UNL     1       7.844  -3.670  25.916  0.00  0.00    +0.117 A 
ATOM      4  C   UNL     1       8.932  -3.466  24.954  0.00  0.00    +0.242 A 
ATOM      5  C   UNL     1       9.085  -2.117  24.350  0.00  0.00    +0.255 A 
ATOM      6  C   UNL     1       8.213  -1.149  24.716  0.00  0.00    +0.185 A 
ATOM      7  O   UNL     1       7.113  -1.393  25.542  0.00  0.00    -0.447 OA
ATOM      8  O   UNL     1       9.696  -4.392  24.686  0.00  0.00    -0.283 OA
ATOM      9  C   UNL     1       6.964  -2.622  26.153  0.00  0.00    +0.188 A 
ATOM     10  C   UNL     1       5.906  -2.774  27.076  0.00  0.00    +0.209 A 
ATOM     11  C   UNL     1       5.794  -3.985  27.792  0.00  0.00    +0.209 A 
ENDROOT
BRANCH   6  12
ATOM     12  C   UNL     1       8.298   0.280  24.270  0.00  0.00    +0.025 A 
ATOM     13  C   UNL     1       9.332   1.142  24.698  0.00  0.00    +0.015 A 
ATOM     14  C   UNL     1       9.455   2.449  24.210  0.00  0.00    +0.050 A 
ATOM     15  C   UNL     1       8.497   2.935  23.342  0.00  0.00    +0.158 A 
ATOM     16  C   UNL     1       7.432   2.132  22.950  0.00  0.00    +0.159 A 
ATOM     17  C   UNL     1       7.330   0.811  23.395  0.00  0.00    +0.060 A 
BRANCH  15  18
ATOM     18  O   UNL     1       8.601   4.216  22.884  0.00  0.00    -0.503 OA
ATOM     19  H   UNL     1       7.959   4.268  22.149  0.00  0.00    +0.292 HD
ENDBRANCH  15  18
BRANCH  16  20
ATOM     20  O   UNL     1       6.499   2.689  22.117  0.00  0.00    -0.503 OA
ATOM     21  H   UNL     1       6.697   3.637  22.033  0.00  0.00    +0.292 HD
ENDBRANCH  16  20
ENDBRANCH   6  12
BRANCH   1  23
ATOM     22  C   UNL     1       5.652  -7.053  28.322  0.00  0.00    +0.277 C 
ATOM     23  O   UNL     1       6.755  -6.150  28.384  0.00  0.00    -0.488 OA
ENDBRANCH   1  23
BRANCH   2  24
ATOM     24  O   UNL     1       8.584  -5.928  26.438  0.00  0.00    -0.503 OA
ATOM     25  H   UNL     1       8.813  -6.315  27.312  0.00  0.00    +0.292 HD
ENDBRANCH   2  24
BRANCH  10  26
ATOM     26  O   UNL     1       5.113  -1.660  27.214  0.00  0.00    -0.488 OA
ATOM     27  C   UNL     1       3.812  -1.664  26.643  0.00  0.00    +0.277 C 
ENDBRANCH  10  26
BRANCH  11  28
ATOM     28  O   UNL     1       4.850  -4.120  28.775  0.00  0.00    -0.501 OA
ATOM     29  H   UNL     1       4.146  -3.482  28.560  0.00  0.00    +0.292 HD
ENDBRANCH  11  28
BRANCH   5  30
ATOM     30  O   UNL     1      10.183  -1.966  23.517  0.00  0.00    -0.328 OA
BRANCH  30  31
ATOM     31  O   UNL     1       9.699  -2.162  22.156  0.00  0.00    -0.189 OA
ATOM     32  C   UNL     1       9.888  -0.931  21.481  0.00  0.00    +0.253 C 
ENDBRANCH  30  31
ENDBRANCH   5  30
TORSDOF 9
ENDMDL
MODEL 6
REMARK VINA RESULT:      -6.2      1.994      7.215
REMARK  Name = 
REMARK  12 active torsions:
REMARK  status: ('A' for Active; 'I' for Inactive)
REMARK    1  A    between atoms: C_1  and  O_2
REMARK    2  A    between atoms: O_2  and  C_3
REMARK    3  A    between atoms: C_4  and  O_28
REMARK    4  A    between atoms: C_5  and  O_26
REMARK    5  A    between atoms: C_8  and  O_9
REMARK    6  A    between atoms: C_12  and  O_23
REMARK    7  A    between atoms: C_13  and  C_15
REMARK    8  A    between atoms: C_17  and  O_22
REMARK    9  A    between atoms: C_18  and  O_21
REMARK   10  A    between atoms: O_23  and  O_24
REMARK   11  A    between atoms: O_24  and  C_25
REMARK   12  A    between atoms: O_26  and  C_27
REMARK                            x       y       z     vdW  Elec       q    Type
REMARK                         _______ _______ _______ _____ _____    ______ ____
ROOT
ATOM      1  C   UNL     1       8.150   1.001  24.017  0.00  0.00    +0.208 A 
ATOM      2  C   UNL     1       8.841  -0.210  23.860  0.00  0.00    +0.177 A 
ATOM      3  C   UNL     1       8.219  -1.431  24.196  0.00  0.00    +0.117 A 
ATOM      4  C   UNL     1       8.904  -2.712  23.993  0.00  0.00    +0.242 A 
ATOM      5  C   UNL     1       8.135  -3.959  24.241  0.00  0.00    +0.255 A 
ATOM      6  C   UNL     1       6.847  -3.849  24.643  0.00  0.00    +0.185 A 
ATOM      7  O   UNL     1       6.250  -2.623  24.944  0.00  0.00    -0.447 OA
ATOM      8  O   UNL     1      10.071  -2.730  23.610  0.00  0.00    -0.283 OA
ATOM      9  C   UNL     1       6.919  -1.444  24.686  0.00  0.00    +0.188 A 
ATOM     10  C   UNL     1       6.222  -0.233  24.890  0.00  0.00    +0.209 A 
ATOM     11  C   UNL     1       6.846   0.982  24.536  0.00  0.00    +0.209 A 
ENDROOT
BRANCH   6  12
ATOM     12  C   UNL     1       5.919  -5.011  24.837  0.00  0.00    +0.025 A 
ATOM     13  C   UNL     1       5.824  -5.701  26.066  0.00  0.00    +0.015 A 
ATOM     14  C   UNL     1       4.894  -6.729  26.266  0.00  0.00    +0.050 A 
ATOM     15  C   UNL     1       4.097  -7.130  25.212  0.00  0.00    +0.158 A 
ATOM     16  C   UNL     1       4.210  -6.512  23.971  0.00  0.00    +0.159 A 
ATOM     17  C   UNL     1       5.102  -5.453  23.778  0.00  0.00    +0.060 A 
BRANCH  15  18
ATOM     18  O   UNL     1       3.207  -8.147  25.398  0.00  0.00    -0.503 OA
ATOM     19  H   UNL     1       3.400  -8.483  26.295  0.00  0.00    +0.292 HD
ENDBRANCH  15  18
BRANCH  16  20
ATOM     20  O   UNL     1       3.416  -6.983  22.961  0.00  0.00    -0.503 OA
ATOM     21  H   UNL     1       3.014  -7.817  23.257  0.00  0.00    +0.292 HD
ENDBRANCH  16  20
ENDBRANCH   6  12
BRANCH   1  23
ATOM     22  C   UNL     1       8.364   2.442  22.125  0.00  0.00    +0.277 C 
ATOM     23  O   UNL     1       8.722   2.126  23.469  0.00  0.00    -0.488 OA
ENDBRANCH   1  23
BRANCH   2  24
ATOM     24  O   UNL     1      10.112  -0.162  23.345  0.00  0.00    -0.503 OA
ATOM     25  H   UNL     1      10.419   0.771  23.334  0.00  0.00    +0.292 HD
ENDBRANCH   2  24
BRANCH  10  26
ATOM     26  O   UNL     1       4.947  -0.391  25.378  0.00  0.00    -0.488 OA
ATOM     27  C   UNL     1       4.696  -0.133  26.752  0.00  0.00    +0.277 C 
ENDBRANCH  10  26
BRANCH  11  28
ATOM     28  O   UNL     1       6.155   2.162  24.614  0.00  0.00    -0.501 OA
ATOM     29  H   UNL     1       5.247   1.960  24.321  0.00  0.00    +0.292 HD
ENDBRANCH  11  28
BRANCH   5  30
ATOM     30  O   UNL     1       8.809  -5.135  23.948  0.00  0.00    -0.328 OA
BRANCH  30  31
ATOM     31  O   UNL     1       9.009  -5.823  25.217  0.00  0.00    -0.189 OA
ATOM     32  C   UNL     1      10.151  -5.238  25.816  0.00  0.00    +0.253 C 
ENDBRANCH  30  31
ENDBRANCH   5  30
TORSDOF 9
ENDMDL
MODEL 7
REMARK VINA RESULT:      -5.9      2.219      7.968
REMARK  Name = 
REMARK  12 active torsions:
REMARK  status: ('A' for Active; 'I' for Inactive)
REMARK    1  A    between atoms: C_1  and  O_2
REMARK    2  A    between atoms: O_2  and  C_3
REMARK    3  A    between atoms: C_4  and  O_28
REMARK    4  A    between atoms: C_5  and  O_26
REMARK    5  A    between atoms: C_8  and  O_9
REMARK    6  A    between atoms: C_12  and  O_23
REMARK    7  A    between atoms: C_13  and  C_15
REMARK    8  A    between atoms: C_17  and  O_22
REMARK    9  A    between atoms: C_18  and  O_21
REMARK   10  A    between atoms: O_23  and  O_24
REMARK   11  A    between atoms: O_24  and  C_25
REMARK   12  A    between atoms: O_26  and  C_27
REMARK                            x       y       z     vdW  Elec       q    Type
REMARK                         _______ _______ _______ _____ _____    ______ ____
ROOT
ATOM      1  C   UNL     1       8.366   3.307  23.584  0.00  0.00    +0.208 A 
ATOM      2  C   UNL     1       8.648   2.148  22.846  0.00  0.00    +0.177 A 
ATOM      3  C   UNL     1       8.557   0.879  23.455  0.00  0.00    +0.117 A 
ATOM      4  C   UNL     1       8.799  -0.350  22.691  0.00  0.00    +0.242 A 
ATOM      5  C   UNL     1       8.549  -1.650  23.365  0.00  0.00    +0.255 A 
ATOM      6  C   UNL     1       8.115  -1.635  24.648  0.00  0.00    +0.185 A 
ATOM      7  O   UNL     1       8.005  -0.460  25.395  0.00  0.00    -0.447 OA
ATOM      8  O   UNL     1       9.176  -0.281  21.523  0.00  0.00    -0.283 OA
ATOM      9  C   UNL     1       8.188   0.767  24.791  0.00  0.00    +0.188 A 
ATOM     10  C   UNL     1       7.940   1.924  25.561  0.00  0.00    +0.209 A 
ATOM     11  C   UNL     1       8.018   3.188  24.938  0.00  0.00    +0.209 A 
ENDROOT
BRANCH   6  12
ATOM     12  C   UNL     1       7.729  -2.857  25.425  0.00  0.00    +0.025 A 
ATOM     13  C   UNL     1       8.686  -3.780  25.901  0.00  0.00    +0.015 A 
ATOM     14  C   UNL     1       8.326  -4.873  26.699  0.00  0.00    +0.050 A 
ATOM     15  C   UNL     1       6.991  -5.098  26.969  0.00  0.00    +0.158 A 
ATOM     16  C   UNL     1       6.018  -4.243  26.462  0.00  0.00    +0.159 A 
ATOM     17  C   UNL     1       6.374  -3.122  25.705  0.00  0.00    +0.060 A 
BRANCH  15  18
ATOM     18  O   UNL     1       6.635  -6.176  27.726  0.00  0.00    -0.503 OA
ATOM     19  H   UNL     1       7.004  -5.988  28.611  0.00  0.00    +0.292 HD
ENDBRANCH  15  18
BRANCH  16  20
ATOM     20  O   UNL     1       4.711  -4.545  26.737  0.00  0.00    -0.503 OA
ATOM     21  H   UNL     1       4.149  -3.903  26.270  0.00  0.00    +0.292 HD
ENDBRANCH  16  20
ENDBRANCH   6  12
BRANCH   1  23
ATOM     22  C   UNL     1       6.966   4.820  22.379  0.00  0.00    +0.277 C 
ATOM     23  O   UNL     1       8.258   4.486  22.883  0.00  0.00    -0.488 OA
ENDBRANCH   1  23
BRANCH   2  24
ATOM     24  O   UNL     1       8.980   2.293  21.522  0.00  0.00    -0.503 OA
ATOM     25  H   UNL     1       8.688   3.179  21.214  0.00  0.00    +0.292 HD
ENDBRANCH   2  24
BRANCH  10  26
ATOM     26  O   UNL     1       7.584   1.669  26.864  0.00  0.00    -0.488 OA
ATOM     27  C   UNL     1       6.214   1.734  27.231  0.00  0.00    +0.277 C 
ENDBRANCH  10  26
BRANCH  11  28
ATOM     28  O   UNL     1       7.672   4.319  25.628  0.00  0.00    -0.501 OA
ATOM     29  H   UNL     1       6.917   4.070  26.191  0.00  0.00    +0.292 HD
ENDBRANCH  11  28
BRANCH   5  30
ATOM     30  O   UNL     1       8.712  -2.770  22.564  0.00  0.00    -0.328 OA
BRANCH  30  31
ATOM     31  O   UNL     1       7.401  -3.071  22.003  0.00  0.00    -0.189 OA
ATOM     32  C   UNL     1       7.181  -4.454  22.215  0.00  0.00    +0.253 C 
ENDBRANCH  30  31
ENDBRANCH   5  30
TORSDOF 9
ENDMDL
MODEL 8
REMARK VINA RESULT:      -5.9      2.448      7.362
REMARK  Name = 
REMARK  12 active torsions:
REMARK  status: ('A' for Active; 'I' for Inactive)
REMARK    1  A    between atoms: C_1  and  O_2
REMARK    2  A    between atoms: O_2  and  C_3
REMARK    3  A    between atoms: C_4  and  O_28
REMARK    4  A    between atoms: C_5  and  O_26
REMARK    5  A    between atoms: C_8  and  O_9
REMARK    6  A    between atoms: C_12  and  O_23
REMARK    7  A    between atoms: C_13  and  C_15
REMARK    8  A    between atoms: C_17  and  O_22
REMARK    9  A    between atoms: C_18  and  O_21
REMARK   10  A    between atoms: O_23  and  O_24
REMARK   11  A    between atoms: O_24  and  C_25
REMARK   12  A    between atoms: O_26  and  C_27
REMARK                            x       y       z     vdW  Elec       q    Type
REMARK                         _______ _______ _______ _____ _____    ______ ____
ROOT
ATOM      1  C   UNL     1       9.034   2.636  23.886  0.00  0.00    +0.208 A 
ATOM      2  C   UNL     1       8.141   2.189  24.871  0.00  0.00    +0.177 A 
ATOM      3  C   UNL     1       7.501   0.940  24.734  0.00  0.00    +0.117 A 
ATOM      4  C   UNL     1       6.601   0.429  25.774  0.00  0.00    +0.242 A 
ATOM      5  C   UNL     1       6.074  -0.952  25.622  0.00  0.00    +0.255 A 
ATOM      6  C   UNL     1       6.447  -1.665  24.534  0.00  0.00    +0.185 A 
ATOM      7  O   UNL     1       7.207  -1.120  23.496  0.00  0.00    -0.447 OA
ATOM      8  O   UNL     1       6.323   1.132  26.744  0.00  0.00    -0.283 OA
ATOM      9  C   UNL     1       7.748   0.143  23.622  0.00  0.00    +0.188 A 
ATOM     10  C   UNL     1       8.613   0.595  22.601  0.00  0.00    +0.209 A 
ATOM     11  C   UNL     1       9.261   1.838  22.754  0.00  0.00    +0.209 A 
ENDROOT
BRANCH   6  12
ATOM     12  C   UNL     1       6.077  -3.097  24.293  0.00  0.00    +0.025 A 
ATOM     13  C   UNL     1       6.885  -4.168  24.737  0.00  0.00    +0.015 A 
ATOM     14  C   UNL     1       6.491  -5.504  24.584  0.00  0.00    +0.050 A 
ATOM     15  C   UNL     1       5.316  -5.786  23.917  0.00  0.00    +0.158 A 
ATOM     16  C   UNL     1       4.529  -4.756  23.412  0.00  0.00    +0.159 A 
ATOM     17  C   UNL     1       4.891  -3.419  23.603  0.00  0.00    +0.060 A 
BRANCH  15  18
ATOM     18  O   UNL     1       4.942  -7.087  23.746  0.00  0.00    -0.503 OA
ATOM     19  H   UNL     1       5.110  -7.508  24.611  0.00  0.00    +0.292 HD
ENDBRANCH  15  18
BRANCH  16  20
ATOM     20  O   UNL     1       3.396  -5.108  22.729  0.00  0.00    -0.503 OA
ATOM     21  H   UNL     1       2.703  -4.461  22.943  0.00  0.00    +0.292 HD
ENDBRANCH  16  20
ENDBRANCH   6  12
BRANCH   1  23
ATOM     22  C   UNL     1       9.282   5.006  23.734  0.00  0.00    +0.277 C 
ATOM     23  O   UNL     1       9.788   3.749  24.181  0.00  0.00    -0.488 OA
ENDBRANCH   1  23
BRANCH   2  24
ATOM     24  O   UNL     1       7.942   2.988  25.969  0.00  0.00    -0.503 OA
ATOM     25  H   UNL     1       7.371   3.746  25.716  0.00  0.00    +0.292 HD
ENDBRANCH   2  24
BRANCH  10  26
ATOM     26  O   UNL     1       8.768  -0.291  21.561  0.00  0.00    -0.488 OA
ATOM     27  C   UNL     1       9.824  -1.240  21.614  0.00  0.00    +0.277 C 
ENDBRANCH  10  26
BRANCH  11  28
ATOM     28  O   UNL     1      10.191   2.250  21.837  0.00  0.00    -0.501 OA
ATOM     29  H   UNL     1      10.186   3.224  21.869  0.00  0.00    +0.292 HD
ENDBRANCH  11  28
BRANCH   5  30
ATOM     30  O   UNL     1       5.301  -1.407  26.680  0.00  0.00    -0.328 OA
BRANCH  30  31
ATOM     31  O   UNL     1       3.916  -1.119  26.333  0.00  0.00    -0.189 OA
ATOM     32  C   UNL     1       3.160  -2.253  26.722  0.00  0.00    +0.253 C 
ENDBRANCH  30  31
ENDBRANCH   5  30
TORSDOF 9
ENDMDL
MODEL 9
REMARK VINA RESULT:      -5.9      2.406      7.650
REMARK  Name = 
REMARK  12 active torsions:
REMARK  status: ('A' for Active; 'I' for Inactive)
REMARK    1  A    between atoms: C_1  and  O_2
REMARK    2  A    between atoms: O_2  and  C_3
REMARK    3  A    between atoms: C_4  and  O_28
REMARK    4  A    between atoms: C_5  and  O_26
REMARK    5  A    between atoms: C_8  and  O_9
REMARK    6  A    between atoms: C_12  and  O_23
REMARK    7  A    between atoms: C_13  and  C_15
REMARK    8  A    between atoms: C_17  and  O_22
REMARK    9  A    between atoms: C_18  and  O_21
REMARK   10  A    between atoms: O_23  and  O_24
REMARK   11  A    between atoms: O_24  and  C_25
REMARK   12  A    between atoms: O_26  and  C_27
REMARK                            x       y       z     vdW  Elec       q    Type
REMARK                         _______ _______ _______ _____ _____    ______ ____
ROOT
ATOM      1  C   UNL     1       9.137   2.844  23.488  0.00  0.00    +0.208 A 
ATOM      2  C   UNL     1       8.456   2.684  24.704  0.00  0.00    +0.177 A 
ATOM      3  C   UNL     1       7.858   1.447  25.025  0.00  0.00    +0.117 A 
ATOM      4  C   UNL     1       7.184   1.240  26.312  0.00  0.00    +0.242 A 
ATOM      5  C   UNL     1       6.701  -0.127  26.633  0.00  0.00    +0.255 A 
ATOM      6  C   UNL     1       6.904  -1.109  25.723  0.00  0.00    +0.185 A 
ATOM      7  O   UNL     1       7.440  -0.868  24.456  0.00  0.00    -0.447 OA
ATOM      8  O   UNL     1       7.054   2.180  27.094  0.00  0.00    -0.283 OA
ATOM      9  C   UNL     1       7.937   0.379  24.139  0.00  0.00    +0.188 A 
ATOM     10  C   UNL     1       8.583   0.534  22.893  0.00  0.00    +0.209 A 
ATOM     11  C   UNL     1       9.192   1.770  22.588  0.00  0.00    +0.209 A 
ENDROOT
BRANCH   6  12
ATOM     12  C   UNL     1       6.561  -2.552  25.945  0.00  0.00    +0.025 A 
ATOM     13  C   UNL     1       5.330  -3.106  25.530  0.00  0.00    +0.015 A 
ATOM     14  C   UNL     1       5.051  -4.472  25.663  0.00  0.00    +0.050 A 
ATOM     15  C   UNL     1       5.975  -5.289  26.283  0.00  0.00    +0.158 A 
ATOM     16  C   UNL     1       7.171  -4.763  26.760  0.00  0.00    +0.159 A 
ATOM     17  C   UNL     1       7.476  -3.409  26.587  0.00  0.00    +0.060 A 
BRANCH  15  18
ATOM     18  O   UNL     1       5.696  -6.615  26.435  0.00  0.00    -0.503 OA
ATOM     19  H   UNL     1       6.335  -6.926  27.107  0.00  0.00    +0.292 HD
ENDBRANCH  15  18
BRANCH  16  20
ATOM     20  O   UNL     1       8.026  -5.621  27.397  0.00  0.00    -0.503 OA
ATOM     21  H   UNL     1       8.607  -6.020  26.727  0.00  0.00    +0.292 HD
ENDBRANCH  16  20
ENDBRANCH   6  12
BRANCH   1  23
ATOM     22  C   UNL     1      11.294   3.868  23.477  0.00  0.00    +0.277 C 
ATOM     23  O   UNL     1       9.880   3.992  23.332  0.00  0.00    -0.488 OA
ENDBRANCH   1  23
BRANCH   2  24
ATOM     24  O   UNL     1       8.423   3.750  25.568  0.00  0.00    -0.503 OA
ATOM     25  H   UNL     1       9.161   3.664  26.212  0.00  0.00    +0.292 HD
ENDBRANCH   2  24
BRANCH  10  26
ATOM     26  O   UNL     1       8.589  -0.600  22.116  0.00  0.00    -0.488 OA
ATOM     27  C   UNL     1       9.747  -1.422  22.103  0.00  0.00    +0.277 C 
ENDBRANCH  10  26
BRANCH  11  28
ATOM     28  O   UNL     1       9.923   1.914  21.439  0.00  0.00    -0.501 OA
ATOM     29  H   UNL     1      10.839   2.081  21.723  0.00  0.00    +0.292 HD
ENDBRANCH  11  28
BRANCH   5  30
ATOM     30  O   UNL     1       6.152  -0.276  27.898  0.00  0.00    -0.328 OA
BRANCH  30  31
ATOM     31  O   UNL     1       4.710  -0.134  27.742  0.00  0.00    -0.189 OA
ATOM     32  C   UNL     1       4.250   0.576  28.878  0.00  0.00    +0.253 C 
ENDBRANCH  30  31
ENDBRANCH   5  30
TORSDOF 9
ENDMDL
