MODEL 1
REMARK VINA RESULT:      -7.8      0.000      0.000
REMARK  Name = 
REMARK  17 active torsions:
REMARK  status: ('A' for Active; 'I' for Inactive)
REMARK    1  A    between atoms: C_1  and  C_2
REMARK    2  A    between atoms: C_4  and  O_53
REMARK    3  A    between atoms: C_6  and  O_52
REMARK    4  A    between atoms: C_8  and  O_51
REMARK    5  A    between atoms: C_10  and  O_13
REMARK    6  A    between atoms: O_13  and  C_14
REMARK    7  A    between atoms: C_16  and  O_50
REMARK    8  A    between atoms: C_18  and  O_49
REMARK    9  A    between atoms: C_20  and  C_47
REMARK   10  A    between atoms: C_23  and  O_25
REMARK   11  A    between atoms: O_25  and  C_26
REMARK   12  A    between atoms: C_28  and  O_46
REMARK   13  A    between atoms: C_33  and  C_38
REMARK   14  A    between atoms: C_34  and  O_37
REMARK   15  A    between atoms: C_40  and  O_45
REMARK   16  A    between atoms: C_41  and  O_44
REMARK   17  A    between atoms: C_47  and  O_48
REMARK                            x       y       z     vdW  Elec       q    Type
REMARK                         _______ _______ _______ _____ _____    ______ ____
ROOT
ATOM      1  C   UNL     1       9.204   2.813  24.181  0.00  0.00    +0.221 C 
ATOM      2  C   UNL     1      10.608   2.262  23.766  0.00  0.00    +0.340 C 
ATOM      3  O   UNL     1      11.610   3.269  24.015  0.00  0.00    -0.331 OA
ATOM      4  C   UNL     1      11.403   4.488  23.284  0.00  0.00    +0.179 C 
ATOM      5  C   UNL     1      10.043   5.115  23.620  0.00  0.00    +0.177 C 
ATOM      6  C   UNL     1       8.955   4.089  23.361  0.00  0.00    +0.180 C 
ENDROOT
BRANCH   6   7
ATOM      7  O   UNL     1       7.683   4.675  23.683  0.00  0.00    -0.386 OA
ATOM      8  H   UNL     1       7.294   4.917  22.817  0.00  0.00    +0.210 HD
ENDBRANCH   6   7
BRANCH   5   9
ATOM      9  O   UNL     1       9.787   6.280  22.827  0.00  0.00    -0.386 OA
ATOM     10  H   UNL     1       8.893   6.133  22.448  0.00  0.00    +0.210 HD
ENDBRANCH   5   9
BRANCH   4  11
ATOM     11  C   UNL     1      12.528   5.486  23.600  0.00  0.00    +0.190 C 
BRANCH  11  12
ATOM     12  O   UNL     1      13.813   4.960  23.281  0.00  0.00    -0.392 OA
ATOM     13  H   UNL     1      14.363   5.706  22.954  0.00  0.00    +0.210 HD
ENDBRANCH  11  12
ENDBRANCH   4  11
BRANCH   2  14
ATOM     14  O   UNL     1      10.949   1.053  24.500  0.00  0.00    -0.461 OA
BRANCH  14  15
ATOM     15  C   UNL     1      10.293  -0.097  24.119  0.00  0.00    +0.131 A 
ATOM     16  C   UNL     1       9.703  -0.870  25.130  0.00  0.00    +0.093 A 
ATOM     17  C   UNL     1       8.860  -1.954  24.821  0.00  0.00    +0.147 A 
ATOM     18  O   UNL     1       8.236  -2.591  25.879  0.00  0.00    -0.451 OA
ATOM     19  C   UNL     1       7.267  -3.541  25.598  0.00  0.00    +0.181 A 
ATOM     20  C   UNL     1       6.938  -3.963  24.360  0.00  0.00    +0.208 A 
ATOM     21  C   UNL     1       7.690  -3.399  23.199  0.00  0.00    +0.238 A 
ATOM     22  O   UNL     1       7.466  -3.798  22.063  0.00  0.00    -0.283 OA
ATOM     23  C   UNL     1       8.666  -2.321  23.493  0.00  0.00    +0.109 A 
ATOM     24  C   UNL     1       9.366  -1.629  22.493  0.00  0.00    +0.135 A 
ATOM     25  C   UNL     1      10.180  -0.532  22.804  0.00  0.00    +0.092 A 
BRANCH  19  26
ATOM     26  C   UNL     1       6.600  -4.105  26.791  0.00  0.00    +0.025 A 
ATOM     27  C   UNL     1       5.468  -3.475  27.337  0.00  0.00    +0.015 A 
ATOM     28  C   UNL     1       4.779  -4.051  28.411  0.00  0.00    +0.050 A 
ATOM     29  C   UNL     1       5.217  -5.259  28.931  0.00  0.00    +0.158 A 
ATOM     30  C   UNL     1       6.328  -5.901  28.392  0.00  0.00    +0.159 A 
ATOM     31  C   UNL     1       7.025  -5.335  27.324  0.00  0.00    +0.060 A 
BRANCH  30  32
ATOM     32  O   UNL     1       6.683  -7.104  28.939  0.00  0.00    -0.503 OA
ATOM     33  H   UNL     1       7.523  -7.392  28.542  0.00  0.00    +0.292 HD
ENDBRANCH  30  32
BRANCH  29  34
ATOM     34  O   UNL     1       4.537  -5.823  29.971  0.00  0.00    -0.503 OA
ATOM     35  H   UNL     1       3.655  -5.400  29.956  0.00  0.00    +0.292 HD
ENDBRANCH  29  34
ENDBRANCH  19  26
BRANCH  24  36
ATOM     36  O   UNL     1       9.257  -2.000  21.184  0.00  0.00    -0.506 OA
ATOM     37  H   UNL     1       9.638  -2.879  21.037  0.00  0.00    +0.292 HD
ENDBRANCH  24  36
BRANCH  20  38
ATOM     38  O   UNL     1       5.942  -4.881  24.079  0.00  0.00    -0.501 OA
ATOM     39  H   UNL     1       5.895  -5.547  24.784  0.00  0.00    +0.292 HD
ENDBRANCH  20  38
ENDBRANCH  14  15
ENDBRANCH   2  14
BRANCH   1  40
ATOM     40  O   UNL     1       8.053   2.016  23.876  0.00  0.00    -0.337 OA
BRANCH  40  44
ATOM     41  C   UNL     1       6.302   3.288  27.452  0.00  0.00    +0.041 C 
ATOM     42  C   UNL     1       7.037   1.957  27.313  0.00  0.00    +0.149 C 
ATOM     43  O   UNL     1       7.833   1.946  26.126  0.00  0.00    -0.343 OA
ATOM     44  C   UNL     1       7.101   1.788  24.901  0.00  0.00    +0.282 C 
ATOM     45  C   UNL     1       6.440   0.392  24.896  0.00  0.00    +0.201 C 
ATOM     46  C   UNL     1       5.481   0.298  26.094  0.00  0.00    +0.179 C 
ATOM     47  C   UNL     1       6.167   0.685  27.412  0.00  0.00    +0.174 C 
BRANCH  47  48
ATOM     48  O   UNL     1       7.010  -0.410  27.805  0.00  0.00    -0.387 OA
ATOM     49  H   UNL     1       6.614  -1.238  27.477  0.00  0.00    +0.210 HD
ENDBRANCH  47  48
BRANCH  46  50
ATOM     50  O   UNL     1       4.328   1.108  25.818  0.00  0.00    -0.386 OA
ATOM     51  H   UNL     1       4.403   1.481  24.926  0.00  0.00    +0.210 HD
ENDBRANCH  46  50
BRANCH  45  52
ATOM     52  O   UNL     1       5.704   0.119  23.697  0.00  0.00    -0.384 OA
ATOM     53  H   UNL     1       6.271  -0.455  23.142  0.00  0.00    +0.210 HD
ENDBRANCH  45  52
ENDBRANCH  40  44
ENDBRANCH   1  40
TORSDOF 16
ENDMDL
MODEL 2
REMARK VINA RESULT:      -7.3      1.815      8.970
REMARK  Name = 
REMARK  17 active torsions:
REMARK  status: ('A' for Active; 'I' for Inactive)
REMARK    1  A    between atoms: C_1  and  C_2
REMARK    2  A    between atoms: C_4  and  O_53
REMARK    3  A    between atoms: C_6  and  O_52
REMARK    4  A    between atoms: C_8  and  O_51
REMARK    5  A    between atoms: C_10  and  O_13
REMARK    6  A    between atoms: O_13  and  C_14
REMARK    7  A    between atoms: C_16  and  O_50
REMARK    8  A    between atoms: C_18  and  O_49
REMARK    9  A    between atoms: C_20  and  C_47
REMARK   10  A    between atoms: C_23  and  O_25
REMARK   11  A    between atoms: O_25  and  C_26
REMARK   12  A    between atoms: C_28  and  O_46
REMARK   13  A    between atoms: C_33  and  C_38
REMARK   14  A    between atoms: C_34  and  O_37
REMARK   15  A    between atoms: C_40  and  O_45
REMARK   16  A    between atoms: C_41  and  O_44
REMARK   17  A    between atoms: C_47  and  O_48
REMARK                            x       y       z     vdW  Elec       q    Type
REMARK                         _______ _______ _______ _____ _____    ______ ____
ROOT
ATOM      1  C   UNL     1       6.685  -2.479  24.783  0.00  0.00    +0.221 C 
ATOM      2  C   UNL     1       5.989  -2.348  26.177  0.00  0.00    +0.340 C 
ATOM      3  O   UNL     1       6.149  -3.579  26.911  0.00  0.00    -0.331 OA
ATOM      4  C   UNL     1       5.575  -4.723  26.259  0.00  0.00    +0.179 C 
ATOM      5  C   UNL     1       6.195  -4.942  24.872  0.00  0.00    +0.177 C 
ATOM      6  C   UNL     1       6.037  -3.670  24.060  0.00  0.00    +0.180 C 
ENDROOT
BRANCH   6   7
ATOM      7  O   UNL     1       6.623  -3.875  22.764  0.00  0.00    -0.386 OA
ATOM      8  H   UNL     1       7.066  -3.026  22.554  0.00  0.00    +0.210 HD
ENDBRANCH   6   7
BRANCH   5   9
ATOM      9  O   UNL     1       5.563  -6.024  24.176  0.00  0.00    -0.386 OA
ATOM     10  H   UNL     1       6.300  -6.508  23.744  0.00  0.00    +0.210 HD
ENDBRANCH   5   9
BRANCH   4  11
ATOM     11  C   UNL     1       5.780  -5.976  27.124  0.00  0.00    +0.190 C 
BRANCH  11  12
ATOM     12  O   UNL     1       5.014  -7.081  26.654  0.00  0.00    -0.392 OA
ATOM     13  H   UNL     1       4.080  -6.923  26.915  0.00  0.00    +0.210 HD
ENDBRANCH  11  12
ENDBRANCH   4  11
BRANCH   2  14
ATOM     14  O   UNL     1       6.543  -1.250  26.954  0.00  0.00    -0.461 OA
BRANCH  14  15
ATOM     15  C   UNL     1       6.180   0.020  26.560  0.00  0.00    +0.131 A 
ATOM     16  C   UNL     1       7.197   0.980  26.452  0.00  0.00    +0.093 A 
ATOM     17  C   UNL     1       6.951   2.243  25.883  0.00  0.00    +0.147 A 
ATOM     18  O   UNL     1       8.037   3.084  25.717  0.00  0.00    -0.451 OA
ATOM     19  C   UNL     1       7.859   4.257  25.001  0.00  0.00    +0.181 A 
ATOM     20  C   UNL     1       6.678   4.694  24.518  0.00  0.00    +0.208 A 
ATOM     21  C   UNL     1       5.457   3.880  24.798  0.00  0.00    +0.238 A 
ATOM     22  O   UNL     1       4.355   4.268  24.430  0.00  0.00    -0.283 OA
ATOM     23  C   UNL     1       5.660   2.583  25.489  0.00  0.00    +0.109 A 
ATOM     24  C   UNL     1       4.621   1.670  25.725  0.00  0.00    +0.135 A 
ATOM     25  C   UNL     1       4.877   0.402  26.264  0.00  0.00    +0.092 A 
BRANCH  19  26
ATOM     26  C   UNL     1       9.093   5.048  24.808  0.00  0.00    +0.025 A 
ATOM     27  C   UNL     1       9.415   6.092  25.694  0.00  0.00    +0.015 A 
ATOM     28  C   UNL     1      10.625   6.786  25.570  0.00  0.00    +0.050 A 
ATOM     29  C   UNL     1      11.513   6.432  24.566  0.00  0.00    +0.158 A 
ATOM     30  C   UNL     1      11.214   5.393  23.690  0.00  0.00    +0.159 A 
ATOM     31  C   UNL     1      10.010   4.696  23.802  0.00  0.00    +0.060 A 
BRANCH  30  32
ATOM     32  O   UNL     1      12.151   5.082  22.743  0.00  0.00    -0.503 OA
ATOM     33  H   UNL     1      12.755   4.413  23.109  0.00  0.00    +0.292 HD
ENDBRANCH  30  32
BRANCH  29  34
ATOM     34  O   UNL     1      12.695   7.104  24.454  0.00  0.00    -0.503 OA
ATOM     35  H   UNL     1      13.321   6.453  24.076  0.00  0.00    +0.292 HD
ENDBRANCH  29  34
ENDBRANCH  19  26
BRANCH  24  36
ATOM     36  O   UNL     1       3.330   1.990  25.416  0.00  0.00    -0.506 OA
ATOM     37  H   UNL     1       3.280   2.464  24.572  0.00  0.00    +0.292 HD
ENDBRANCH  24  36
BRANCH  20  38
ATOM     38  O   UNL     1       6.510   5.844  23.767  0.00  0.00    -0.501 OA
ATOM     39  H   UNL     1       6.592   5.639  22.822  0.00  0.00    +0.292 HD
ENDBRANCH  20  38
ENDBRANCH  14  15
ENDBRANCH   2  14
BRANCH   1  40
ATOM     40  O   UNL     1       6.514  -1.412  23.843  0.00  0.00    -0.337 OA
BRANCH  40  44
ATOM     41  C   UNL     1      10.501  -1.825  22.656  0.00  0.00    +0.041 C 
ATOM     42  C   UNL     1      10.049  -0.827  23.720  0.00  0.00    +0.149 C 
ATOM     43  O   UNL     1       8.734  -1.149  24.182  0.00  0.00    -0.343 OA
ATOM     44  C   UNL     1       7.671  -0.822  23.275  0.00  0.00    +0.282 C 
ATOM     45  C   UNL     1       7.619   0.712  23.105  0.00  0.00    +0.201 C 
ATOM     46  C   UNL     1       8.963   1.188  22.527  0.00  0.00    +0.179 C 
ATOM     47  C   UNL     1      10.156   0.667  23.342  0.00  0.00    +0.174 C 
BRANCH  47  48
ATOM     48  O   UNL     1      10.229   1.435  24.553  0.00  0.00    -0.387 OA
ATOM     49  H   UNL     1      10.318   0.819  25.304  0.00  0.00    +0.210 HD
ENDBRANCH  47  48
BRANCH  46  50
ATOM     50  O   UNL     1       9.030   0.797  21.148  0.00  0.00    -0.386 OA
ATOM     51  H   UNL     1       9.472  -0.063  21.079  0.00  0.00    +0.210 HD
ENDBRANCH  46  50
BRANCH  45  52
ATOM     52  O   UNL     1       6.567   1.151  22.236  0.00  0.00    -0.384 OA
ATOM     53  H   UNL     1       6.622   0.602  21.427  0.00  0.00    +0.210 HD
ENDBRANCH  45  52
ENDBRANCH  40  44
ENDBRANCH   1  40
TORSDOF 16
ENDMDL
MODEL 3
REMARK VINA RESULT:      -7.2      1.246      1.967
REMARK  Name = 
REMARK  17 active torsions:
REMARK  status: ('A' for Active; 'I' for Inactive)
REMARK    1  A    between atoms: C_1  and  C_2
REMARK    2  A    between atoms: C_4  and  O_53
REMARK    3  A    between atoms: C_6  and  O_52
REMARK    4  A    between atoms: C_8  and  O_51
REMARK    5  A    between atoms: C_10  and  O_13
REMARK    6  A    between atoms: O_13  and  C_14
REMARK    7  A    between atoms: C_16  and  O_50
REMARK    8  A    between atoms: C_18  and  O_49
REMARK    9  A    between atoms: C_20  and  C_47
REMARK   10  A    between atoms: C_23  and  O_25
REMARK   11  A    between atoms: O_25  and  C_26
REMARK   12  A    between atoms: C_28  and  O_46
REMARK   13  A    between atoms: C_33  and  C_38
REMARK   14  A    between atoms: C_34  and  O_37
REMARK   15  A    between atoms: C_40  and  O_45
REMARK   16  A    between atoms: C_41  and  O_44
REMARK   17  A    between atoms: C_47  and  O_48
REMARK                            x       y       z     vdW  Elec       q    Type
REMARK                         _______ _______ _______ _____ _____    ______ ____
ROOT
ATOM      1  C   UNL     1       8.783   2.791  24.786  0.00  0.00    +0.221 C 
ATOM      2  C   UNL     1       9.897   1.916  24.122  0.00  0.00    +0.340 C 
ATOM      3  O   UNL     1      11.120   2.676  24.046  0.00  0.00    -0.331 OA
ATOM      4  C   UNL     1      11.010   3.878  23.268  0.00  0.00    +0.179 C 
ATOM      5  C   UNL     1       9.935   4.814  23.839  0.00  0.00    +0.177 C 
ATOM      6  C   UNL     1       8.624   4.056  23.926  0.00  0.00    +0.180 C 
ENDROOT
BRANCH   6   7
ATOM      7  O   UNL     1       7.620   4.930  24.467  0.00  0.00    -0.386 OA
ATOM      8  H   UNL     1       7.446   4.583  25.367  0.00  0.00    +0.210 HD
ENDBRANCH   6   7
BRANCH   5   9
ATOM      9  O   UNL     1       9.753   5.973  23.017  0.00  0.00    -0.386 OA
ATOM     10  H   UNL     1      10.470   5.922  22.349  0.00  0.00    +0.210 HD
ENDBRANCH   5   9
BRANCH   4  11
ATOM     11  C   UNL     1      12.364   4.604  23.231  0.00  0.00    +0.190 C 
BRANCH  11  12
ATOM     12  O   UNL     1      12.551   5.324  22.016  0.00  0.00    -0.392 OA
ATOM     13  H   UNL     1      13.237   6.009  22.183  0.00  0.00    +0.210 HD
ENDBRANCH  11  12
ENDBRANCH   4  11
BRANCH   2  14
ATOM     14  O   UNL     1      10.137   0.693  24.872  0.00  0.00    -0.461 OA
BRANCH  14  15
ATOM     15  C   UNL     1       9.661  -0.471  24.308  0.00  0.00    +0.131 A 
ATOM     16  C   UNL     1       9.079  -1.416  25.166  0.00  0.00    +0.093 A 
ATOM     17  C   UNL     1       8.405  -2.543  24.661  0.00  0.00    +0.147 A 
ATOM     18  O   UNL     1       7.768  -3.362  25.577  0.00  0.00    -0.451 OA
ATOM     19  C   UNL     1       6.951  -4.373  25.100  0.00  0.00    +0.181 A 
ATOM     20  C   UNL     1       6.789  -4.684  23.797  0.00  0.00    +0.208 A 
ATOM     21  C   UNL     1       7.570  -3.911  22.785  0.00  0.00    +0.238 A 
ATOM     22  O   UNL     1       7.499  -4.198  21.597  0.00  0.00    -0.283 OA
ATOM     23  C   UNL     1       8.377  -2.773  23.289  0.00  0.00    +0.109 A 
ATOM     24  C   UNL     1       9.077  -1.898  22.444  0.00  0.00    +0.135 A 
ATOM     25  C   UNL     1       9.721  -0.761  22.950  0.00  0.00    +0.092 A 
BRANCH  19  26
ATOM     26  C   UNL     1       6.252  -5.141  26.152  0.00  0.00    +0.025 A 
ATOM     27  C   UNL     1       5.176  -5.984  25.821  0.00  0.00    +0.015 A 
ATOM     28  C   UNL     1       4.567  -6.782  26.798  0.00  0.00    +0.050 A 
ATOM     29  C   UNL     1       5.039  -6.741  28.101  0.00  0.00    +0.158 A 
ATOM     30  C   UNL     1       6.111  -5.921  28.441  0.00  0.00    +0.159 A 
ATOM     31  C   UNL     1       6.724  -5.120  27.477  0.00  0.00    +0.060 A 
BRANCH  30  32
ATOM     32  O   UNL     1       6.540  -5.956  29.740  0.00  0.00    -0.503 OA
ATOM     33  H   UNL     1       5.977  -6.573  30.239  0.00  0.00    +0.292 HD
ENDBRANCH  30  32
BRANCH  29  34
ATOM     34  O   UNL     1       4.449  -7.526  29.048  0.00  0.00    -0.503 OA
ATOM     35  H   UNL     1       5.132  -7.644  29.739  0.00  0.00    +0.292 HD
ENDBRANCH  29  34
ENDBRANCH  19  26
BRANCH  24  36
ATOM     36  O   UNL     1       9.132  -2.125  21.099  0.00  0.00    -0.506 OA
ATOM     37  H   UNL     1       8.294  -1.894  20.671  0.00  0.00    +0.292 HD
ENDBRANCH  24  36
BRANCH  20  38
ATOM     38  O   UNL     1       5.940  -5.667  23.322  0.00  0.00    -0.501 OA
ATOM     39  H   UNL     1       5.146  -5.263  22.936  0.00  0.00    +0.292 HD
ENDBRANCH  20  38
ENDBRANCH  14  15
ENDBRANCH   2  14
BRANCH   1  40
ATOM     40  O   UNL     1       7.450   2.268  24.822  0.00  0.00    -0.337 OA
BRANCH  40  44
ATOM     41  C   UNL     1       6.038  -0.906  27.145  0.00  0.00    +0.041 C 
ATOM     42  C   UNL     1       5.189   0.316  26.803  0.00  0.00    +0.149 C 
ATOM     43  O   UNL     1       5.774   1.045  25.721  0.00  0.00    -0.343 OA
ATOM     44  C   UNL     1       6.935   1.818  26.063  0.00  0.00    +0.282 C 
ATOM     45  C   UNL     1       6.517   2.929  27.051  0.00  0.00    +0.201 C 
ATOM     46  C   UNL     1       5.938   2.270  28.315  0.00  0.00    +0.179 C 
ATOM     47  C   UNL     1       4.837   1.252  27.980  0.00  0.00    +0.174 C 
BRANCH  47  48
ATOM     48  O   UNL     1       3.652   1.987  27.634  0.00  0.00    -0.387 OA
ATOM     49  H   UNL     1       3.066   1.401  27.120  0.00  0.00    +0.210 HD
ENDBRANCH  47  48
BRANCH  46  50
ATOM     50  O   UNL     1       7.018   1.683  29.057  0.00  0.00    -0.386 OA
ATOM     51  H   UNL     1       7.744   2.321  29.127  0.00  0.00    +0.210 HD
ENDBRANCH  46  50
BRANCH  45  52
ATOM     52  O   UNL     1       7.602   3.781  27.437  0.00  0.00    -0.384 OA
ATOM     53  H   UNL     1       7.251   4.695  27.456  0.00  0.00    +0.210 HD
ENDBRANCH  45  52
ENDBRANCH  40  44
ENDBRANCH   1  40
TORSDOF 16
ENDMDL
MODEL 4
REMARK VINA RESULT:      -7.2      3.399      9.486
REMARK  Name = 
REMARK  17 active torsions:
REMARK  status: ('A' for Active; 'I' for Inactive)
REMARK    1  A    between atoms: C_1  and  C_2
REMARK    2  A    between atoms: C_4  and  O_53
REMARK    3  A    between atoms: C_6  and  O_52
REMARK    4  A    between atoms: C_8  and  O_51
REMARK    5  A    between atoms: C_10  and  O_13
REMARK    6  A    between atoms: O_13  and  C_14
REMARK    7  A    between atoms: C_16  and  O_50
REMARK    8  A    between atoms: C_18  and  O_49
REMARK    9  A    between atoms: C_20  and  C_47
REMARK   10  A    between atoms: C_23  and  O_25
REMARK   11  A    between atoms: O_25  and  C_26
REMARK   12  A    between atoms: C_28  and  O_46
REMARK   13  A    between atoms: C_33  and  C_38
REMARK   14  A    between atoms: C_34  and  O_37
REMARK   15  A    between atoms: C_40  and  O_45
REMARK   16  A    between atoms: C_41  and  O_44
REMARK   17  A    between atoms: C_47  and  O_48
REMARK                            x       y       z     vdW  Elec       q    Type
REMARK                         _______ _______ _______ _____ _____    ______ ____
ROOT
ATOM      1  C   UNL     1       3.059  -6.023  24.981  0.00  0.00    +0.221 C 
ATOM      2  C   UNL     1       3.508  -6.074  23.483  0.00  0.00    +0.340 C 
ATOM      3  O   UNL     1       2.452  -6.646  22.685  0.00  0.00    -0.331 OA
ATOM      4  C   UNL     1       2.098  -7.985  23.064  0.00  0.00    +0.179 C 
ATOM      5  C   UNL     1       1.639  -8.047  24.528  0.00  0.00    +0.177 C 
ATOM      6  C   UNL     1       2.730  -7.463  25.406  0.00  0.00    +0.180 C 
ENDROOT
BRANCH   6   7
ATOM      7  O   UNL     1       2.296  -7.515  26.776  0.00  0.00    -0.386 OA
ATOM      8  H   UNL     1       1.616  -6.813  26.848  0.00  0.00    +0.210 HD
ENDBRANCH   6   7
BRANCH   5   9
ATOM      9  O   UNL     1       1.374  -9.392  24.942  0.00  0.00    -0.386 OA
ATOM     10  H   UNL     1       1.136  -9.320  25.892  0.00  0.00    +0.210 HD
ENDBRANCH   5   9
BRANCH   4  11
ATOM     11  C   UNL     1       0.982  -8.511  22.147  0.00  0.00    +0.190 C 
BRANCH  11  12
ATOM     12  O   UNL     1       1.459  -8.790  20.833  0.00  0.00    -0.392 OA
ATOM     13  H   UNL     1       1.913  -9.662  20.865  0.00  0.00    +0.210 HD
ENDBRANCH  11  12
ENDBRANCH   4  11
BRANCH   2  14
ATOM     14  O   UNL     1       3.831  -4.750  22.975  0.00  0.00    -0.461 OA
BRANCH  14  15
ATOM     15  C   UNL     1       5.157  -4.378  23.041  0.00  0.00    +0.131 A 
ATOM     16  C   UNL     1       5.461  -3.026  22.825  0.00  0.00    +0.093 A 
ATOM     17  C   UNL     1       6.756  -2.524  23.054  0.00  0.00    +0.147 A 
ATOM     18  O   UNL     1       6.937  -1.159  22.920  0.00  0.00    -0.451 OA
ATOM     19  C   UNL     1       8.149  -0.614  23.310  0.00  0.00    +0.181 A 
ATOM     20  C   UNL     1       9.214  -1.326  23.736  0.00  0.00    +0.208 A 
ATOM     21  C   UNL     1       9.102  -2.815  23.760  0.00  0.00    +0.238 A 
ATOM     22  O   UNL     1      10.062  -3.503  24.083  0.00  0.00    -0.283 OA
ATOM     23  C   UNL     1       7.777  -3.393  23.426  0.00  0.00    +0.109 A 
ATOM     24  C   UNL     1       7.499  -4.765  23.508  0.00  0.00    +0.135 A 
ATOM     25  C   UNL     1       6.201  -5.256  23.308  0.00  0.00    +0.092 A 
BRANCH  19  26
ATOM     26  C   UNL     1       8.219   0.860  23.207  0.00  0.00    +0.025 A 
ATOM     27  C   UNL     1       8.144   1.489  21.952  0.00  0.00    +0.015 A 
ATOM     28  C   UNL     1       8.119   2.886  21.854  0.00  0.00    +0.050 A 
ATOM     29  C   UNL     1       8.162   3.650  23.010  0.00  0.00    +0.158 A 
ATOM     30  C   UNL     1       8.223   3.041  24.259  0.00  0.00    +0.159 A 
ATOM     31  C   UNL     1       8.251   1.650  24.370  0.00  0.00    +0.060 A 
BRANCH  30  32
ATOM     32  O   UNL     1       8.232   3.859  25.356  0.00  0.00    -0.503 OA
ATOM     33  H   UNL     1       7.629   4.605  25.195  0.00  0.00    +0.292 HD
ENDBRANCH  30  32
BRANCH  29  34
ATOM     34  O   UNL     1       8.128   5.010  22.911  0.00  0.00    -0.503 OA
ATOM     35  H   UNL     1       7.193   5.252  23.074  0.00  0.00    +0.292 HD
ENDBRANCH  29  34
ENDBRANCH  19  26
BRANCH  24  36
ATOM     36  O   UNL     1       8.486  -5.660  23.803  0.00  0.00    -0.506 OA
ATOM     37  H   UNL     1       9.351  -5.224  23.843  0.00  0.00    +0.292 HD
ENDBRANCH  24  36
BRANCH  20  38
ATOM     38  O   UNL     1      10.409  -0.776  24.164  0.00  0.00    -0.501 OA
ATOM     39  H   UNL     1      11.145  -1.369  23.945  0.00  0.00    +0.292 HD
ENDBRANCH  20  38
ENDBRANCH  14  15
ENDBRANCH   2  14
BRANCH   1  40
ATOM     40  O   UNL     1       4.025  -5.621  25.959  0.00  0.00    -0.337 OA
BRANCH  40  44
ATOM     41  C   UNL     1       1.727  -4.109  29.106  0.00  0.00    +0.041 C 
ATOM     42  C   UNL     1       1.705  -3.514  27.700  0.00  0.00    +0.149 C 
ATOM     43  O   UNL     1       2.280  -4.427  26.761  0.00  0.00    -0.343 OA
ATOM     44  C   UNL     1       3.712  -4.530  26.808  0.00  0.00    +0.282 C 
ATOM     45  C   UNL     1       4.319  -3.172  26.395  0.00  0.00    +0.201 C 
ATOM     46  C   UNL     1       3.841  -2.098  27.387  0.00  0.00    +0.179 C 
ATOM     47  C   UNL     1       2.313  -2.102  27.547  0.00  0.00    +0.174 C 
BRANCH  47  48
ATOM     48  O   UNL     1       1.748  -1.492  26.376  0.00  0.00    -0.387 OA
ATOM     49  H   UNL     1       0.930  -1.028  26.634  0.00  0.00    +0.210 HD
ENDBRANCH  47  48
BRANCH  46  50
ATOM     50  O   UNL     1       4.521  -2.296  28.635  0.00  0.00    -0.386 OA
ATOM     51  H   UNL     1       3.969  -1.962  29.359  0.00  0.00    +0.210 HD
ENDBRANCH  46  50
BRANCH  45  52
ATOM     52  O   UNL     1       5.752  -3.174  26.380  0.00  0.00    -0.384 OA
ATOM     53  H   UNL     1       6.045  -3.230  27.312  0.00  0.00    +0.210 HD
ENDBRANCH  45  52
ENDBRANCH  40  44
ENDBRANCH   1  40
TORSDOF 16
ENDMDL
MODEL 5
REMARK VINA RESULT:      -7.2      2.294      5.019
REMARK  Name = 
REMARK  17 active torsions:
REMARK  status: ('A' for Active; 'I' for Inactive)
REMARK    1  A    between atoms: C_1  and  C_2
REMARK    2  A    between atoms: C_4  and  O_53
REMARK    3  A    between atoms: C_6  and  O_52
REMARK    4  A    between atoms: C_8  and  O_51
REMARK    5  A    between atoms: C_10  and  O_13
REMARK    6  A    between atoms: O_13  and  C_14
REMARK    7  A    between atoms: C_16  and  O_50
REMARK    8  A    between atoms: C_18  and  O_49
REMARK    9  A    between atoms: C_20  and  C_47
REMARK   10  A    between atoms: C_23  and  O_25
REMARK   11  A    between atoms: O_25  and  C_26
REMARK   12  A    between atoms: C_28  and  O_46
REMARK   13  A    between atoms: C_33  and  C_38
REMARK   14  A    between atoms: C_34  and  O_37
REMARK   15  A    between atoms: C_40  and  O_45
REMARK   16  A    between atoms: C_41  and  O_44
REMARK   17  A    between atoms: C_47  and  O_48
REMARK                            x       y       z     vdW  Elec       q    Type
REMARK                         _______ _______ _______ _____ _____    ______ ____
ROOT
ATOM      1  C   UNL     1       9.357  -0.548  23.794  0.00  0.00    +0.221 C 
ATOM      2  C   UNL     1       9.896   0.190  25.063  0.00  0.00    +0.340 C 
ATOM      3  O   UNL     1       9.567   1.591  24.979  0.00  0.00    -0.331 OA
ATOM      4  C   UNL     1      10.131   2.253  23.836  0.00  0.00    +0.179 C 
ATOM      5  C   UNL     1       9.663   1.601  22.527  0.00  0.00    +0.177 C 
ATOM      6  C   UNL     1      10.001   0.123  22.570  0.00  0.00    +0.180 C 
ENDROOT
BRANCH   6   7
ATOM      7  O   UNL     1       9.555  -0.487  21.347  0.00  0.00    -0.386 OA
ATOM      8  H   UNL     1       9.716  -1.446  21.475  0.00  0.00    +0.210 HD
ENDBRANCH   6   7
BRANCH   5   9
ATOM      9  O   UNL     1      10.294   2.194  21.386  0.00  0.00    -0.386 OA
ATOM     10  H   UNL     1      10.841   1.475  21.001  0.00  0.00    +0.210 HD
ENDBRANCH   5   9
BRANCH   4  11
ATOM     11  C   UNL     1       9.741   3.739  23.845  0.00  0.00    +0.190 C 
BRANCH  11  12
ATOM     12  O   UNL     1      10.723   4.553  23.210  0.00  0.00    -0.392 OA
ATOM     13  H   UNL     1      10.632   4.420  22.240  0.00  0.00    +0.210 HD
ENDBRANCH  11  12
ENDBRANCH   4  11
BRANCH   2  14
ATOM     14  O   UNL     1       9.332  -0.363  26.285  0.00  0.00    -0.461 OA
BRANCH  14  15
ATOM     15  C   UNL     1       7.963  -0.281  26.416  0.00  0.00    +0.131 A 
ATOM     16  C   UNL     1       7.225  -1.463  26.256  0.00  0.00    +0.093 A 
ATOM     17  C   UNL     1       5.850  -1.512  26.552  0.00  0.00    +0.147 A 
ATOM     18  O   UNL     1       5.229  -2.746  26.469  0.00  0.00    -0.451 OA
ATOM     19  C   UNL     1       3.926  -2.859  26.924  0.00  0.00    +0.181 A 
ATOM     20  C   UNL     1       3.173  -1.832  27.369  0.00  0.00    +0.208 A 
ATOM     21  C   UNL     1       3.763  -0.460  27.342  0.00  0.00    +0.238 A 
ATOM     22  O   UNL     1       3.095   0.509  27.681  0.00  0.00    -0.283 OA
ATOM     23  C   UNL     1       5.186  -0.351  26.937  0.00  0.00    +0.109 A 
ATOM     24  C   UNL     1       5.899   0.856  26.965  0.00  0.00    +0.135 A 
ATOM     25  C   UNL     1       7.275   0.893  26.698  0.00  0.00    +0.092 A 
BRANCH  19  26
ATOM     26  C   UNL     1       3.377  -4.231  26.870  0.00  0.00    +0.025 A 
ATOM     27  C   UNL     1       2.649  -4.662  25.747  0.00  0.00    +0.015 A 
ATOM     28  C   UNL     1       2.203  -5.986  25.650  0.00  0.00    +0.050 A 
ATOM     29  C   UNL     1       2.491  -6.877  26.672  0.00  0.00    +0.158 A 
ATOM     30  C   UNL     1       3.221  -6.468  27.784  0.00  0.00    +0.159 A 
ATOM     31  C   UNL     1       3.669  -5.151  27.893  0.00  0.00    +0.060 A 
BRANCH  30  32
ATOM     32  O   UNL     1       3.492  -7.411  28.737  0.00  0.00    -0.503 OA
ATOM     33  H   UNL     1       4.048  -8.105  28.343  0.00  0.00    +0.292 HD
ENDBRANCH  30  32
BRANCH  29  34
ATOM     34  O   UNL     1       2.063  -8.169  26.570  0.00  0.00    -0.503 OA
ATOM     35  H   UNL     1       1.135  -8.104  26.264  0.00  0.00    +0.292 HD
ENDBRANCH  29  34
ENDBRANCH  19  26
BRANCH  24  36
ATOM     36  O   UNL     1       5.271   2.029  27.271  0.00  0.00    -0.506 OA
ATOM     37  H   UNL     1       5.682   2.776  26.809  0.00  0.00    +0.292 HD
ENDBRANCH  24  36
BRANCH  20  38
ATOM     38  O   UNL     1       1.886  -1.955  27.863  0.00  0.00    -0.501 OA
ATOM     39  H   UNL     1       1.817  -2.747  28.420  0.00  0.00    +0.292 HD
ENDBRANCH  20  38
ENDBRANCH  14  15
ENDBRANCH   2  14
BRANCH   1  40
ATOM     40  O   UNL     1       9.709  -1.925  23.617  0.00  0.00    -0.337 OA
BRANCH  40  44
ATOM     41  C   UNL     1       8.161  -4.987  26.004  0.00  0.00    +0.041 C 
ATOM     42  C   UNL     1       8.626  -5.207  24.567  0.00  0.00    +0.149 C 
ATOM     43  O   UNL     1       9.430  -4.110  24.127  0.00  0.00    -0.343 OA
ATOM     44  C   UNL     1       8.708  -2.908  23.818  0.00  0.00    +0.282 C 
ATOM     45  C   UNL     1       7.790  -3.180  22.607  0.00  0.00    +0.201 C 
ATOM     46  C   UNL     1       6.804  -4.300  22.979  0.00  0.00    +0.179 C 
ATOM     47  C   UNL     1       7.523  -5.538  23.537  0.00  0.00    +0.174 C 
BRANCH  47  48
ATOM     48  O   UNL     1       8.129  -6.227  22.432  0.00  0.00    -0.387 OA
ATOM     49  H   UNL     1       7.514  -6.198  21.676  0.00  0.00    +0.210 HD
ENDBRANCH  47  48
BRANCH  46  50
ATOM     50  O   UNL     1       5.837  -3.769  23.898  0.00  0.00    -0.386 OA
ATOM     51  H   UNL     1       4.964  -4.139  23.695  0.00  0.00    +0.210 HD
ENDBRANCH  46  50
BRANCH  45  52
ATOM     52  O   UNL     1       7.041  -2.029  22.196  0.00  0.00    -0.384 OA
ATOM     53  H   UNL     1       7.243  -1.883  21.249  0.00  0.00    +0.210 HD
ENDBRANCH  45  52
ENDBRANCH  40  44
ENDBRANCH   1  40
TORSDOF 16
ENDMDL
MODEL 6
REMARK VINA RESULT:      -7.1      3.070      3.892
REMARK  Name = 
REMARK  17 active torsions:
REMARK  status: ('A' for Active; 'I' for Inactive)
REMARK    1  A    between atoms: C_1  and  C_2
REMARK    2  A    between atoms: C_4  and  O_53
REMARK    3  A    between atoms: C_6  and  O_52
REMARK    4  A    between atoms: C_8  and  O_51
REMARK    5  A    between atoms: C_10  and  O_13
REMARK    6  A    between atoms: O_13  and  C_14
REMARK    7  A    between atoms: C_16  and  O_50
REMARK    8  A    between atoms: C_18  and  O_49
REMARK    9  A    between atoms: C_20  and  C_47
REMARK   10  A    between atoms: C_23  and  O_25
REMARK   11  A    between atoms: O_25  and  C_26
REMARK   12  A    between atoms: C_28  and  O_46
REMARK   13  A    between atoms: C_33  and  C_38
REMARK   14  A    between atoms: C_34  and  O_37
REMARK   15  A    between atoms: C_40  and  O_45
REMARK   16  A    between atoms: C_41  and  O_44
REMARK   17  A    between atoms: C_47  and  O_48
REMARK                            x       y       z     vdW  Elec       q    Type
REMARK                         _______ _______ _______ _____ _____    ______ ____
ROOT
ATOM      1  C   UNL     1       5.860   3.951  23.414  0.00  0.00    +0.221 C 
ATOM      2  C   UNL     1       7.072   3.049  23.822  0.00  0.00    +0.340 C 
ATOM      3  O   UNL     1       8.138   3.878  24.326  0.00  0.00    -0.331 OA
ATOM      4  C   UNL     1       8.628   4.837  23.375  0.00  0.00    +0.179 C 
ATOM      5  C   UNL     1       7.509   5.778  22.907  0.00  0.00    +0.177 C 
ATOM      6  C   UNL     1       6.368   4.944  22.357  0.00  0.00    +0.180 C 
ENDROOT
BRANCH   6   7
ATOM      7  O   UNL     1       5.318   5.827  21.926  0.00  0.00    -0.386 OA
ATOM      8  H   UNL     1       4.493   5.408  22.248  0.00  0.00    +0.210 HD
ENDBRANCH   6   7
BRANCH   5   9
ATOM      9  O   UNL     1       7.966   6.677  21.889  0.00  0.00    -0.386 OA
ATOM     10  H   UNL     1       7.474   7.511  22.052  0.00  0.00    +0.210 HD
ENDBRANCH   5   9
BRANCH   4  11
ATOM     11  C   UNL     1       9.770   5.655  23.997  0.00  0.00    +0.190 C 
BRANCH  11  12
ATOM     12  O   UNL     1      10.793   5.951  23.050  0.00  0.00    -0.392 OA
ATOM     13  H   UNL     1      11.077   5.100  22.649  0.00  0.00    +0.210 HD
ENDBRANCH  11  12
ENDBRANCH   4  11
BRANCH   2  14
ATOM     14  O   UNL     1       6.699   2.076  24.837  0.00  0.00    -0.461 OA
BRANCH  14  15
ATOM     15  C   UNL     1       7.388   0.882  24.818  0.00  0.00    +0.131 A 
ATOM     16  C   UNL     1       6.669  -0.285  25.115  0.00  0.00    +0.093 A 
ATOM     17  C   UNL     1       7.241  -1.559  24.941  0.00  0.00    +0.147 A 
ATOM     18  O   UNL     1       6.422  -2.654  25.153  0.00  0.00    -0.451 OA
ATOM     19  C   UNL     1       6.902  -3.910  24.819  0.00  0.00    +0.181 A 
ATOM     20  C   UNL     1       8.151  -4.166  24.377  0.00  0.00    +0.208 A 
ATOM     21  C   UNL     1       9.108  -3.025  24.268  0.00  0.00    +0.238 A 
ATOM     22  O   UNL     1      10.269  -3.220  23.928  0.00  0.00    -0.283 OA
ATOM     23  C   UNL     1       8.570  -1.670  24.543  0.00  0.00    +0.109 A 
ATOM     24  C   UNL     1       9.325  -0.499  24.379  0.00  0.00    +0.135 A 
ATOM     25  C   UNL     1       8.742   0.767  24.525  0.00  0.00    +0.092 A 
BRANCH  19  26
ATOM     26  C   UNL     1       5.927  -5.006  25.004  0.00  0.00    +0.025 A 
ATOM     27  C   UNL     1       5.165  -5.471  23.918  0.00  0.00    +0.015 A 
ATOM     28  C   UNL     1       4.305  -6.567  24.066  0.00  0.00    +0.050 A 
ATOM     29  C   UNL     1       4.215  -7.199  25.296  0.00  0.00    +0.158 A 
ATOM     30  C   UNL     1       4.972  -6.758  26.377  0.00  0.00    +0.159 A 
ATOM     31  C   UNL     1       5.830  -5.666  26.243  0.00  0.00    +0.060 A 
BRANCH  30  32
ATOM     32  O   UNL     1       4.851  -7.450  27.551  0.00  0.00    -0.503 OA
ATOM     33  H   UNL     1       5.737  -7.573  27.934  0.00  0.00    +0.292 HD
ENDBRANCH  30  32
BRANCH  29  34
ATOM     34  O   UNL     1       3.383  -8.272  25.434  0.00  0.00    -0.503 OA
ATOM     35  H   UNL     1       2.541  -7.898  25.764  0.00  0.00    +0.292 HD
ENDBRANCH  29  34
ENDBRANCH  19  26
BRANCH  24  36
ATOM     36  O   UNL     1      10.650  -0.564  24.056  0.00  0.00    -0.506 OA
ATOM     37  H   UNL     1      11.012   0.319  23.890  0.00  0.00    +0.292 HD
ENDBRANCH  24  36
BRANCH  20  38
ATOM     38  O   UNL     1       8.613  -5.415  24.004  0.00  0.00    -0.501 OA
ATOM     39  H   UNL     1       9.328  -5.325  23.352  0.00  0.00    +0.292 HD
ENDBRANCH  20  38
ENDBRANCH  14  15
ENDBRANCH   2  14
BRANCH   1  40
ATOM     40  O   UNL     1       4.752   3.329  22.754  0.00  0.00    -0.337 OA
BRANCH  40  44
ATOM     41  C   UNL     1       0.732   4.422  22.412  0.00  0.00    +0.041 C 
ATOM     42  C   UNL     1       1.678   5.041  23.439  0.00  0.00    +0.149 C 
ATOM     43  O   UNL     1       3.038   4.764  23.097  0.00  0.00    -0.343 OA
ATOM     44  C   UNL     1       3.471   3.420  23.354  0.00  0.00    +0.282 C 
ATOM     45  C   UNL     1       3.433   3.171  24.878  0.00  0.00    +0.201 C 
ATOM     46  C   UNL     1       1.988   3.357  25.371  0.00  0.00    +0.179 C 
ATOM     47  C   UNL     1       1.395   4.700  24.918  0.00  0.00    +0.174 C 
BRANCH  47  48
ATOM     48  O   UNL     1       1.970   5.731  25.737  0.00  0.00    -0.387 OA
ATOM     49  H   UNL     1       2.941   5.660  25.685  0.00  0.00    +0.210 HD
ENDBRANCH  47  48
BRANCH  46  50
ATOM     50  O   UNL     1       1.208   2.237  24.926  0.00  0.00    -0.386 OA
ATOM     51  H   UNL     1       1.764   1.652  24.389  0.00  0.00    +0.210 HD
ENDBRANCH  46  50
BRANCH  45  52
ATOM     52  O   UNL     1       3.877   1.860  25.249  0.00  0.00    -0.384 OA
ATOM     53  H   UNL     1       4.029   1.876  26.216  0.00  0.00    +0.210 HD
ENDBRANCH  45  52
ENDBRANCH  40  44
ENDBRANCH   1  40
TORSDOF 16
ENDMDL
MODEL 7
REMARK VINA RESULT:      -7.0      2.029      9.043
REMARK  Name = 
REMARK  17 active torsions:
REMARK  status: ('A' for Active; 'I' for Inactive)
REMARK    1  A    between atoms: C_1  and  C_2
REMARK    2  A    between atoms: C_4  and  O_53
REMARK    3  A    between atoms: C_6  and  O_52
REMARK    4  A    between atoms: C_8  and  O_51
REMARK    5  A    between atoms: C_10  and  O_13
REMARK    6  A    between atoms: O_13  and  C_14
REMARK    7  A    between atoms: C_16  and  O_50
REMARK    8  A    between atoms: C_18  and  O_49
REMARK    9  A    between atoms: C_20  and  C_47
REMARK   10  A    between atoms: C_23  and  O_25
REMARK   11  A    between atoms: O_25  and  C_26
REMARK   12  A    between atoms: C_28  and  O_46
REMARK   13  A    between atoms: C_33  and  C_38
REMARK   14  A    between atoms: C_34  and  O_37
REMARK   15  A    between atoms: C_40  and  O_45
REMARK   16  A    between atoms: C_41  and  O_44
REMARK   17  A    between atoms: C_47  and  O_48
REMARK                            x       y       z     vdW  Elec       q    Type
REMARK                         _______ _______ _______ _____ _____    ______ ____
ROOT
ATOM      1  C   UNL     1       5.595  -5.752  25.466  0.00  0.00    +0.221 C 
ATOM      2  C   UNL     1       6.846  -4.815  25.408  0.00  0.00    +0.340 C 
ATOM      3  O   UNL     1       6.750  -3.958  24.253  0.00  0.00    -0.331 OA
ATOM      4  C   UNL     1       6.697  -4.668  23.005  0.00  0.00    +0.179 C 
ATOM      5  C   UNL     1       5.496  -5.622  22.958  0.00  0.00    +0.177 C 
ATOM      6  C   UNL     1       5.564  -6.553  24.154  0.00  0.00    +0.180 C 
ENDROOT
BRANCH   6   7
ATOM      7  O   UNL     1       4.436  -7.442  24.113  0.00  0.00    -0.386 OA
ATOM      8  H   UNL     1       4.676  -8.177  24.714  0.00  0.00    +0.210 HD
ENDBRANCH   6   7
BRANCH   5   9
ATOM      9  O   UNL     1       5.488  -6.403  21.757  0.00  0.00    -0.386 OA
ATOM     10  H   UNL     1       5.847  -5.804  21.066  0.00  0.00    +0.210 HD
ENDBRANCH   5   9
BRANCH   4  11
ATOM     11  C   UNL     1       6.615  -3.671  21.838  0.00  0.00    +0.190 C 
BRANCH  11  12
ATOM     12  O   UNL     1       5.268  -3.406  21.455  0.00  0.00    -0.392 OA
ATOM     13  H   UNL     1       5.150  -3.750  20.542  0.00  0.00    +0.210 HD
ENDBRANCH  11  12
ENDBRANCH   4  11
BRANCH   2  14
ATOM     14  O   UNL     1       6.960  -3.997  26.605  0.00  0.00    -0.461 OA
BRANCH  14  15
ATOM     15  C   UNL     1       6.473  -2.711  26.513  0.00  0.00    +0.131 A 
ATOM     16  C   UNL     1       7.392  -1.690  26.226  0.00  0.00    +0.093 A 
ATOM     17  C   UNL     1       6.961  -0.383  25.932  0.00  0.00    +0.147 A 
ATOM     18  O   UNL     1       7.929   0.531  25.554  0.00  0.00    -0.451 OA
ATOM     19  C   UNL     1       7.520   1.770  25.088  0.00  0.00    +0.181 A 
ATOM     20  C   UNL     1       6.240   2.196  25.052  0.00  0.00    +0.208 A 
ATOM     21  C   UNL     1       5.179   1.288  25.584  0.00  0.00    +0.238 A 
ATOM     22  O   UNL     1       4.012   1.657  25.626  0.00  0.00    -0.283 OA
ATOM     23  C   UNL     1       5.607  -0.070  26.001  0.00  0.00    +0.109 A 
ATOM     24  C   UNL     1       4.707  -1.060  26.422  0.00  0.00    +0.135 A 
ATOM     25  C   UNL     1       5.137  -2.368  26.684  0.00  0.00    +0.092 A 
BRANCH  19  26
ATOM     26  C   UNL     1       8.620   2.646  24.632  0.00  0.00    +0.025 A 
ATOM     27  C   UNL     1       9.685   2.117  23.881  0.00  0.00    +0.015 A 
ATOM     28  C   UNL     1      10.684   2.955  23.370  0.00  0.00    +0.050 A 
ATOM     29  C   UNL     1      10.612   4.319  23.604  0.00  0.00    +0.158 A 
ATOM     30  C   UNL     1       9.558   4.859  24.334  0.00  0.00    +0.159 A 
ATOM     31  C   UNL     1       8.558   4.033  24.851  0.00  0.00    +0.060 A 
BRANCH  30  32
ATOM     32  O   UNL     1       9.539   6.217  24.500  0.00  0.00    -0.503 OA
ATOM     33  H   UNL     1       9.022   6.613  23.777  0.00  0.00    +0.292 HD
ENDBRANCH  30  32
BRANCH  29  34
ATOM     34  O   UNL     1      11.582   5.135  23.096  0.00  0.00    -0.503 OA
ATOM     35  H   UNL     1      12.421   4.652  23.244  0.00  0.00    +0.292 HD
ENDBRANCH  29  34
ENDBRANCH  19  26
BRANCH  24  36
ATOM     36  O   UNL     1       3.380  -0.777  26.569  0.00  0.00    -0.506 OA
ATOM     37  H   UNL     1       3.213   0.173  26.474  0.00  0.00    +0.292 HD
ENDBRANCH  24  36
BRANCH  20  38
ATOM     38  O   UNL     1       5.830   3.417  24.548  0.00  0.00    -0.501 OA
ATOM     39  H   UNL     1       4.929   3.616  24.850  0.00  0.00    +0.292 HD
ENDBRANCH  20  38
ENDBRANCH  14  15
ENDBRANCH   2  14
BRANCH   1  40
ATOM     40  O   UNL     1       5.571  -6.782  26.461  0.00  0.00    -0.337 OA
BRANCH  40  44
ATOM     41  C   UNL     1       1.800  -6.136  28.144  0.00  0.00    +0.041 C 
ATOM     42  C   UNL     1       2.953  -5.145  28.282  0.00  0.00    +0.149 C 
ATOM     43  O   UNL     1       3.977  -5.432  27.326  0.00  0.00    -0.343 OA
ATOM     44  C   UNL     1       4.789  -6.577  27.625  0.00  0.00    +0.282 C 
ATOM     45  C   UNL     1       5.584  -6.295  28.919  0.00  0.00    +0.201 C 
ATOM     46  C   UNL     1       4.587  -6.048  30.064  0.00  0.00    +0.179 C 
ATOM     47  C   UNL     1       3.544  -4.980  29.699  0.00  0.00    +0.174 C 
BRANCH  47  48
ATOM     48  O   UNL     1       4.186  -3.698  29.775  0.00  0.00    -0.387 OA
ATOM     49  H   UNL     1       4.780  -3.695  30.547  0.00  0.00    +0.210 HD
ENDBRANCH  47  48
BRANCH  46  50
ATOM     50  O   UNL     1       3.984  -7.301  30.421  0.00  0.00    -0.386 OA
ATOM     51  H   UNL     1       4.563  -7.770  31.043  0.00  0.00    +0.210 HD
ENDBRANCH  46  50
BRANCH  45  52
ATOM     52  O   UNL     1       6.454  -7.370  29.294  0.00  0.00    -0.384 OA
ATOM     53  H   UNL     1       6.694  -7.841  28.470  0.00  0.00    +0.210 HD
ENDBRANCH  45  52
ENDBRANCH  40  44
ENDBRANCH   1  40
TORSDOF 16
ENDMDL
MODEL 8
REMARK VINA RESULT:      -6.9      2.515      5.045
REMARK  Name = 
REMARK  17 active torsions:
REMARK  status: ('A' for Active; 'I' for Inactive)
REMARK    1  A    between atoms: C_1  and  C_2
REMARK    2  A    between atoms: C_4  and  O_53
REMARK    3  A    between atoms: C_6  and  O_52
REMARK    4  A    between atoms: C_8  and  O_51
REMARK    5  A    between atoms: C_10  and  O_13
REMARK    6  A    between atoms: O_13  and  C_14
REMARK    7  A    between atoms: C_16  and  O_50
REMARK    8  A    between atoms: C_18  and  O_49
REMARK    9  A    between atoms: C_20  and  C_47
REMARK   10  A    between atoms: C_23  and  O_25
REMARK   11  A    between atoms: O_25  and  C_26
REMARK   12  A    between atoms: C_28  and  O_46
REMARK   13  A    between atoms: C_33  and  C_38
REMARK   14  A    between atoms: C_34  and  O_37
REMARK   15  A    between atoms: C_40  and  O_45
REMARK   16  A    between atoms: C_41  and  O_44
REMARK   17  A    between atoms: C_47  and  O_48
REMARK                            x       y       z     vdW  Elec       q    Type
REMARK                         _______ _______ _______ _____ _____    ______ ____
ROOT
ATOM      1  C   UNL     1       5.715   3.931  26.564  0.00  0.00    +0.221 C 
ATOM      2  C   UNL     1       6.809   2.832  26.360  0.00  0.00    +0.340 C 
ATOM      3  O   UNL     1       6.883   2.004  27.538  0.00  0.00    -0.331 OA
ATOM      4  C   UNL     1       7.226   2.723  28.733  0.00  0.00    +0.179 C 
ATOM      5  C   UNL     1       6.207   3.833  29.027  0.00  0.00    +0.177 C 
ATOM      6  C   UNL     1       6.107   4.737  27.813  0.00  0.00    +0.180 C 
ENDROOT
BRANCH   6   7
ATOM      7  O   UNL     1       5.148   5.772  28.087  0.00  0.00    -0.386 OA
ATOM      8  H   UNL     1       4.874   5.618  29.015  0.00  0.00    +0.210 HD
ENDBRANCH   6   7
BRANCH   5   9
ATOM      9  O   UNL     1       6.592   4.615  30.164  0.00  0.00    -0.386 OA
ATOM     10  H   UNL     1       6.510   5.547  29.866  0.00  0.00    +0.210 HD
ENDBRANCH   5   9
BRANCH   4  11
ATOM     11  C   UNL     1       7.298   1.754  29.924  0.00  0.00    +0.190 C 
BRANCH  11  12
ATOM     12  O   UNL     1       8.614   1.242  30.117  0.00  0.00    -0.392 OA
ATOM     13  H   UNL     1       9.241   1.887  29.721  0.00  0.00    +0.210 HD
ENDBRANCH  11  12
ENDBRANCH   4  11
BRANCH   2  14
ATOM     14  O   UNL     1       6.523   1.998  25.203  0.00  0.00    -0.461 OA
BRANCH  14  15
ATOM     15  C   UNL     1       7.256   0.836  25.093  0.00  0.00    +0.131 A 
ATOM     16  C   UNL     1       6.588  -0.375  25.325  0.00  0.00    +0.093 A 
ATOM     17  C   UNL     1       7.205  -1.612  25.057  0.00  0.00    +0.147 A 
ATOM     18  O   UNL     1       6.433  -2.749  25.213  0.00  0.00    -0.451 OA
ATOM     19  C   UNL     1       6.952  -3.961  24.787  0.00  0.00    +0.181 A 
ATOM     20  C   UNL     1       8.200  -4.139  24.305  0.00  0.00    +0.208 A 
ATOM     21  C   UNL     1       9.111  -2.955  24.252  0.00  0.00    +0.238 A 
ATOM     22  O   UNL     1      10.270  -3.082  23.878  0.00  0.00    -0.283 OA
ATOM     23  C   UNL     1       8.527  -1.644  24.626  0.00  0.00    +0.109 A 
ATOM     24  C   UNL     1       9.234  -0.436  24.525  0.00  0.00    +0.135 A 
ATOM     25  C   UNL     1       8.606   0.794  24.765  0.00  0.00    +0.092 A 
BRANCH  19  26
ATOM     26  C   UNL     1       6.024  -5.104  24.919  0.00  0.00    +0.025 A 
ATOM     27  C   UNL     1       5.860  -5.748  26.159  0.00  0.00    +0.015 A 
ATOM     28  C   UNL     1       4.918  -6.772  26.312  0.00  0.00    +0.050 A 
ATOM     29  C   UNL     1       4.137  -7.146  25.230  0.00  0.00    +0.158 A 
ATOM     30  C   UNL     1       4.279  -6.510  24.001  0.00  0.00    +0.159 A 
ATOM     31  C   UNL     1       5.216  -5.490  23.835  0.00  0.00    +0.060 A 
BRANCH  30  32
ATOM     32  O   UNL     1       3.453  -6.913  22.987  0.00  0.00    -0.503 OA
ATOM     33  H   UNL     1       2.697  -6.302  22.938  0.00  0.00    +0.292 HD
ENDBRANCH  30  32
BRANCH  29  34
ATOM     34  O   UNL     1       3.213  -8.138  25.386  0.00  0.00    -0.503 OA
ATOM     35  H   UNL     1       3.300  -8.693  24.583  0.00  0.00    +0.292 HD
ENDBRANCH  29  34
ENDBRANCH  19  26
BRANCH  24  36
ATOM     36  O   UNL     1      10.552  -0.428  24.172  0.00  0.00    -0.506 OA
ATOM     37  H   UNL     1      11.084   0.056  24.822  0.00  0.00    +0.292 HD
ENDBRANCH  24  36
BRANCH  20  38
ATOM     38  O   UNL     1       8.701  -5.342  23.841  0.00  0.00    -0.501 OA
ATOM     39  H   UNL     1       8.950  -5.261  22.906  0.00  0.00    +0.292 HD
ENDBRANCH  20  38
ENDBRANCH  14  15
ENDBRANCH   2  14
BRANCH   1  40
ATOM     40  O   UNL     1       5.587   4.947  25.563  0.00  0.00    -0.337 OA
BRANCH  40  44
ATOM     41  C   UNL     1       9.409   6.042  24.274  0.00  0.00    +0.041 C 
ATOM     42  C   UNL     1       8.131   6.588  23.643  0.00  0.00    +0.149 C 
ATOM     43  O   UNL     1       7.008   6.344  24.495  0.00  0.00    -0.343 OA
ATOM     44  C   UNL     1       6.541   4.987  24.516  0.00  0.00    +0.282 C 
ATOM     45  C   UNL     1       6.005   4.625  23.114  0.00  0.00    +0.201 C 
ATOM     46  C   UNL     1       7.151   4.768  22.098  0.00  0.00    +0.179 C 
ATOM     47  C   UNL     1       7.840   6.137  22.195  0.00  0.00    +0.174 C 
BRANCH  47  48
ATOM     48  O   UNL     1       6.973   7.108  21.586  0.00  0.00    -0.387 OA
ATOM     49  H   UNL     1       7.081   7.052  20.618  0.00  0.00    +0.210 HD
ENDBRANCH  47  48
BRANCH  46  50
ATOM     50  O   UNL     1       8.068   3.680  22.291  0.00  0.00    -0.386 OA
ATOM     51  H   UNL     1       8.850   3.817  21.735  0.00  0.00    +0.210 HD
ENDBRANCH  46  50
BRANCH  45  52
ATOM     52  O   UNL     1       5.484   3.293  23.033  0.00  0.00    -0.384 OA
ATOM     53  H   UNL     1       6.172   2.747  22.600  0.00  0.00    +0.210 HD
ENDBRANCH  45  52
ENDBRANCH  40  44
ENDBRANCH   1  40
TORSDOF 16
ENDMDL
MODEL 9
REMARK VINA RESULT:      -6.8      2.102      2.888
REMARK  Name = 
REMARK  17 active torsions:
REMARK  status: ('A' for Active; 'I' for Inactive)
REMARK    1  A    between atoms: C_1  and  C_2
REMARK    2  A    between atoms: C_4  and  O_53
REMARK    3  A    between atoms: C_6  and  O_52
REMARK    4  A    between atoms: C_8  and  O_51
REMARK    5  A    between atoms: C_10  and  O_13
REMARK    6  A    between atoms: O_13  and  C_14
REMARK    7  A    between atoms: C_16  and  O_50
REMARK    8  A    between atoms: C_18  and  O_49
REMARK    9  A    between atoms: C_20  and  C_47
REMARK   10  A    between atoms: C_23  and  O_25
REMARK   11  A    between atoms: O_25  and  C_26
REMARK   12  A    between atoms: C_28  and  O_46
REMARK   13  A    between atoms: C_33  and  C_38
REMARK   14  A    between atoms: C_34  and  O_37
REMARK   15  A    between atoms: C_40  and  O_45
REMARK   16  A    between atoms: C_41  and  O_44
REMARK   17  A    between atoms: C_47  and  O_48
REMARK                            x       y       z     vdW  Elec       q    Type
REMARK                         _______ _______ _______ _____ _____    ______ ____
ROOT
ATOM      1  C   UNL     1       6.983   3.237  25.142  0.00  0.00    +0.221 C 
ATOM      2  C   UNL     1       7.136   3.303  23.587  0.00  0.00    +0.340 C 
ATOM      3  O   UNL     1       8.513   3.566  23.251  0.00  0.00    -0.331 OA
ATOM      4  C   UNL     1       9.012   4.807  23.776  0.00  0.00    +0.179 C 
ATOM      5  C   UNL     1       8.907   4.845  25.307  0.00  0.00    +0.177 C 
ATOM      6  C   UNL     1       7.466   4.583  25.704  0.00  0.00    +0.180 C 
ENDROOT
BRANCH   6   7
ATOM      7  O   UNL     1       7.370   4.613  27.138  0.00  0.00    -0.386 OA
ATOM      8  H   UNL     1       6.423   4.787  27.321  0.00  0.00    +0.210 HD
ENDBRANCH   6   7
BRANCH   5   9
ATOM      9  O   UNL     1       9.314   6.114  25.833  0.00  0.00    -0.386 OA
ATOM     10  H   UNL     1       9.219   6.739  25.082  0.00  0.00    +0.210 HD
ENDBRANCH   5   9
BRANCH   4  11
ATOM     11  C   UNL     1      10.475   5.005  23.350  0.00  0.00    +0.190 C 
BRANCH  11  12
ATOM     12  O   UNL     1      11.098   3.775  22.990  0.00  0.00    -0.392 OA
ATOM     13  H   UNL     1      12.027   3.978  22.743  0.00  0.00    +0.210 HD
ENDBRANCH  11  12
ENDBRANCH   4  11
BRANCH   2  14
ATOM     14  O   UNL     1       6.716   2.062  22.953  0.00  0.00    -0.461 OA
BRANCH  14  15
ATOM     15  C   UNL     1       7.414   0.929  23.310  0.00  0.00    +0.131 A 
ATOM     16  C   UNL     1       6.671  -0.175  23.755  0.00  0.00    +0.093 A 
ATOM     17  C   UNL     1       7.279  -1.427  23.963  0.00  0.00    +0.147 A 
ATOM     18  O   UNL     1       6.450  -2.484  24.296  0.00  0.00    -0.451 OA
ATOM     19  C   UNL     1       6.990  -3.759  24.332  0.00  0.00    +0.181 A 
ATOM     20  C   UNL     1       8.295  -4.049  24.151  0.00  0.00    +0.208 A 
ATOM     21  C   UNL     1       9.245  -2.917  23.928  0.00  0.00    +0.238 A 
ATOM     22  O   UNL     1      10.446  -3.129  23.818  0.00  0.00    -0.283 OA
ATOM     23  C   UNL     1       8.654  -1.562  23.803  0.00  0.00    +0.109 A 
ATOM     24  C   UNL     1       9.412  -0.423  23.491  0.00  0.00    +0.135 A 
ATOM     25  C   UNL     1       8.798   0.814  23.255  0.00  0.00    +0.092 A 
BRANCH  19  26
ATOM     26  C   UNL     1       6.011  -4.830  24.616  0.00  0.00    +0.025 A 
ATOM     27  C   UNL     1       5.136  -5.279  23.611  0.00  0.00    +0.015 A 
ATOM     28  C   UNL     1       4.269  -6.353  23.846  0.00  0.00    +0.050 A 
ATOM     29  C   UNL     1       4.282  -6.980  25.081  0.00  0.00    +0.158 A 
ATOM     30  C   UNL     1       5.152  -6.556  26.082  0.00  0.00    +0.159 A 
ATOM     31  C   UNL     1       6.019  -5.485  25.861  0.00  0.00    +0.060 A 
BRANCH  30  32
ATOM     32  O   UNL     1       5.129  -7.243  27.265  0.00  0.00    -0.503 OA
ATOM     33  H   UNL     1       4.895  -6.627  27.980  0.00  0.00    +0.292 HD
ENDBRANCH  30  32
BRANCH  29  34
ATOM     34  O   UNL     1       3.443  -8.032  25.304  0.00  0.00    -0.503 OA
ATOM     35  H   UNL     1       3.994  -8.705  25.753  0.00  0.00    +0.292 HD
ENDBRANCH  29  34
ENDBRANCH  19  26
BRANCH  24  36
ATOM     36  O   UNL     1      10.771  -0.497  23.391  0.00  0.00    -0.506 OA
ATOM     37  H   UNL     1      11.083  -1.403  23.535  0.00  0.00    +0.292 HD
ENDBRANCH  24  36
BRANCH  20  38
ATOM     38  O   UNL     1       8.825  -5.327  24.146  0.00  0.00    -0.501 OA
ATOM     39  H   UNL     1       8.204  -5.946  24.562  0.00  0.00    +0.292 HD
ENDBRANCH  20  38
ENDBRANCH  14  15
ENDBRANCH   2  14
BRANCH   1  40
ATOM     40  O   UNL     1       5.662   3.128  25.684  0.00  0.00    -0.337 OA
BRANCH  40  44
ATOM     41  C   UNL     1       6.892   1.397  29.284  0.00  0.00    +0.041 C 
ATOM     42  C   UNL     1       6.753   0.606  27.985  0.00  0.00    +0.149 C 
ATOM     43  O   UNL     1       6.681   1.491  26.865  0.00  0.00    -0.343 OA
ATOM     44  C   UNL     1       5.428   2.173  26.705  0.00  0.00    +0.282 C 
ATOM     45  C   UNL     1       4.331   1.129  26.400  0.00  0.00    +0.201 C 
ATOM     46  C   UNL     1       4.245   0.148  27.581  0.00  0.00    +0.179 C 
ATOM     47  C   UNL     1       5.617  -0.440  27.943  0.00  0.00    +0.174 C 
BRANCH  47  48
ATOM     48  O   UNL     1       5.947  -1.425  26.950  0.00  0.00    -0.387 OA
ATOM     49  H   UNL     1       6.707  -1.944  27.272  0.00  0.00    +0.210 HD
ENDBRANCH  47  48
BRANCH  46  50
ATOM     50  O   UNL     1       3.631   0.823  28.690  0.00  0.00    -0.386 OA
ATOM     51  H   UNL     1       4.277   0.918  29.406  0.00  0.00    +0.210 HD
ENDBRANCH  46  50
BRANCH  45  52
ATOM     52  O   UNL     1       3.038   1.710  26.193  0.00  0.00    -0.384 OA
ATOM     53  H   UNL     1       3.186   2.616  25.855  0.00  0.00    +0.210 HD
ENDBRANCH  45  52
ENDBRANCH  40  44
ENDBRANCH   1  40
TORSDOF 16
ENDMDL
