MODEL 1
REMARK VINA RESULT:      -7.6      0.000      0.000
REMARK  Name = 
REMARK  17 active torsions:
REMARK  status: ('A' for Active; 'I' for Inactive)
REMARK    1  A    between atoms: C_1  and  C_2
REMARK    2  A    between atoms: C_3  and  O_35
REMARK    3  A    between atoms: C_5  and  O_34
REMARK    4  A    between atoms: C_6  and  O_33
REMARK    5  A    between atoms: C_8  and  O_11
REMARK    6  A    between atoms: O_11  and  C_12
REMARK    7  A    between atoms: C_13  and  C_25
REMARK    8  A    between atoms: C_17  and  O_24
REMARK    9  A    between atoms: C_19  and  O_23
REMARK   10  A    between atoms: C_27  and  O_32
REMARK   11  A    between atoms: C_28  and  O_31
REMARK   12  A    between atoms: O_35  and  C_36
REMARK   13  A    between atoms: C_38  and  O_48
REMARK   14  A    between atoms: C_39  and  O_47
REMARK   15  A    between atoms: C_40  and  O_46
REMARK   16  A    between atoms: C_42  and  C_44
REMARK   17  A    between atoms: C_44  and  O_45
REMARK                            x       y       z     vdW  Elec       q    Type
REMARK                         _______ _______ _______ _____ _____    ______ ____
ROOT
ATOM      1  C   UNL     1       3.868  -0.210  27.124  0.00  0.00    +0.041 C 
ATOM      2  C   UNL     1       4.952   0.180  26.105  0.00  0.00    +0.151 C 
ATOM      3  O   UNL     1       5.865  -0.902  25.818  0.00  0.00    -0.334 OA
ATOM      4  C   UNL     1       6.700  -1.217  26.948  0.00  0.00    +0.339 C 
ATOM      5  C   UNL     1       7.618  -0.015  27.288  0.00  0.00    +0.214 C 
ATOM      6  C   UNL     1       6.723   1.170  27.645  0.00  0.00    +0.180 C 
ATOM      7  C   UNL     1       5.704   1.465  26.533  0.00  0.00    +0.181 C 
ENDROOT
BRANCH   5   8
ATOM      8  O   UNL     1       8.511   0.306  26.202  0.00  0.00    -0.383 OA
ATOM      9  H   UNL     1       9.287   0.721  26.617  0.00  0.00    +0.210 HD
ENDBRANCH   5   8
BRANCH   6  10
ATOM     10  O   UNL     1       7.528   2.337  27.884  0.00  0.00    -0.386 OA
ATOM     11  H   UNL     1       6.925   2.955  28.341  0.00  0.00    +0.210 HD
ENDBRANCH   6  10
BRANCH   7  12
ATOM     12  O   UNL     1       6.445   2.104  25.468  0.00  0.00    -0.340 OA
BRANCH  12  13
ATOM     13  C   UNL     1       6.339   1.521  24.168  0.00  0.00    +0.282 C 
ATOM     14  O   UNL     1       7.661   1.320  23.639  0.00  0.00    -0.341 OA
ATOM     15  C   UNL     1       8.412   2.532  23.480  0.00  0.00    +0.178 C 
ATOM     16  C   UNL     1       7.674   3.533  22.565  0.00  0.00    +0.177 C 
ATOM     17  C   UNL     1       6.238   3.744  23.063  0.00  0.00    +0.179 C 
ATOM     18  C   UNL     1       5.541   2.384  23.170  0.00  0.00    +0.201 C 
BRANCH  18  19
ATOM     19  O   UNL     1       4.162   2.544  23.523  0.00  0.00    -0.384 OA
ATOM     20  H   UNL     1       3.706   1.722  23.250  0.00  0.00    +0.210 HD
ENDBRANCH  18  19
BRANCH  17  21
ATOM     21  O   UNL     1       5.480   4.604  22.203  0.00  0.00    -0.386 OA
ATOM     22  H   UNL     1       5.482   4.222  21.306  0.00  0.00    +0.210 HD
ENDBRANCH  17  21
BRANCH  16  23
ATOM     23  O   UNL     1       8.391   4.768  22.477  0.00  0.00    -0.386 OA
ATOM     24  H   UNL     1       8.355   5.207  23.347  0.00  0.00    +0.210 HD
ENDBRANCH  16  23
BRANCH  15  25
ATOM     25  C   UNL     1       9.792   2.175  22.904  0.00  0.00    +0.190 C 
BRANCH  25  26
ATOM     26  O   UNL     1       9.809   2.184  21.481  0.00  0.00    -0.392 OA
ATOM     27  H   UNL     1       9.632   1.267  21.182  0.00  0.00    +0.210 HD
ENDBRANCH  25  26
ENDBRANCH  15  25
ENDBRANCH  12  13
ENDBRANCH   7  12
BRANCH   4  28
ATOM     28  O   UNL     1       7.479  -2.406  26.751  0.00  0.00    -0.453 OA
BRANCH  28  29
ATOM     29  C   UNL     1       6.783  -3.521  26.262  0.00  0.00    +0.214 A 
ATOM     30  C   UNL     1       5.996  -4.429  27.170  0.00  0.00    +0.238 A 
ATOM     31  O   UNL     1       6.109  -4.412  28.392  0.00  0.00    -0.283 OA
ATOM     32  C   UNL     1       5.129  -5.431  26.577  0.00  0.00    +0.109 A 
ATOM     33  C   UNL     1       5.269  -5.669  25.217  0.00  0.00    +0.147 A 
ATOM     34  C   UNL     1       4.542  -6.711  24.637  0.00  0.00    +0.092 A 
ATOM     35  C   UNL     1       3.701  -7.488  25.439  0.00  0.00    +0.124 A 
ATOM     36  C   UNL     1       3.542  -7.236  26.796  0.00  0.00    +0.091 A 
ATOM     37  O   UNL     1       6.103  -4.931  24.409  0.00  0.00    -0.451 OA
ATOM     38  C   UNL     1       4.251  -6.192  27.368  0.00  0.00    +0.135 A 
ATOM     39  C   UNL     1       6.810  -3.854  24.950  0.00  0.00    +0.181 A 
BRANCH  39  40
ATOM     40  C   UNL     1       7.604  -3.091  23.931  0.00  0.00    +0.025 A 
ATOM     41  C   UNL     1       6.957  -2.364  22.909  0.00  0.00    +0.015 A 
ATOM     42  C   UNL     1       7.679  -1.619  21.961  0.00  0.00    +0.050 A 
ATOM     43  C   UNL     1       9.060  -1.595  22.027  0.00  0.00    +0.158 A 
ATOM     44  C   UNL     1       9.728  -2.324  23.002  0.00  0.00    +0.159 A 
ATOM     45  C   UNL     1       9.016  -3.079  23.934  0.00  0.00    +0.060 A 
BRANCH  44  46
ATOM     46  O   UNL     1      11.096  -2.260  23.013  0.00  0.00    -0.503 OA
ATOM     47  H   UNL     1      11.434  -3.010  22.491  0.00  0.00    +0.292 HD
ENDBRANCH  44  46
BRANCH  43  48
ATOM     48  O   UNL     1       9.764  -0.842  21.132  0.00  0.00    -0.503 OA
ATOM     49  H   UNL     1       9.619   0.082  21.423  0.00  0.00    +0.292 HD
ENDBRANCH  43  48
ENDBRANCH  39  40
BRANCH  38  50
ATOM     50  O   UNL     1       4.060  -5.916  28.691  0.00  0.00    -0.506 OA
ATOM     51  H   UNL     1       4.792  -5.385  29.041  0.00  0.00    +0.292 HD
ENDBRANCH  38  50
BRANCH  35  52
ATOM     52  O   UNL     1       2.987  -8.536  24.938  0.00  0.00    -0.507 OA
ATOM     53  H   UNL     1       3.576  -9.094  24.403  0.00  0.00    +0.292 HD
ENDBRANCH  35  52
ENDBRANCH  28  29
ENDBRANCH   4  28
TORSDOF 16
ENDMDL
MODEL 2
REMARK VINA RESULT:      -7.4      1.908      7.217
REMARK  Name = 
REMARK  17 active torsions:
REMARK  status: ('A' for Active; 'I' for Inactive)
REMARK    1  A    between atoms: C_1  and  C_2
REMARK    2  A    between atoms: C_3  and  O_35
REMARK    3  A    between atoms: C_5  and  O_34
REMARK    4  A    between atoms: C_6  and  O_33
REMARK    5  A    between atoms: C_8  and  O_11
REMARK    6  A    between atoms: O_11  and  C_12
REMARK    7  A    between atoms: C_13  and  C_25
REMARK    8  A    between atoms: C_17  and  O_24
REMARK    9  A    between atoms: C_19  and  O_23
REMARK   10  A    between atoms: C_27  and  O_32
REMARK   11  A    between atoms: C_28  and  O_31
REMARK   12  A    between atoms: O_35  and  C_36
REMARK   13  A    between atoms: C_38  and  O_48
REMARK   14  A    between atoms: C_39  and  O_47
REMARK   15  A    between atoms: C_40  and  O_46
REMARK   16  A    between atoms: C_42  and  C_44
REMARK   17  A    between atoms: C_44  and  O_45
REMARK                            x       y       z     vdW  Elec       q    Type
REMARK                         _______ _______ _______ _____ _____    ______ ____
ROOT
ATOM      1  C   UNL     1       8.397  -2.632  22.273  0.00  0.00    +0.041 C 
ATOM      2  C   UNL     1       7.354  -3.101  23.301  0.00  0.00    +0.151 C 
ATOM      3  O   UNL     1       7.137  -2.140  24.357  0.00  0.00    -0.334 OA
ATOM      4  C   UNL     1       8.284  -2.018  25.219  0.00  0.00    +0.339 C 
ATOM      5  C   UNL     1       8.544  -3.356  25.959  0.00  0.00    +0.214 C 
ATOM      6  C   UNL     1       8.824  -4.425  24.905  0.00  0.00    +0.180 C 
ATOM      7  C   UNL     1       7.696  -4.504  23.864  0.00  0.00    +0.181 C 
ENDROOT
BRANCH   5   8
ATOM      8  O   UNL     1       7.439  -3.726  26.807  0.00  0.00    -0.383 OA
ATOM      9  H   UNL     1       7.273  -2.951  27.372  0.00  0.00    +0.210 HD
ENDBRANCH   5   8
BRANCH   6  10
ATOM     10  O   UNL     1       8.985  -5.706  25.539  0.00  0.00    -0.386 OA
ATOM     11  H   UNL     1       8.777  -5.536  26.479  0.00  0.00    +0.210 HD
ENDBRANCH   6  10
BRANCH   7  12
ATOM     12  O   UNL     1       6.591  -5.168  24.518  0.00  0.00    -0.340 OA
BRANCH  12  13
ATOM     13  C   UNL     1       5.282  -4.666  24.246  0.00  0.00    +0.282 C 
ATOM     14  O   UNL     1       4.680  -4.242  25.482  0.00  0.00    -0.341 OA
ATOM     15  C   UNL     1       4.517  -5.298  26.438  0.00  0.00    +0.178 C 
ATOM     16  C   UNL     1       3.671  -6.452  25.861  0.00  0.00    +0.177 C 
ATOM     17  C   UNL     1       4.248  -6.908  24.514  0.00  0.00    +0.179 C 
ATOM     18  C   UNL     1       4.351  -5.699  23.579  0.00  0.00    +0.201 C 
BRANCH  18  19
ATOM     19  O   UNL     1       4.780  -6.099  22.273  0.00  0.00    -0.384 OA
ATOM     20  H   UNL     1       5.246  -5.331  21.884  0.00  0.00    +0.210 HD
ENDBRANCH  18  19
BRANCH  17  21
ATOM     21  O   UNL     1       3.453  -7.926  23.892  0.00  0.00    -0.386 OA
ATOM     22  H   UNL     1       2.852  -8.300  24.562  0.00  0.00    +0.210 HD
ENDBRANCH  17  21
BRANCH  16  23
ATOM     23  O   UNL     1       3.580  -7.535  26.792  0.00  0.00    -0.386 OA
ATOM     24  H   UNL     1       4.101  -7.303  27.584  0.00  0.00    +0.210 HD
ENDBRANCH  16  23
BRANCH  15  25
ATOM     25  C   UNL     1       3.860  -4.712  27.699  0.00  0.00    +0.190 C 
BRANCH  25  26
ATOM     26  O   UNL     1       4.802  -4.092  28.568  0.00  0.00    -0.392 OA
ATOM     27  H   UNL     1       5.625  -4.624  28.532  0.00  0.00    +0.210 HD
ENDBRANCH  25  26
ENDBRANCH  15  25
ENDBRANCH  12  13
ENDBRANCH   7  12
BRANCH   4  28
ATOM     28  O   UNL     1       8.164  -0.939  26.156  0.00  0.00    -0.453 OA
BRANCH  28  29
ATOM     29  C   UNL     1       6.945  -0.247  26.142  0.00  0.00    +0.214 A 
ATOM     30  C   UNL     1       5.780  -0.671  26.998  0.00  0.00    +0.238 A 
ATOM     31  O   UNL     1       5.723  -1.761  27.556  0.00  0.00    -0.283 OA
ATOM     32  C   UNL     1       4.629   0.209  27.097  0.00  0.00    +0.109 A 
ATOM     33  C   UNL     1       4.556   1.266  26.200  0.00  0.00    +0.147 A 
ATOM     34  C   UNL     1       3.405   2.057  26.184  0.00  0.00    +0.092 A 
ATOM     35  C   UNL     1       2.359   1.762  27.063  0.00  0.00    +0.124 A 
ATOM     36  C   UNL     1       2.440   0.720  27.977  0.00  0.00    +0.091 A 
ATOM     37  O   UNL     1       5.563   1.566  25.313  0.00  0.00    -0.451 OA
ATOM     38  C   UNL     1       3.588  -0.055  28.005  0.00  0.00    +0.135 A 
ATOM     39  C   UNL     1       6.745   0.821  25.334  0.00  0.00    +0.181 A 
BRANCH  39  40
ATOM     40  C   UNL     1       7.783   1.323  24.375  0.00  0.00    +0.025 A 
ATOM     41  C   UNL     1       8.852   2.129  24.824  0.00  0.00    +0.015 A 
ATOM     42  C   UNL     1       9.851   2.586  23.949  0.00  0.00    +0.050 A 
ATOM     43  C   UNL     1       9.790   2.242  22.610  0.00  0.00    +0.158 A 
ATOM     44  C   UNL     1       8.736   1.475  22.131  0.00  0.00    +0.159 A 
ATOM     45  C   UNL     1       7.732   1.034  22.994  0.00  0.00    +0.060 A 
BRANCH  44  46
ATOM     46  O   UNL     1       8.732   1.169  20.797  0.00  0.00    -0.503 OA
ATOM     47  H   UNL     1       9.050   1.952  20.310  0.00  0.00    +0.292 HD
ENDBRANCH  44  46
BRANCH  43  48
ATOM     48  O   UNL     1      10.779   2.652  21.764  0.00  0.00    -0.503 OA
ATOM     49  H   UNL     1      10.636   3.615  21.669  0.00  0.00    +0.292 HD
ENDBRANCH  43  48
ENDBRANCH  39  40
BRANCH  38  50
ATOM     50  O   UNL     1       3.687  -1.050  28.933  0.00  0.00    -0.506 OA
ATOM     51  H   UNL     1       4.140  -0.734  29.730  0.00  0.00    +0.292 HD
ENDBRANCH  38  50
BRANCH  35  52
ATOM     52  O   UNL     1       1.199   2.479  27.075  0.00  0.00    -0.507 OA
ATOM     53  H   UNL     1       0.886   2.592  26.163  0.00  0.00    +0.292 HD
ENDBRANCH  35  52
ENDBRANCH  28  29
ENDBRANCH   4  28
TORSDOF 16
ENDMDL
MODEL 3
REMARK VINA RESULT:      -7.3      1.891      8.737
REMARK  Name = 
REMARK  17 active torsions:
REMARK  status: ('A' for Active; 'I' for Inactive)
REMARK    1  A    between atoms: C_1  and  C_2
REMARK    2  A    between atoms: C_3  and  O_35
REMARK    3  A    between atoms: C_5  and  O_34
REMARK    4  A    between atoms: C_6  and  O_33
REMARK    5  A    between atoms: C_8  and  O_11
REMARK    6  A    between atoms: O_11  and  C_12
REMARK    7  A    between atoms: C_13  and  C_25
REMARK    8  A    between atoms: C_17  and  O_24
REMARK    9  A    between atoms: C_19  and  O_23
REMARK   10  A    between atoms: C_27  and  O_32
REMARK   11  A    between atoms: C_28  and  O_31
REMARK   12  A    between atoms: O_35  and  C_36
REMARK   13  A    between atoms: C_38  and  O_48
REMARK   14  A    between atoms: C_39  and  O_47
REMARK   15  A    between atoms: C_40  and  O_46
REMARK   16  A    between atoms: C_42  and  C_44
REMARK   17  A    between atoms: C_44  and  O_45
REMARK                            x       y       z     vdW  Elec       q    Type
REMARK                         _______ _______ _______ _____ _____    ______ ____
ROOT
ATOM      1  C   UNL     1       8.380  -2.297  22.132  0.00  0.00    +0.041 C 
ATOM      2  C   UNL     1       7.467  -2.902  23.211  0.00  0.00    +0.151 C 
ATOM      3  O   UNL     1       7.363  -2.070  24.387  0.00  0.00    -0.334 OA
ATOM      4  C   UNL     1       8.600  -2.017  25.122  0.00  0.00    +0.339 C 
ATOM      5  C   UNL     1       8.957  -3.422  25.671  0.00  0.00    +0.214 C 
ATOM      6  C   UNL     1       9.126  -4.361  24.479  0.00  0.00    +0.180 C 
ATOM      7  C   UNL     1       7.886  -4.350  23.570  0.00  0.00    +0.181 C 
ENDROOT
BRANCH   5   8
ATOM      8  O   UNL     1       7.961  -3.911  26.592  0.00  0.00    -0.383 OA
ATOM      9  H   UNL     1       8.168  -4.852  26.725  0.00  0.00    +0.210 HD
ENDBRANCH   5   8
BRANCH   6  10
ATOM     10  O   UNL     1       9.373  -5.700  24.942  0.00  0.00    -0.386 OA
ATOM     11  H   UNL     1       9.209  -6.259  24.157  0.00  0.00    +0.210 HD
ENDBRANCH   6  10
BRANCH   7  12
ATOM     12  O   UNL     1       6.871  -5.109  24.265  0.00  0.00    -0.340 OA
BRANCH  12  13
ATOM     13  C   UNL     1       5.533  -4.617  24.191  0.00  0.00    +0.282 C 
ATOM     14  O   UNL     1       5.117  -4.198  25.503  0.00  0.00    -0.341 OA
ATOM     15  C   UNL     1       5.107  -5.255  26.472  0.00  0.00    +0.178 C 
ATOM     16  C   UNL     1       4.193  -6.416  26.026  0.00  0.00    +0.177 C 
ATOM     17  C   UNL     1       4.568  -6.868  24.607  0.00  0.00    +0.179 C 
ATOM     18  C   UNL     1       4.521  -5.658  23.669  0.00  0.00    +0.201 C 
BRANCH  18  19
ATOM     19  O   UNL     1       4.754  -6.054  22.313  0.00  0.00    -0.384 OA
ATOM     20  H   UNL     1       5.003  -5.244  21.823  0.00  0.00    +0.210 HD
ENDBRANCH  18  19
BRANCH  17  21
ATOM     21  O   UNL     1       3.697  -7.892  24.110  0.00  0.00    -0.386 OA
ATOM     22  H   UNL     1       4.161  -8.746  24.167  0.00  0.00    +0.210 HD
ENDBRANCH  17  21
BRANCH  16  23
ATOM     23  O   UNL     1       4.251  -7.500  26.959  0.00  0.00    -0.386 OA
ATOM     24  H   UNL     1       3.745  -7.248  27.754  0.00  0.00    +0.210 HD
ENDBRANCH  16  23
BRANCH  15  25
ATOM     25  C   UNL     1       4.640  -4.674  27.817  0.00  0.00    +0.190 C 
BRANCH  25  26
ATOM     26  O   UNL     1       3.228  -4.517  27.884  0.00  0.00    -0.392 OA
ATOM     27  H   UNL     1       2.834  -5.415  27.872  0.00  0.00    +0.210 HD
ENDBRANCH  25  26
ENDBRANCH  15  25
ENDBRANCH  12  13
ENDBRANCH   7  12
BRANCH   4  28
ATOM     28  O   UNL     1       8.577  -1.052  26.183  0.00  0.00    -0.453 OA
BRANCH  28  29
ATOM     29  C   UNL     1       8.335   0.275  25.799  0.00  0.00    +0.214 A 
ATOM     30  C   UNL     1       9.385   1.109  25.112  0.00  0.00    +0.238 A 
ATOM     31  O   UNL     1      10.568   0.788  25.068  0.00  0.00    -0.283 OA
ATOM     32  C   UNL     1       9.003   2.393  24.553  0.00  0.00    +0.109 A 
ATOM     33  C   UNL     1       7.759   2.896  24.905  0.00  0.00    +0.147 A 
ATOM     34  C   UNL     1       7.409   4.182  24.488  0.00  0.00    +0.092 A 
ATOM     35  C   UNL     1       8.320   4.928  23.734  0.00  0.00    +0.124 A 
ATOM     36  C   UNL     1       9.556   4.417  23.360  0.00  0.00    +0.091 A 
ATOM     37  O   UNL     1       6.852   2.189  25.661  0.00  0.00    -0.451 OA
ATOM     38  C   UNL     1       9.896   3.135  23.761  0.00  0.00    +0.135 A 
ATOM     39  C   UNL     1       7.153   0.884  26.057  0.00  0.00    +0.181 A 
BRANCH  39  40
ATOM     40  C   UNL     1       6.033   0.211  26.794  0.00  0.00    +0.025 A 
ATOM     41  C   UNL     1       5.893   0.366  28.190  0.00  0.00    +0.015 A 
ATOM     42  C   UNL     1       4.836  -0.230  28.898  0.00  0.00    +0.050 A 
ATOM     43  C   UNL     1       3.907  -0.992  28.213  0.00  0.00    +0.158 A 
ATOM     44  C   UNL     1       4.033  -1.189  26.844  0.00  0.00    +0.159 A 
ATOM     45  C   UNL     1       5.091  -0.613  26.141  0.00  0.00    +0.060 A 
BRANCH  44  46
ATOM     46  O   UNL     1       3.082  -1.955  26.225  0.00  0.00    -0.503 OA
ATOM     47  H   UNL     1       2.207  -1.608  26.478  0.00  0.00    +0.292 HD
ENDBRANCH  44  46
BRANCH  43  48
ATOM     48  O   UNL     1       2.857  -1.542  28.890  0.00  0.00    -0.503 OA
ATOM     49  H   UNL     1       2.139  -1.597  28.226  0.00  0.00    +0.292 HD
ENDBRANCH  43  48
ENDBRANCH  39  40
BRANCH  38  50
ATOM     50  O   UNL     1      11.091   2.616  23.355  0.00  0.00    -0.506 OA
ATOM     51  H   UNL     1      11.783   2.788  24.014  0.00  0.00    +0.292 HD
ENDBRANCH  38  50
BRANCH  35  52
ATOM     52  O   UNL     1       8.048   6.199  23.321  0.00  0.00    -0.507 OA
ATOM     53  H   UNL     1       8.080   6.231  22.351  0.00  0.00    +0.292 HD
ENDBRANCH  35  52
ENDBRANCH  28  29
ENDBRANCH   4  28
TORSDOF 16
ENDMDL
MODEL 4
REMARK VINA RESULT:      -7.1      1.916      2.936
REMARK  Name = 
REMARK  17 active torsions:
REMARK  status: ('A' for Active; 'I' for Inactive)
REMARK    1  A    between atoms: C_1  and  C_2
REMARK    2  A    between atoms: C_3  and  O_35
REMARK    3  A    between atoms: C_5  and  O_34
REMARK    4  A    between atoms: C_6  and  O_33
REMARK    5  A    between atoms: C_8  and  O_11
REMARK    6  A    between atoms: O_11  and  C_12
REMARK    7  A    between atoms: C_13  and  C_25
REMARK    8  A    between atoms: C_17  and  O_24
REMARK    9  A    between atoms: C_19  and  O_23
REMARK   10  A    between atoms: C_27  and  O_32
REMARK   11  A    between atoms: C_28  and  O_31
REMARK   12  A    between atoms: O_35  and  C_36
REMARK   13  A    between atoms: C_38  and  O_48
REMARK   14  A    between atoms: C_39  and  O_47
REMARK   15  A    between atoms: C_40  and  O_46
REMARK   16  A    between atoms: C_42  and  C_44
REMARK   17  A    between atoms: C_44  and  O_45
REMARK                            x       y       z     vdW  Elec       q    Type
REMARK                         _______ _______ _______ _____ _____    ______ ____
ROOT
ATOM      1  C   UNL     1       3.796  -0.515  27.183  0.00  0.00    +0.041 C 
ATOM      2  C   UNL     1       4.595   0.431  26.272  0.00  0.00    +0.151 C 
ATOM      3  O   UNL     1       5.833  -0.152  25.809  0.00  0.00    -0.334 OA
ATOM      4  C   UNL     1       6.785  -0.317  26.876  0.00  0.00    +0.339 C 
ATOM      5  C   UNL     1       7.196   1.066  27.446  0.00  0.00    +0.214 C 
ATOM      6  C   UNL     1       5.939   1.737  27.997  0.00  0.00    +0.180 C 
ATOM      7  C   UNL     1       4.826   1.810  26.939  0.00  0.00    +0.181 C 
ENDROOT
BRANCH   5   8
ATOM      8  O   UNL     1       7.841   1.888  26.452  0.00  0.00    -0.383 OA
ATOM      9  H   UNL     1       8.393   1.280  25.930  0.00  0.00    +0.210 HD
ENDBRANCH   5   8
BRANCH   6  10
ATOM     10  O   UNL     1       6.255   3.062  28.459  0.00  0.00    -0.386 OA
ATOM     11  H   UNL     1       5.599   3.633  28.012  0.00  0.00    +0.210 HD
ENDBRANCH   6  10
BRANCH   7  12
ATOM     12  O   UNL     1       5.212   2.859  26.022  0.00  0.00    -0.340 OA
BRANCH  12  13
ATOM     13  C   UNL     1       5.267   2.517  24.636  0.00  0.00    +0.282 C 
ATOM     14  O   UNL     1       6.510   2.990  24.088  0.00  0.00    -0.341 OA
ATOM     15  C   UNL     1       6.671   4.413  24.161  0.00  0.00    +0.178 C 
ATOM     16  C   UNL     1       5.518   5.145  23.441  0.00  0.00    +0.177 C 
ATOM     17  C   UNL     1       4.165   4.638  23.959  0.00  0.00    +0.179 C 
ATOM     18  C   UNL     1       4.111   3.114  23.808  0.00  0.00    +0.201 C 
BRANCH  18  19
ATOM     19  O   UNL     1       2.822   2.610  24.175  0.00  0.00    -0.384 OA
ATOM     20  H   UNL     1       2.749   1.716  23.782  0.00  0.00    +0.210 HD
ENDBRANCH  18  19
BRANCH  17  21
ATOM     21  O   UNL     1       3.057   5.226  23.266  0.00  0.00    -0.386 OA
ATOM     22  H   UNL     1       2.233   4.911  23.679  0.00  0.00    +0.210 HD
ENDBRANCH  17  21
BRANCH  16  23
ATOM     23  O   UNL     1       5.643   6.563  23.587  0.00  0.00    -0.386 OA
ATOM     24  H   UNL     1       5.591   6.968  22.700  0.00  0.00    +0.210 HD
ENDBRANCH  16  23
BRANCH  15  25
ATOM     25  C   UNL     1       8.028   4.780  23.539  0.00  0.00    +0.190 C 
BRANCH  25  26
ATOM     26  O   UNL     1       7.943   5.005  22.136  0.00  0.00    -0.392 OA
ATOM     27  H   UNL     1       8.603   4.420  21.707  0.00  0.00    +0.210 HD
ENDBRANCH  25  26
ENDBRANCH  15  25
ENDBRANCH  12  13
ENDBRANCH   7  12
BRANCH   4  28
ATOM     28  O   UNL     1       7.943  -1.063  26.480  0.00  0.00    -0.453 OA
BRANCH  28  29
ATOM     29  C   UNL     1       7.749  -1.998  25.452  0.00  0.00    +0.214 A 
ATOM     30  C   UNL     1       7.116  -3.341  25.708  0.00  0.00    +0.238 A 
ATOM     31  O   UNL     1       6.964  -3.804  26.834  0.00  0.00    -0.283 OA
ATOM     32  C   UNL     1       6.750  -4.169  24.573  0.00  0.00    +0.109 A 
ATOM     33  C   UNL     1       7.234  -3.792  23.328  0.00  0.00    +0.147 A 
ATOM     34  C   UNL     1       7.006  -4.631  22.235  0.00  0.00    +0.092 A 
ATOM     35  C   UNL     1       6.305  -5.826  22.423  0.00  0.00    +0.124 A 
ATOM     36  C   UNL     1       5.799  -6.192  23.664  0.00  0.00    +0.091 A 
ATOM     37  O   UNL     1       7.942  -2.631  23.119  0.00  0.00    -0.451 OA
ATOM     38  C   UNL     1       6.011  -5.352  24.745  0.00  0.00    +0.135 A 
ATOM     39  C   UNL     1       8.148  -1.749  24.183  0.00  0.00    +0.181 A 
BRANCH  39  40
ATOM     40  C   UNL     1       8.855  -0.488  23.783  0.00  0.00    +0.025 A 
ATOM     41  C   UNL     1       9.998  -0.048  24.485  0.00  0.00    +0.015 A 
ATOM     42  C   UNL     1      10.693   1.114  24.110  0.00  0.00    +0.050 A 
ATOM     43  C   UNL     1      10.249   1.851  23.027  0.00  0.00    +0.158 A 
ATOM     44  C   UNL     1       9.110   1.461  22.334  0.00  0.00    +0.159 A 
ATOM     45  C   UNL     1       8.407   0.317  22.714  0.00  0.00    +0.060 A 
BRANCH  44  46
ATOM     46  O   UNL     1       8.721   2.233  21.272  0.00  0.00    -0.503 OA
ATOM     47  H   UNL     1       9.378   2.945  21.163  0.00  0.00    +0.292 HD
ENDBRANCH  44  46
BRANCH  43  48
ATOM     48  O   UNL     1      10.943   2.959  22.636  0.00  0.00    -0.503 OA
ATOM     49  H   UNL     1      11.759   2.940  23.176  0.00  0.00    +0.292 HD
ENDBRANCH  43  48
ENDBRANCH  39  40
BRANCH  38  50
ATOM     50  O   UNL     1       5.475  -5.690  25.954  0.00  0.00    -0.506 OA
ATOM     51  H   UNL     1       4.593  -6.077  25.843  0.00  0.00    +0.292 HD
ENDBRANCH  38  50
BRANCH  35  52
ATOM     52  O   UNL     1       6.075  -6.700  21.402  0.00  0.00    -0.507 OA
ATOM     53  H   UNL     1       5.242  -7.170  21.568  0.00  0.00    +0.292 HD
ENDBRANCH  35  52
ENDBRANCH  28  29
ENDBRANCH   4  28
TORSDOF 16
ENDMDL
MODEL 5
REMARK VINA RESULT:      -6.8      1.321      2.470
REMARK  Name = 
REMARK  17 active torsions:
REMARK  status: ('A' for Active; 'I' for Inactive)
REMARK    1  A    between atoms: C_1  and  C_2
REMARK    2  A    between atoms: C_3  and  O_35
REMARK    3  A    between atoms: C_5  and  O_34
REMARK    4  A    between atoms: C_6  and  O_33
REMARK    5  A    between atoms: C_8  and  O_11
REMARK    6  A    between atoms: O_11  and  C_12
REMARK    7  A    between atoms: C_13  and  C_25
REMARK    8  A    between atoms: C_17  and  O_24
REMARK    9  A    between atoms: C_19  and  O_23
REMARK   10  A    between atoms: C_27  and  O_32
REMARK   11  A    between atoms: C_28  and  O_31
REMARK   12  A    between atoms: O_35  and  C_36
REMARK   13  A    between atoms: C_38  and  O_48
REMARK   14  A    between atoms: C_39  and  O_47
REMARK   15  A    between atoms: C_40  and  O_46
REMARK   16  A    between atoms: C_42  and  C_44
REMARK   17  A    between atoms: C_44  and  O_45
REMARK                            x       y       z     vdW  Elec       q    Type
REMARK                         _______ _______ _______ _____ _____    ______ ____
ROOT
ATOM      1  C   UNL     1       4.067  -0.295  27.939  0.00  0.00    +0.041 C 
ATOM      2  C   UNL     1       4.896   0.292  26.785  0.00  0.00    +0.151 C 
ATOM      3  O   UNL     1       5.825  -0.662  26.222  0.00  0.00    -0.334 OA
ATOM      4  C   UNL     1       6.887  -0.987  27.139  0.00  0.00    +0.339 C 
ATOM      5  C   UNL     1       7.748   0.270  27.428  0.00  0.00    +0.214 C 
ATOM      6  C   UNL     1       6.842   1.320  28.066  0.00  0.00    +0.180 C 
ATOM      7  C   UNL     1       5.606   1.605  27.199  0.00  0.00    +0.181 C 
ENDROOT
BRANCH   5   8
ATOM      8  O   UNL     1       8.384   0.774  26.236  0.00  0.00    -0.383 OA
ATOM      9  H   UNL     1       9.292   0.426  26.258  0.00  0.00    +0.210 HD
ENDBRANCH   5   8
BRANCH   6  10
ATOM     10  O   UNL     1       7.577   2.539  28.274  0.00  0.00    -0.386 OA
ATOM     11  H   UNL     1       7.150   2.947  29.053  0.00  0.00    +0.210 HD
ENDBRANCH   6  10
BRANCH   7  12
ATOM     12  O   UNL     1       6.070   2.407  26.089  0.00  0.00    -0.340 OA
BRANCH  12  13
ATOM     13  C   UNL     1       5.623   3.762  26.040  0.00  0.00    +0.282 C 
ATOM     14  O   UNL     1       4.573   3.872  25.063  0.00  0.00    -0.341 OA
ATOM     15  C   UNL     1       4.983   3.532  23.731  0.00  0.00    +0.178 C 
ATOM     16  C   UNL     1       6.165   4.409  23.267  0.00  0.00    +0.177 C 
ATOM     17  C   UNL     1       7.296   4.363  24.304  0.00  0.00    +0.179 C 
ATOM     18  C   UNL     1       6.736   4.765  25.672  0.00  0.00    +0.201 C 
BRANCH  18  19
ATOM     19  O   UNL     1       7.782   4.845  26.648  0.00  0.00    -0.384 OA
ATOM     20  H   UNL     1       7.392   5.266  27.441  0.00  0.00    +0.210 HD
ENDBRANCH  18  19
BRANCH  17  21
ATOM     21  O   UNL     1       8.388   5.226  23.962  0.00  0.00    -0.386 OA
ATOM     22  H   UNL     1       9.113   4.681  23.607  0.00  0.00    +0.210 HD
ENDBRANCH  17  21
BRANCH  16  23
ATOM     23  O   UNL     1       6.619   4.011  21.970  0.00  0.00    -0.386 OA
ATOM     24  H   UNL     1       6.942   3.092  22.027  0.00  0.00    +0.210 HD
ENDBRANCH  16  23
BRANCH  15  25
ATOM     25  C   UNL     1       3.774   3.698  22.795  0.00  0.00    +0.190 C 
BRANCH  25  26
ATOM     26  O   UNL     1       3.854   4.879  22.005  0.00  0.00    -0.392 OA
ATOM     27  H   UNL     1       3.871   4.600  21.065  0.00  0.00    +0.210 HD
ENDBRANCH  25  26
ENDBRANCH  15  25
ENDBRANCH  12  13
ENDBRANCH   7  12
BRANCH   4  28
ATOM     28  O   UNL     1       7.710  -2.067  26.677  0.00  0.00    -0.453 OA
BRANCH  28  29
ATOM     29  C   UNL     1       7.047  -3.092  25.987  0.00  0.00    +0.214 A 
ATOM     30  C   UNL     1       6.375  -4.232  26.708  0.00  0.00    +0.238 A 
ATOM     31  O   UNL     1       6.570  -4.479  27.894  0.00  0.00    -0.283 OA
ATOM     32  C   UNL     1       5.529  -5.136  25.951  0.00  0.00    +0.109 A 
ATOM     33  C   UNL     1       5.589  -5.056  24.567  0.00  0.00    +0.147 A 
ATOM     34  C   UNL     1       4.885  -5.992  23.806  0.00  0.00    +0.092 A 
ATOM     35  C   UNL     1       4.145  -6.985  24.456  0.00  0.00    +0.124 A 
ATOM     36  C   UNL     1       4.064  -7.052  25.841  0.00  0.00    +0.091 A 
ATOM     37  O   UNL     1       6.323  -4.100  23.903  0.00  0.00    -0.451 OA
ATOM     38  C   UNL     1       4.751  -6.113  26.595  0.00  0.00    +0.135 A 
ATOM     39  C   UNL     1       7.003  -3.123  24.634  0.00  0.00    +0.181 A 
BRANCH  39  40
ATOM     40  C   UNL     1       7.682  -2.099  23.773  0.00  0.00    +0.025 A 
ATOM     41  C   UNL     1       9.004  -2.300  23.319  0.00  0.00    +0.015 A 
ATOM     42  C   UNL     1       9.649  -1.369  22.489  0.00  0.00    +0.050 A 
ATOM     43  C   UNL     1       8.977  -0.223  22.104  0.00  0.00    +0.158 A 
ATOM     44  C   UNL     1       7.686   0.019  22.557  0.00  0.00    +0.159 A 
ATOM     45  C   UNL     1       7.049  -0.895  23.396  0.00  0.00    +0.060 A 
BRANCH  44  46
ATOM     46  O   UNL     1       7.076   1.171  22.142  0.00  0.00    -0.503 OA
ATOM     47  H   UNL     1       6.521   0.955  21.370  0.00  0.00    +0.292 HD
ENDBRANCH  44  46
BRANCH  43  48
ATOM     48  O   UNL     1       9.586   0.666  21.266  0.00  0.00    -0.503 OA
ATOM     49  H   UNL     1      10.529   0.641  21.526  0.00  0.00    +0.292 HD
ENDBRANCH  43  48
ENDBRANCH  39  40
BRANCH  38  50
ATOM     50  O   UNL     1       4.634  -6.152  27.954  0.00  0.00    -0.506 OA
ATOM     51  H   UNL     1       3.793  -6.557  28.217  0.00  0.00    +0.292 HD
ENDBRANCH  38  50
BRANCH  35  52
ATOM     52  O   UNL     1       3.460  -7.943  23.770  0.00  0.00    -0.507 OA
ATOM     53  H   UNL     1       3.442  -8.759  24.297  0.00  0.00    +0.292 HD
ENDBRANCH  35  52
ENDBRANCH  28  29
ENDBRANCH   4  28
TORSDOF 16
ENDMDL
MODEL 6
REMARK VINA RESULT:      -6.7      2.105      7.023
REMARK  Name = 
REMARK  17 active torsions:
REMARK  status: ('A' for Active; 'I' for Inactive)
REMARK    1  A    between atoms: C_1  and  C_2
REMARK    2  A    between atoms: C_3  and  O_35
REMARK    3  A    between atoms: C_5  and  O_34
REMARK    4  A    between atoms: C_6  and  O_33
REMARK    5  A    between atoms: C_8  and  O_11
REMARK    6  A    between atoms: O_11  and  C_12
REMARK    7  A    between atoms: C_13  and  C_25
REMARK    8  A    between atoms: C_17  and  O_24
REMARK    9  A    between atoms: C_19  and  O_23
REMARK   10  A    between atoms: C_27  and  O_32
REMARK   11  A    between atoms: C_28  and  O_31
REMARK   12  A    between atoms: O_35  and  C_36
REMARK   13  A    between atoms: C_38  and  O_48
REMARK   14  A    between atoms: C_39  and  O_47
REMARK   15  A    between atoms: C_40  and  O_46
REMARK   16  A    between atoms: C_42  and  C_44
REMARK   17  A    between atoms: C_44  and  O_45
REMARK                            x       y       z     vdW  Elec       q    Type
REMARK                         _______ _______ _______ _____ _____    ______ ____
ROOT
ATOM      1  C   UNL     1       8.534   0.269  21.866  0.00  0.00    +0.041 C 
ATOM      2  C   UNL     1       7.685  -0.666  22.743  0.00  0.00    +0.151 C 
ATOM      3  O   UNL     1       7.351  -0.082  24.021  0.00  0.00    -0.334 OA
ATOM      4  C   UNL     1       8.505   0.059  24.870  0.00  0.00    +0.339 C 
ATOM      5  C   UNL     1       9.086  -1.335  25.220  0.00  0.00    +0.214 C 
ATOM      6  C   UNL     1       9.506  -2.008  23.915  0.00  0.00    +0.180 C 
ATOM      7  C   UNL     1       8.348  -2.057  22.905  0.00  0.00    +0.181 C 
ENDROOT
BRANCH   5   8
ATOM      8  O   UNL     1       8.143  -2.144  25.952  0.00  0.00    -0.383 OA
ATOM      9  H   UNL     1       8.423  -2.092  26.883  0.00  0.00    +0.210 HD
ENDBRANCH   5   8
BRANCH   6  10
ATOM     10  O   UNL     1       9.972  -3.342  24.180  0.00  0.00    -0.386 OA
ATOM     11  H   UNL     1      10.480  -3.582  23.380  0.00  0.00    +0.210 HD
ENDBRANCH   6  10
BRANCH   7  12
ATOM     12  O   UNL     1       7.452  -3.092  23.371  0.00  0.00    -0.340 OA
BRANCH  12  13
ATOM     13  C   UNL     1       6.053  -2.813  23.306  0.00  0.00    +0.282 C 
ATOM     14  O   UNL     1       5.492  -2.933  24.626  0.00  0.00    -0.341 OA
ATOM     15  C   UNL     1       5.618  -4.246  25.190  0.00  0.00    +0.178 C 
ATOM     16  C   UNL     1       4.958  -5.310  24.288  0.00  0.00    +0.177 C 
ATOM     17  C   UNL     1       5.491  -5.190  22.853  0.00  0.00    +0.179 C 
ATOM     18  C   UNL     1       5.280  -3.754  22.361  0.00  0.00    +0.201 C 
BRANCH  18  19
ATOM     19  O   UNL     1       5.660  -3.625  20.986  0.00  0.00    -0.384 OA
ATOM     20  H   UNL     1       4.855  -3.797  20.456  0.00  0.00    +0.210 HD
ENDBRANCH  18  19
BRANCH  17  21
ATOM     21  O   UNL     1       4.851  -6.103  21.952  0.00  0.00    -0.386 OA
ATOM     22  H   UNL     1       5.320  -6.073  21.099  0.00  0.00    +0.210 HD
ENDBRANCH  17  21
BRANCH  16  23
ATOM     23  O   UNL     1       5.157  -6.624  24.818  0.00  0.00    -0.386 OA
ATOM     24  H   UNL     1       5.962  -7.000  24.413  0.00  0.00    +0.210 HD
ENDBRANCH  16  23
BRANCH  15  25
ATOM     25  C   UNL     1       4.976  -4.236  26.588  0.00  0.00    +0.190 C 
BRANCH  25  26
ATOM     26  O   UNL     1       5.816  -3.643  27.571  0.00  0.00    -0.392 OA
ATOM     27  H   UNL     1       6.621  -4.200  27.640  0.00  0.00    +0.210 HD
ENDBRANCH  25  26
ENDBRANCH  15  25
ENDBRANCH  12  13
ENDBRANCH   7  12
BRANCH   4  28
ATOM     28  O   UNL     1       8.232   0.806  26.064  0.00  0.00    -0.453 OA
BRANCH  28  29
ATOM     29  C   UNL     1       6.885   1.123  26.294  0.00  0.00    +0.214 A 
ATOM     30  C   UNL     1       5.959   0.181  27.018  0.00  0.00    +0.238 A 
ATOM     31  O   UNL     1       6.233  -0.997  27.227  0.00  0.00    -0.283 OA
ATOM     32  C   UNL     1       4.645   0.657  27.411  0.00  0.00    +0.109 A 
ATOM     33  C   UNL     1       4.218   1.863  26.874  0.00  0.00    +0.147 A 
ATOM     34  C   UNL     1       2.913   2.291  27.130  0.00  0.00    +0.092 A 
ATOM     35  C   UNL     1       2.073   1.493  27.912  0.00  0.00    +0.124 A 
ATOM     36  C   UNL     1       2.506   0.297  28.470  0.00  0.00    +0.091 A 
ATOM     37  O   UNL     1       5.019   2.658  26.087  0.00  0.00    -0.451 OA
ATOM     38  C   UNL     1       3.806  -0.119  28.229  0.00  0.00    +0.135 A 
ATOM     39  C   UNL     1       6.343   2.280  25.849  0.00  0.00    +0.181 A 
BRANCH  39  40
ATOM     40  C   UNL     1       7.117   3.290  25.052  0.00  0.00    +0.025 A 
ATOM     41  C   UNL     1       8.103   4.091  25.667  0.00  0.00    +0.015 A 
ATOM     42  C   UNL     1       8.859   5.022  24.935  0.00  0.00    +0.050 A 
ATOM     43  C   UNL     1       8.635   5.161  23.577  0.00  0.00    +0.158 A 
ATOM     44  C   UNL     1       7.651   4.408  22.948  0.00  0.00    +0.159 A 
ATOM     45  C   UNL     1       6.886   3.496  23.675  0.00  0.00    +0.060 A 
BRANCH  44  46
ATOM     46  O   UNL     1       7.476   4.594  21.603  0.00  0.00    -0.503 OA
ATOM     47  H   UNL     1       7.325   5.544  21.449  0.00  0.00    +0.292 HD
ENDBRANCH  44  46
BRANCH  43  48
ATOM     48  O   UNL     1       9.393   6.036  22.855  0.00  0.00    -0.503 OA
ATOM     49  H   UNL     1      10.275   6.003  23.278  0.00  0.00    +0.292 HD
ENDBRANCH  43  48
ENDBRANCH  39  40
BRANCH  38  50
ATOM     50  O   UNL     1       4.245  -1.271  28.814  0.00  0.00    -0.506 OA
ATOM     51  H   UNL     1       3.573  -1.630  29.415  0.00  0.00    +0.292 HD
ENDBRANCH  38  50
BRANCH  35  52
ATOM     52  O   UNL     1       0.781   1.842  28.173  0.00  0.00    -0.507 OA
ATOM     53  H   UNL     1       0.287   1.881  27.337  0.00  0.00    +0.292 HD
ENDBRANCH  35  52
ENDBRANCH  28  29
ENDBRANCH   4  28
TORSDOF 16
ENDMDL
MODEL 7
REMARK VINA RESULT:      -6.6      2.197      7.438
REMARK  Name = 
REMARK  17 active torsions:
REMARK  status: ('A' for Active; 'I' for Inactive)
REMARK    1  A    between atoms: C_1  and  C_2
REMARK    2  A    between atoms: C_3  and  O_35
REMARK    3  A    between atoms: C_5  and  O_34
REMARK    4  A    between atoms: C_6  and  O_33
REMARK    5  A    between atoms: C_8  and  O_11
REMARK    6  A    between atoms: O_11  and  C_12
REMARK    7  A    between atoms: C_13  and  C_25
REMARK    8  A    between atoms: C_17  and  O_24
REMARK    9  A    between atoms: C_19  and  O_23
REMARK   10  A    between atoms: C_27  and  O_32
REMARK   11  A    between atoms: C_28  and  O_31
REMARK   12  A    between atoms: O_35  and  C_36
REMARK   13  A    between atoms: C_38  and  O_48
REMARK   14  A    between atoms: C_39  and  O_47
REMARK   15  A    between atoms: C_40  and  O_46
REMARK   16  A    between atoms: C_42  and  C_44
REMARK   17  A    between atoms: C_44  and  O_45
REMARK                            x       y       z     vdW  Elec       q    Type
REMARK                         _______ _______ _______ _____ _____    ______ ____
ROOT
ATOM      1  C   UNL     1       9.210  -0.224  21.464  0.00  0.00    +0.041 C 
ATOM      2  C   UNL     1       8.221  -0.971  22.374  0.00  0.00    +0.151 C 
ATOM      3  O   UNL     1       7.915  -0.242  23.583  0.00  0.00    -0.334 OA
ATOM      4  C   UNL     1       9.047  -0.167  24.470  0.00  0.00    +0.339 C 
ATOM      5  C   UNL     1       9.438  -1.585  24.960  0.00  0.00    +0.214 C 
ATOM      6  C   UNL     1       9.818  -2.414  23.735  0.00  0.00    +0.180 C 
ATOM      7  C   UNL     1       8.700  -2.412  22.681  0.00  0.00    +0.181 C 
ENDROOT
BRANCH   5   8
ATOM      8  O   UNL     1       8.377  -2.208  25.712  0.00  0.00    -0.383 OA
ATOM      9  H   UNL     1       7.782  -2.597  25.048  0.00  0.00    +0.210 HD
ENDBRANCH   5   8
BRANCH   6  10
ATOM     10  O   UNL     1      10.106  -3.767  24.130  0.00  0.00    -0.386 OA
ATOM     11  H   UNL     1      10.610  -4.134  23.377  0.00  0.00    +0.210 HD
ENDBRANCH   6  10
BRANCH   7  12
ATOM     12  O   UNL     1       7.668  -3.288  23.188  0.00  0.00    -0.340 OA
BRANCH  12  13
ATOM     13  C   UNL     1       6.317  -2.848  23.038  0.00  0.00    +0.282 C 
ATOM     14  O   UNL     1       5.718  -2.731  24.341  0.00  0.00    -0.341 OA
ATOM     15  C   UNL     1       5.664  -3.967  25.066  0.00  0.00    +0.178 C 
ATOM     16  C   UNL     1       4.893  -5.047  24.278  0.00  0.00    +0.177 C 
ATOM     17  C   UNL     1       5.467  -5.175  22.860  0.00  0.00    +0.179 C 
ATOM     18  C   UNL     1       5.450  -3.799  22.187  0.00  0.00    +0.201 C 
BRANCH  18  19
ATOM     19  O   UNL     1       5.872  -3.893  20.822  0.00  0.00    -0.384 OA
ATOM     20  H   UNL     1       5.381  -3.204  20.329  0.00  0.00    +0.210 HD
ENDBRANCH  18  19
BRANCH  17  21
ATOM     21  O   UNL     1       4.735  -6.109  22.055  0.00  0.00    -0.386 OA
ATOM     22  H   UNL     1       4.878  -5.886  21.117  0.00  0.00    +0.210 HD
ENDBRANCH  17  21
BRANCH  16  23
ATOM     23  O   UNL     1       4.913  -6.298  24.972  0.00  0.00    -0.386 OA
ATOM     24  H   UNL     1       4.524  -6.165  25.857  0.00  0.00    +0.210 HD
ENDBRANCH  16  23
BRANCH  15  25
ATOM     25  C   UNL     1       5.000  -3.701  26.428  0.00  0.00    +0.190 C 
BRANCH  25  26
ATOM     26  O   UNL     1       5.828  -2.942  27.300  0.00  0.00    -0.392 OA
ATOM     27  H   UNL     1       5.378  -2.084  27.456  0.00  0.00    +0.210 HD
ENDBRANCH  25  26
ENDBRANCH  15  25
ENDBRANCH  12  13
ENDBRANCH   7  12
BRANCH   4  28
ATOM     28  O   UNL     1       8.825   0.708  25.584  0.00  0.00    -0.453 OA
BRANCH  28  29
ATOM     29  C   UNL     1       7.643   1.462  25.546  0.00  0.00    +0.214 A 
ATOM     30  C   UNL     1       6.325   0.900  26.014  0.00  0.00    +0.238 A 
ATOM     31  O   UNL     1       6.143  -0.296  26.214  0.00  0.00    -0.283 OA
ATOM     32  C   UNL     1       5.191   1.796  26.149  0.00  0.00    +0.109 A 
ATOM     33  C   UNL     1       5.313   3.064  25.598  0.00  0.00    +0.147 A 
ATOM     34  C   UNL     1       4.201   3.909  25.599  0.00  0.00    +0.092 A 
ATOM     35  C   UNL     1       2.997   3.455  26.147  0.00  0.00    +0.124 A 
ATOM     36  C   UNL     1       2.881   2.196  26.721  0.00  0.00    +0.091 A 
ATOM     37  O   UNL     1       6.480   3.528  25.035  0.00  0.00    -0.451 OA
ATOM     38  C   UNL     1       3.989   1.364  26.735  0.00  0.00    +0.135 A 
ATOM     39  C   UNL     1       7.623   2.724  25.058  0.00  0.00    +0.181 A 
BRANCH  39  40
ATOM     40  C   UNL     1       8.837   3.399  24.492  0.00  0.00    +0.025 A 
ATOM     41  C   UNL     1       9.801   2.662  23.771  0.00  0.00    +0.015 A 
ATOM     42  C   UNL     1      10.931   3.277  23.207  0.00  0.00    +0.050 A 
ATOM     43  C   UNL     1      11.109   4.640  23.360  0.00  0.00    +0.158 A 
ATOM     44  C   UNL     1      10.194   5.389  24.089  0.00  0.00    +0.159 A 
ATOM     45  C   UNL     1       9.080   4.779  24.666  0.00  0.00    +0.060 A 
BRANCH  44  46
ATOM     46  O   UNL     1      10.427   6.733  24.206  0.00  0.00    -0.503 OA
ATOM     47  H   UNL     1      11.324   6.851  24.567  0.00  0.00    +0.292 HD
ENDBRANCH  44  46
BRANCH  43  48
ATOM     48  O   UNL     1      12.185   5.249  22.781  0.00  0.00    -0.503 OA
ATOM     49  H   UNL     1      12.353   6.033  23.342  0.00  0.00    +0.292 HD
ENDBRANCH  43  48
ENDBRANCH  39  40
BRANCH  38  50
ATOM     50  O   UNL     1       3.887   0.145  27.339  0.00  0.00    -0.506 OA
ATOM     51  H   UNL     1       3.738   0.244  28.292  0.00  0.00    +0.292 HD
ENDBRANCH  38  50
BRANCH  35  52
ATOM     52  O   UNL     1       1.870   4.222  26.153  0.00  0.00    -0.507 OA
ATOM     53  H   UNL     1       1.607   4.405  25.236  0.00  0.00    +0.292 HD
ENDBRANCH  35  52
ENDBRANCH  28  29
ENDBRANCH   4  28
TORSDOF 16
ENDMDL
MODEL 8
REMARK VINA RESULT:      -6.5      1.918      4.878
REMARK  Name = 
REMARK  17 active torsions:
REMARK  status: ('A' for Active; 'I' for Inactive)
REMARK    1  A    between atoms: C_1  and  C_2
REMARK    2  A    between atoms: C_3  and  O_35
REMARK    3  A    between atoms: C_5  and  O_34
REMARK    4  A    between atoms: C_6  and  O_33
REMARK    5  A    between atoms: C_8  and  O_11
REMARK    6  A    between atoms: O_11  and  C_12
REMARK    7  A    between atoms: C_13  and  C_25
REMARK    8  A    between atoms: C_17  and  O_24
REMARK    9  A    between atoms: C_19  and  O_23
REMARK   10  A    between atoms: C_27  and  O_32
REMARK   11  A    between atoms: C_28  and  O_31
REMARK   12  A    between atoms: O_35  and  C_36
REMARK   13  A    between atoms: C_38  and  O_48
REMARK   14  A    between atoms: C_39  and  O_47
REMARK   15  A    between atoms: C_40  and  O_46
REMARK   16  A    between atoms: C_42  and  C_44
REMARK   17  A    between atoms: C_44  and  O_45
REMARK                            x       y       z     vdW  Elec       q    Type
REMARK                         _______ _______ _______ _____ _____    ______ ____
ROOT
ATOM      1  C   UNL     1       9.757   0.019  25.291  0.00  0.00    +0.041 C 
ATOM      2  C   UNL     1       8.866   1.171  24.797  0.00  0.00    +0.151 C 
ATOM      3  O   UNL     1       7.458   0.908  24.983  0.00  0.00    -0.334 OA
ATOM      4  C   UNL     1       6.986  -0.146  24.123  0.00  0.00    +0.339 C 
ATOM      5  C   UNL     1       7.108   0.281  22.637  0.00  0.00    +0.214 C 
ATOM      6  C   UNL     1       8.584   0.540  22.345  0.00  0.00    +0.180 C 
ATOM      7  C   UNL     1       9.187   1.554  23.330  0.00  0.00    +0.181 C 
ENDROOT
BRANCH   5   8
ATOM      8  O   UNL     1       6.299   1.437  22.340  0.00  0.00    -0.383 OA
ATOM      9  H   UNL     1       5.782   1.607  23.146  0.00  0.00    +0.210 HD
ENDBRANCH   5   8
BRANCH   6  10
ATOM     10  O   UNL     1       8.739   1.024  20.999  0.00  0.00    -0.386 OA
ATOM     11  H   UNL     1       8.489   1.967  21.054  0.00  0.00    +0.210 HD
ENDBRANCH   6  10
BRANCH   7  12
ATOM     12  O   UNL     1       8.686   2.850  22.930  0.00  0.00    -0.340 OA
BRANCH  12  13
ATOM     13  C   UNL     1       8.503   3.819  23.963  0.00  0.00    +0.282 C 
ATOM     14  O   UNL     1       7.218   3.611  24.575  0.00  0.00    -0.341 OA
ATOM     15  C   UNL     1       6.114   3.767  23.673  0.00  0.00    +0.178 C 
ATOM     16  C   UNL     1       6.116   5.167  23.023  0.00  0.00    +0.177 C 
ATOM     17  C   UNL     1       7.487   5.456  22.395  0.00  0.00    +0.179 C 
ATOM     18  C   UNL     1       8.573   5.275  23.461  0.00  0.00    +0.201 C 
BRANCH  18  19
ATOM     19  O   UNL     1       9.858   5.645  22.949  0.00  0.00    -0.384 OA
ATOM     20  H   UNL     1       9.725   6.458  22.420  0.00  0.00    +0.210 HD
ENDBRANCH  18  19
BRANCH  17  21
ATOM     21  O   UNL     1       7.572   6.778  21.847  0.00  0.00    -0.386 OA
ATOM     22  H   UNL     1       7.637   6.706  20.877  0.00  0.00    +0.210 HD
ENDBRANCH  17  21
BRANCH  16  23
ATOM     23  O   UNL     1       5.060   5.288  22.065  0.00  0.00    -0.386 OA
ATOM     24  H   UNL     1       5.111   6.175  21.661  0.00  0.00    +0.210 HD
ENDBRANCH  16  23
BRANCH  15  25
ATOM     25  C   UNL     1       4.812   3.526  24.454  0.00  0.00    +0.190 C 
BRANCH  25  26
ATOM     26  O   UNL     1       4.212   2.274  24.143  0.00  0.00    -0.392 OA
ATOM     27  H   UNL     1       3.655   2.019  24.908  0.00  0.00    +0.210 HD
ENDBRANCH  25  26
ENDBRANCH  15  25
ENDBRANCH  12  13
ENDBRANCH   7  12
BRANCH   4  28
ATOM     28  O   UNL     1       5.644  -0.551  24.423  0.00  0.00    -0.453 OA
BRANCH  28  29
ATOM     29  C   UNL     1       5.512  -1.666  25.263  0.00  0.00    +0.214 A 
ATOM     30  C   UNL     1       5.362  -3.061  24.716  0.00  0.00    +0.238 A 
ATOM     31  O   UNL     1       5.095  -3.293  23.542  0.00  0.00    -0.283 OA
ATOM     32  C   UNL     1       5.447  -4.184  25.633  0.00  0.00    +0.109 A 
ATOM     33  C   UNL     1       5.405  -3.902  26.991  0.00  0.00    +0.147 A 
ATOM     34  C   UNL     1       5.359  -4.963  27.898  0.00  0.00    +0.092 A 
ATOM     35  C   UNL     1       5.351  -6.276  27.417  0.00  0.00    +0.124 A 
ATOM     36  C   UNL     1       5.417  -6.560  26.059  0.00  0.00    +0.091 A 
ATOM     37  O   UNL     1       5.394  -2.620  27.490  0.00  0.00    -0.451 OA
ATOM     38  C   UNL     1       5.479  -5.507  25.159  0.00  0.00    +0.135 A 
ATOM     39  C   UNL     1       5.484  -1.538  26.611  0.00  0.00    +0.181 A 
BRANCH  39  40
ATOM     40  C   UNL     1       5.552  -0.210  27.306  0.00  0.00    +0.025 A 
ATOM     41  C   UNL     1       4.434   0.651  27.328  0.00  0.00    +0.015 A 
ATOM     42  C   UNL     1       4.465   1.886  27.997  0.00  0.00    +0.050 A 
ATOM     43  C   UNL     1       5.621   2.274  28.651  0.00  0.00    +0.158 A 
ATOM     44  C   UNL     1       6.748   1.463  28.623  0.00  0.00    +0.159 A 
ATOM     45  C   UNL     1       6.726   0.244  27.945  0.00  0.00    +0.060 A 
BRANCH  44  46
ATOM     46  O   UNL     1       7.861   1.904  29.288  0.00  0.00    -0.503 OA
ATOM     47  H   UNL     1       7.626   2.731  29.747  0.00  0.00    +0.292 HD
ENDBRANCH  44  46
BRANCH  43  48
ATOM     48  O   UNL     1       5.644   3.455  29.334  0.00  0.00    -0.503 OA
ATOM     49  H   UNL     1       5.653   3.192  30.277  0.00  0.00    +0.292 HD
ENDBRANCH  43  48
ENDBRANCH  39  40
BRANCH  38  50
ATOM     50  O   UNL     1       5.590  -5.787  23.829  0.00  0.00    -0.506 OA
ATOM     51  H   UNL     1       4.935  -5.289  23.316  0.00  0.00    +0.292 HD
ENDBRANCH  38  50
BRANCH  35  52
ATOM     52  O   UNL     1       5.278  -7.352  28.250  0.00  0.00    -0.507 OA
ATOM     53  H   UNL     1       5.532  -8.151  27.759  0.00  0.00    +0.292 HD
ENDBRANCH  35  52
ENDBRANCH  28  29
ENDBRANCH   4  28
TORSDOF 16
ENDMDL
MODEL 9
REMARK VINA RESULT:      -6.3      2.050      2.597
REMARK  Name = 
REMARK  17 active torsions:
REMARK  status: ('A' for Active; 'I' for Inactive)
REMARK    1  A    between atoms: C_1  and  C_2
REMARK    2  A    between atoms: C_3  and  O_35
REMARK    3  A    between atoms: C_5  and  O_34
REMARK    4  A    between atoms: C_6  and  O_33
REMARK    5  A    between atoms: C_8  and  O_11
REMARK    6  A    between atoms: O_11  and  C_12
REMARK    7  A    between atoms: C_13  and  C_25
REMARK    8  A    between atoms: C_17  and  O_24
REMARK    9  A    between atoms: C_19  and  O_23
REMARK   10  A    between atoms: C_27  and  O_32
REMARK   11  A    between atoms: C_28  and  O_31
REMARK   12  A    between atoms: O_35  and  C_36
REMARK   13  A    between atoms: C_38  and  O_48
REMARK   14  A    between atoms: C_39  and  O_47
REMARK   15  A    between atoms: C_40  and  O_46
REMARK   16  A    between atoms: C_42  and  C_44
REMARK   17  A    between atoms: C_44  and  O_45
REMARK                            x       y       z     vdW  Elec       q    Type
REMARK                         _______ _______ _______ _____ _____    ______ ____
ROOT
ATOM      1  C   UNL     1       3.146   2.395  26.896  0.00  0.00    +0.041 C 
ATOM      2  C   UNL     1       4.345   2.599  25.955  0.00  0.00    +0.151 C 
ATOM      3  O   UNL     1       4.615   1.442  25.134  0.00  0.00    -0.334 OA
ATOM      4  C   UNL     1       5.105   0.332  25.909  0.00  0.00    +0.339 C 
ATOM      5  C   UNL     1       6.475   0.685  26.544  0.00  0.00    +0.214 C 
ATOM      6  C   UNL     1       6.267   1.885  27.466  0.00  0.00    +0.180 C 
ATOM      7  C   UNL     1       5.607   3.060  26.727  0.00  0.00    +0.181 C 
ENDROOT
BRANCH   5   8
ATOM      8  O   UNL     1       7.479   0.954  25.544  0.00  0.00    -0.383 OA
ATOM      9  H   UNL     1       7.046   0.787  24.689  0.00  0.00    +0.210 HD
ENDBRANCH   5   8
BRANCH   6  10
ATOM     10  O   UNL     1       7.529   2.306  28.013  0.00  0.00    -0.386 OA
ATOM     11  H   UNL     1       8.109   2.399  27.231  0.00  0.00    +0.210 HD
ENDBRANCH   6  10
BRANCH   7  12
ATOM     12  O   UNL     1       6.637   3.639  25.894  0.00  0.00    -0.340 OA
BRANCH  12  13
ATOM     13  C   UNL     1       6.203   4.382  24.753  0.00  0.00    +0.282 C 
ATOM     14  O   UNL     1       6.505   3.630  23.565  0.00  0.00    -0.341 OA
ATOM     15  C   UNL     1       7.905   3.382  23.378  0.00  0.00    +0.178 C 
ATOM     16  C   UNL     1       8.707   4.700  23.330  0.00  0.00    +0.177 C 
ATOM     17  C   UNL     1       8.380   5.561  24.559  0.00  0.00    +0.179 C 
ATOM     18  C   UNL     1       6.864   5.770  24.633  0.00  0.00    +0.201 C 
BRANCH  18  19
ATOM     19  O   UNL     1       6.524   6.662  25.701  0.00  0.00    -0.384 OA
ATOM     20  H   UNL     1       6.524   6.129  26.522  0.00  0.00    +0.210 HD
ENDBRANCH  18  19
BRANCH  17  21
ATOM     21  O   UNL     1       9.037   6.835  24.526  0.00  0.00    -0.386 OA
ATOM     22  H   UNL     1       8.409   7.497  24.184  0.00  0.00    +0.210 HD
ENDBRANCH  17  21
BRANCH  16  23
ATOM     23  O   UNL     1      10.110   4.441  23.224  0.00  0.00    -0.386 OA
ATOM     24  H   UNL     1      10.593   5.231  23.534  0.00  0.00    +0.210 HD
ENDBRANCH  16  23
BRANCH  15  25
ATOM     25  C   UNL     1       8.086   2.582  22.076  0.00  0.00    +0.190 C 
BRANCH  25  26
ATOM     26  O   UNL     1       9.436   2.189  21.860  0.00  0.00    -0.392 OA
ATOM     27  H   UNL     1       9.546   1.297  22.252  0.00  0.00    +0.210 HD
ENDBRANCH  25  26
ENDBRANCH  15  25
ENDBRANCH  12  13
ENDBRANCH   7  12
BRANCH   4  28
ATOM     28  O   UNL     1       5.199  -0.881  25.149  0.00  0.00    -0.453 OA
BRANCH  28  29
ATOM     29  C   UNL     1       5.639  -2.012  25.850  0.00  0.00    +0.214 A 
ATOM     30  C   UNL     1       4.905  -2.536  27.057  0.00  0.00    +0.238 A 
ATOM     31  O   UNL     1       4.047  -1.890  27.649  0.00  0.00    -0.283 OA
ATOM     32  C   UNL     1       5.287  -3.826  27.603  0.00  0.00    +0.109 A 
ATOM     33  C   UNL     1       6.472  -4.385  27.144  0.00  0.00    +0.147 A 
ATOM     34  C   UNL     1       6.934  -5.563  27.736  0.00  0.00    +0.092 A 
ATOM     35  C   UNL     1       6.198  -6.142  28.775  0.00  0.00    +0.124 A 
ATOM     36  C   UNL     1       5.001  -5.597  29.218  0.00  0.00    +0.091 A 
ATOM     37  O   UNL     1       7.224  -3.826  26.137  0.00  0.00    -0.451 OA
ATOM     38  C   UNL     1       4.534  -4.437  28.620  0.00  0.00    +0.135 A 
ATOM     39  C   UNL     1       6.766  -2.673  25.495  0.00  0.00    +0.181 A 
BRANCH  39  40
ATOM     40  C   UNL     1       7.645  -2.235  24.360  0.00  0.00    +0.025 A 
ATOM     41  C   UNL     1       7.366  -2.637  23.036  0.00  0.00    +0.015 A 
ATOM     42  C   UNL     1       8.158  -2.215  21.954  0.00  0.00    +0.050 A 
ATOM     43  C   UNL     1       9.240  -1.386  22.188  0.00  0.00    +0.158 A 
ATOM     44  C   UNL     1       9.558  -0.996  23.483  0.00  0.00    +0.159 A 
ATOM     45  C   UNL     1       8.785  -1.427  24.561  0.00  0.00    +0.060 A 
BRANCH  44  46
ATOM     46  O   UNL     1      10.641  -0.176  23.648  0.00  0.00    -0.503 OA
ATOM     47  H   UNL     1      10.629   0.156  24.564  0.00  0.00    +0.292 HD
ENDBRANCH  44  46
BRANCH  43  48
ATOM     48  O   UNL     1       9.988  -0.943  21.136  0.00  0.00    -0.503 OA
ATOM     49  H   UNL     1       9.403  -1.046  20.358  0.00  0.00    +0.292 HD
ENDBRANCH  43  48
ENDBRANCH  39  40
BRANCH  38  50
ATOM     50  O   UNL     1       3.335  -3.927  29.024  0.00  0.00    -0.506 OA
ATOM     51  H   UNL     1       2.639  -4.128  28.379  0.00  0.00    +0.292 HD
ENDBRANCH  38  50
BRANCH  35  52
ATOM     52  O   UNL     1       6.612  -7.274  29.411  0.00  0.00    -0.507 OA
ATOM     53  H   UNL     1       6.781  -7.069  30.346  0.00  0.00    +0.292 HD
ENDBRANCH  35  52
ENDBRANCH  28  29
ENDBRANCH   4  28
TORSDOF 16
ENDMDL
