MODEL 1
REMARK VINA RESULT:      -8.6      0.000      0.000
REMARK  Name = 
REMARK  12 active torsions:
REMARK  status: ('A' for Active; 'I' for Inactive)
REMARK    1  A    between atoms: C_3  and  O_34
REMARK    2  A    between atoms: C_4  and  O_33
REMARK    3  A    between atoms: C_6  and  C_7
REMARK    4  A    between atoms: C_8  and  O_32
REMARK    5  A    between atoms: C_15  and  O_31
REMARK    6  A    between atoms: C_16  and  C_19
REMARK    7  A    between atoms: C_17  and  O_18
REMARK    8  A    between atoms: C_19  and  C_21
REMARK    9  A    between atoms: C_22  and  O_30
REMARK   10  A    between atoms: C_23  and  O_29
REMARK   11  A    between atoms: C_24  and  O_28
REMARK   12  A    between atoms: C_25  and  O_27
REMARK                            x       y       z     vdW  Elec       q    Type
REMARK                         _______ _______ _______ _____ _____    ______ ____
ROOT
ATOM      1  C   UNL     1       9.557   2.576  23.455  0.00  0.00    +0.181 A 
ATOM      2  O   UNL     1      10.041   1.394  24.010  0.00  0.00    -0.451 OA
ATOM      3  C   UNL     1       9.348   0.228  23.794  0.00  0.00    +0.147 A 
ATOM      4  C   UNL     1       9.963  -0.970  24.146  0.00  0.00    +0.093 A 
ATOM      5  C   UNL     1       9.312  -2.194  23.908  0.00  0.00    +0.134 A 
ATOM      6  C   UNL     1       8.005  -2.252  23.385  0.00  0.00    +0.104 A 
ATOM      7  C   UNL     1       7.381  -1.019  23.097  0.00  0.00    +0.145 A 
ATOM      8  C   UNL     1       8.080   0.195  23.237  0.00  0.00    +0.110 A 
ATOM      9  C   UNL     1       7.536   1.449  22.700  0.00  0.00    +0.238 A 
ATOM     10  O   UNL     1       6.426   1.460  22.174  0.00  0.00    -0.283 OA
ATOM     11  C   UNL     1       8.404   2.647  22.746  0.00  0.00    +0.208 A 
ENDROOT
BRANCH   1  13
ATOM     12  C   UNL     1       9.951   4.932  24.309  0.00  0.00    +0.015 A 
ATOM     13  C   UNL     1      10.439   3.760  23.688  0.00  0.00    +0.025 A 
ATOM     14  C   UNL     1      11.790   3.734  23.319  0.00  0.00    +0.060 A 
ATOM     15  C   UNL     1      12.590   4.862  23.510  0.00  0.00    +0.159 A 
ATOM     16  C   UNL     1      12.070   6.029  24.057  0.00  0.00    +0.158 A 
ATOM     17  C   UNL     1      10.748   6.072  24.470  0.00  0.00    +0.050 A 
BRANCH  15  18
ATOM     18  O   UNL     1      13.906   4.816  23.143  0.00  0.00    -0.503 OA
ATOM     19  H   UNL     1      14.393   4.718  23.986  0.00  0.00    +0.292 HD
ENDBRANCH  15  18
BRANCH  16  20
ATOM     20  O   UNL     1      12.901   7.108  24.174  0.00  0.00    -0.503 OA
ATOM     21  H   UNL     1      13.820   6.785  24.197  0.00  0.00    +0.292 HD
ENDBRANCH  16  20
ENDBRANCH   1  13
BRANCH   5  22
ATOM     22  O   UNL     1      10.023  -3.327  24.183  0.00  0.00    -0.506 OA
ATOM     23  H   UNL     1       9.436  -3.998  24.573  0.00  0.00    +0.292 HD
ENDBRANCH   5  22
BRANCH   6  24
ATOM     24  C   UNL     1       7.258  -3.542  23.092  0.00  0.00    +0.201 C 
ATOM     25  O   UNL     1       7.886  -4.582  22.877  0.00  0.00    -0.289 OA
BRANCH  24  26
ATOM     26  C   UNL     1       5.716  -3.599  23.044  0.00  0.00    +0.223 C 
ATOM     27  O   UNL     1       5.042  -3.157  24.243  0.00  0.00    -0.335 OA
ATOM     28  C   UNL     1       5.242  -3.960  25.408  0.00  0.00    +0.279 C 
ATOM     29  C   UNL     1       4.801  -5.412  25.150  0.00  0.00    +0.201 C 
ATOM     30  C   UNL     1       5.484  -5.965  23.900  0.00  0.00    +0.179 C 
ATOM     31  C   UNL     1       5.259  -5.028  22.706  0.00  0.00    +0.182 C 
BRANCH  28  32
ATOM     32  O   UNL     1       4.442  -3.405  26.454  0.00  0.00    -0.365 OA
ATOM     33  H   UNL     1       4.863  -2.572  26.726  0.00  0.00    +0.213 HD
ENDBRANCH  28  32
BRANCH  29  34
ATOM     34  O   UNL     1       3.364  -5.447  24.941  0.00  0.00    -0.384 OA
ATOM     35  H   UNL     1       2.946  -5.359  25.823  0.00  0.00    +0.210 HD
ENDBRANCH  29  34
BRANCH  30  36
ATOM     36  O   UNL     1       4.950  -7.252  23.546  0.00  0.00    -0.386 OA
ATOM     37  H   UNL     1       4.460  -7.568  24.331  0.00  0.00    +0.210 HD
ENDBRANCH  30  36
BRANCH  31  38
ATOM     38  O   UNL     1       5.877  -5.593  21.547  0.00  0.00    -0.386 OA
ATOM     39  H   UNL     1       5.394  -6.431  21.386  0.00  0.00    +0.210 HD
ENDBRANCH  31  38
ENDBRANCH  24  26
ENDBRANCH   6  24
BRANCH   7  40
ATOM     40  O   UNL     1       6.080  -1.000  22.660  0.00  0.00    -0.505 OA
ATOM     41  H   UNL     1       5.946  -0.285  21.999  0.00  0.00    +0.292 HD
ENDBRANCH   7  40
BRANCH  11  42
ATOM     42  O   UNL     1       7.977   3.751  22.033  0.00  0.00    -0.501 OA
ATOM     43  H   UNL     1       8.469   4.530  22.345  0.00  0.00    +0.292 HD
ENDBRANCH  11  42
TORSDOF 12
ENDMDL
MODEL 2
REMARK VINA RESULT:      -8.5      0.815      1.861
REMARK  Name = 
REMARK  12 active torsions:
REMARK  status: ('A' for Active; 'I' for Inactive)
REMARK    1  A    between atoms: C_3  and  O_34
REMARK    2  A    between atoms: C_4  and  O_33
REMARK    3  A    between atoms: C_6  and  C_7
REMARK    4  A    between atoms: C_8  and  O_32
REMARK    5  A    between atoms: C_15  and  O_31
REMARK    6  A    between atoms: C_16  and  C_19
REMARK    7  A    between atoms: C_17  and  O_18
REMARK    8  A    between atoms: C_19  and  C_21
REMARK    9  A    between atoms: C_22  and  O_30
REMARK   10  A    between atoms: C_23  and  O_29
REMARK   11  A    between atoms: C_24  and  O_28
REMARK   12  A    between atoms: C_25  and  O_27
REMARK                            x       y       z     vdW  Elec       q    Type
REMARK                         _______ _______ _______ _____ _____    ______ ____
ROOT
ATOM      1  C   UNL     1       9.566   2.579  23.460  0.00  0.00    +0.181 A 
ATOM      2  O   UNL     1      10.055   1.395  24.003  0.00  0.00    -0.451 OA
ATOM      3  C   UNL     1       9.361   0.229  23.789  0.00  0.00    +0.147 A 
ATOM      4  C   UNL     1       9.980  -0.970  24.128  0.00  0.00    +0.093 A 
ATOM      5  C   UNL     1       9.327  -2.193  23.891  0.00  0.00    +0.134 A 
ATOM      6  C   UNL     1       8.015  -2.249  23.382  0.00  0.00    +0.104 A 
ATOM      7  C   UNL     1       7.387  -1.015  23.108  0.00  0.00    +0.145 A 
ATOM      8  C   UNL     1       8.087   0.199  23.246  0.00  0.00    +0.110 A 
ATOM      9  C   UNL     1       7.536   1.455  22.722  0.00  0.00    +0.238 A 
ATOM     10  O   UNL     1       6.420   1.469  22.208  0.00  0.00    -0.283 OA
ATOM     11  C   UNL     1       8.404   2.653  22.764  0.00  0.00    +0.208 A 
ENDROOT
BRANCH   1  13
ATOM     12  C   UNL     1       9.962   4.939  24.304  0.00  0.00    +0.015 A 
ATOM     13  C   UNL     1      10.449   3.762  23.690  0.00  0.00    +0.025 A 
ATOM     14  C   UNL     1      11.801   3.733  23.323  0.00  0.00    +0.060 A 
ATOM     15  C   UNL     1      12.602   4.860  23.510  0.00  0.00    +0.159 A 
ATOM     16  C   UNL     1      12.084   6.031  24.052  0.00  0.00    +0.158 A 
ATOM     17  C   UNL     1      10.761   6.077  24.461  0.00  0.00    +0.050 A 
BRANCH  15  18
ATOM     18  O   UNL     1      13.919   4.809  23.146  0.00  0.00    -0.503 OA
ATOM     19  H   UNL     1      14.150   5.735  22.929  0.00  0.00    +0.292 HD
ENDBRANCH  15  18
BRANCH  16  20
ATOM     20  O   UNL     1      12.917   7.108  24.165  0.00  0.00    -0.503 OA
ATOM     21  H   UNL     1      13.832   6.804  24.025  0.00  0.00    +0.292 HD
ENDBRANCH  16  20
ENDBRANCH   1  13
BRANCH   5  22
ATOM     22  O   UNL     1      10.042  -3.327  24.152  0.00  0.00    -0.506 OA
ATOM     23  H   UNL     1       9.772  -3.697  25.011  0.00  0.00    +0.292 HD
ENDBRANCH   5  22
BRANCH   6  24
ATOM     24  C   UNL     1       7.265  -3.538  23.091  0.00  0.00    +0.201 C 
ATOM     25  O   UNL     1       7.074  -3.889  21.923  0.00  0.00    -0.289 OA
BRANCH  24  26
ATOM     26  C   UNL     1       6.716  -4.435  24.220  0.00  0.00    +0.223 C 
ATOM     27  O   UNL     1       6.006  -5.615  23.784  0.00  0.00    -0.335 OA
ATOM     28  C   UNL     1       4.780  -5.389  23.084  0.00  0.00    +0.279 C 
ATOM     29  C   UNL     1       3.805  -4.569  23.948  0.00  0.00    +0.201 C 
ATOM     30  C   UNL     1       4.475  -3.287  24.442  0.00  0.00    +0.179 C 
ATOM     31  C   UNL     1       5.802  -3.610  25.142  0.00  0.00    +0.182 C 
BRANCH  28  32
ATOM     32  O   UNL     1       4.202  -6.665  22.807  0.00  0.00    -0.365 OA
ATOM     33  H   UNL     1       4.933  -7.275  22.607  0.00  0.00    +0.213 HD
ENDBRANCH  28  32
BRANCH  29  34
ATOM     34  O   UNL     1       3.411  -5.354  25.104  0.00  0.00    -0.384 OA
ATOM     35  H   UNL     1       2.794  -6.044  24.782  0.00  0.00    +0.210 HD
ENDBRANCH  29  34
BRANCH  30  36
ATOM     36  O   UNL     1       3.641  -2.600  25.391  0.00  0.00    -0.386 OA
ATOM     37  H   UNL     1       3.978  -2.845  26.276  0.00  0.00    +0.210 HD
ENDBRANCH  30  36
BRANCH  31  38
ATOM     38  O   UNL     1       6.382  -2.395  25.624  0.00  0.00    -0.386 OA
ATOM     39  H   UNL     1       5.670  -1.726  25.545  0.00  0.00    +0.210 HD
ENDBRANCH  31  38
ENDBRANCH  24  26
ENDBRANCH   6  24
BRANCH   7  40
ATOM     40  O   UNL     1       6.081  -0.995  22.685  0.00  0.00    -0.505 OA
ATOM     41  H   UNL     1       5.471  -1.166  23.436  0.00  0.00    +0.292 HD
ENDBRANCH   7  40
BRANCH  11  42
ATOM     42  O   UNL     1       7.969   3.761  22.061  0.00  0.00    -0.501 OA
ATOM     43  H   UNL     1       7.033   3.915  22.277  0.00  0.00    +0.292 HD
ENDBRANCH  11  42
TORSDOF 12
ENDMDL
MODEL 3
REMARK VINA RESULT:      -8.5      1.246      1.554
REMARK  Name = 
REMARK  12 active torsions:
REMARK  status: ('A' for Active; 'I' for Inactive)
REMARK    1  A    between atoms: C_3  and  O_34
REMARK    2  A    between atoms: C_4  and  O_33
REMARK    3  A    between atoms: C_6  and  C_7
REMARK    4  A    between atoms: C_8  and  O_32
REMARK    5  A    between atoms: C_15  and  O_31
REMARK    6  A    between atoms: C_16  and  C_19
REMARK    7  A    between atoms: C_17  and  O_18
REMARK    8  A    between atoms: C_19  and  C_21
REMARK    9  A    between atoms: C_22  and  O_30
REMARK   10  A    between atoms: C_23  and  O_29
REMARK   11  A    between atoms: C_24  and  O_28
REMARK   12  A    between atoms: C_25  and  O_27
REMARK                            x       y       z     vdW  Elec       q    Type
REMARK                         _______ _______ _______ _____ _____    ______ ____
ROOT
ATOM      1  C   UNL     1       9.605   2.619  23.470  0.00  0.00    +0.181 A 
ATOM      2  O   UNL     1      10.095   1.431  24.005  0.00  0.00    -0.451 OA
ATOM      3  C   UNL     1       9.382   0.272  23.812  0.00  0.00    +0.147 A 
ATOM      4  C   UNL     1       9.995  -0.933  24.139  0.00  0.00    +0.093 A 
ATOM      5  C   UNL     1       9.323  -2.149  23.923  0.00  0.00    +0.134 A 
ATOM      6  C   UNL     1       7.998  -2.191  23.447  0.00  0.00    +0.104 A 
ATOM      7  C   UNL     1       7.377  -0.951  23.184  0.00  0.00    +0.145 A 
ATOM      8  C   UNL     1       8.094   0.255  23.301  0.00  0.00    +0.110 A 
ATOM      9  C   UNL     1       7.545   1.516  22.786  0.00  0.00    +0.238 A 
ATOM     10  O   UNL     1       6.417   1.541  22.300  0.00  0.00    -0.283 OA
ATOM     11  C   UNL     1       8.428   2.704  22.803  0.00  0.00    +0.208 A 
ENDROOT
BRANCH   1  13
ATOM     12  C   UNL     1      10.040   4.990  24.260  0.00  0.00    +0.015 A 
ATOM     13  C   UNL     1      10.507   3.792  23.674  0.00  0.00    +0.025 A 
ATOM     14  C   UNL     1      11.859   3.732  23.310  0.00  0.00    +0.060 A 
ATOM     15  C   UNL     1      12.679   4.850  23.472  0.00  0.00    +0.159 A 
ATOM     16  C   UNL     1      12.179   6.041  23.986  0.00  0.00    +0.158 A 
ATOM     17  C   UNL     1      10.857   6.119  24.392  0.00  0.00    +0.050 A 
BRANCH  15  18
ATOM     18  O   UNL     1      13.995   4.769  23.112  0.00  0.00    -0.503 OA
ATOM     19  H   UNL     1      14.055   3.951  22.579  0.00  0.00    +0.292 HD
ENDBRANCH  15  18
BRANCH  16  20
ATOM     20  O   UNL     1      13.029   7.107  24.076  0.00  0.00    -0.503 OA
ATOM     21  H   UNL     1      13.449   7.091  24.955  0.00  0.00    +0.292 HD
ENDBRANCH  16  20
ENDBRANCH   1  13
BRANCH   5  22
ATOM     22  O   UNL     1      10.030  -3.290  24.170  0.00  0.00    -0.506 OA
ATOM     23  H   UNL     1      10.850  -3.290  23.645  0.00  0.00    +0.292 HD
ENDBRANCH   5  22
BRANCH   6  24
ATOM     24  C   UNL     1       7.226  -3.472  23.179  0.00  0.00    +0.201 C 
ATOM     25  O   UNL     1       7.502  -4.163  22.194  0.00  0.00    -0.289 OA
BRANCH  24  26
ATOM     26  C   UNL     1       6.083  -3.945  24.102  0.00  0.00    +0.223 C 
ATOM     27  O   UNL     1       5.596  -2.960  25.040  0.00  0.00    -0.335 OA
ATOM     28  C   UNL     1       6.519  -2.544  26.049  0.00  0.00    +0.279 C 
ATOM     29  C   UNL     1       7.004  -3.751  26.872  0.00  0.00    +0.201 C 
ATOM     30  C   UNL     1       7.553  -4.841  25.952  0.00  0.00    +0.179 C 
ATOM     31  C   UNL     1       6.522  -5.200  24.873  0.00  0.00    +0.182 C 
BRANCH  28  32
ATOM     32  O   UNL     1       5.832  -1.634  26.911  0.00  0.00    -0.365 OA
ATOM     33  H   UNL     1       5.236  -1.105  26.353  0.00  0.00    +0.213 HD
ENDBRANCH  28  32
BRANCH  29  34
ATOM     34  O   UNL     1       5.888  -4.301  27.621  0.00  0.00    -0.384 OA
ATOM     35  H   UNL     1       5.103  -3.756  27.404  0.00  0.00    +0.210 HD
ENDBRANCH  29  34
BRANCH  30  36
ATOM     36  O   UNL     1       7.844  -6.041  26.689  0.00  0.00    -0.386 OA
ATOM     37  H   UNL     1       7.381  -5.953  27.546  0.00  0.00    +0.210 HD
ENDBRANCH  30  36
BRANCH  31  38
ATOM     38  O   UNL     1       7.051  -6.248  24.056  0.00  0.00    -0.386 OA
ATOM     39  H   UNL     1       7.461  -5.790  23.292  0.00  0.00    +0.210 HD
ENDBRANCH  31  38
ENDBRANCH  24  26
ENDBRANCH   6  24
BRANCH   7  40
ATOM     40  O   UNL     1       6.061  -0.917  22.793  0.00  0.00    -0.505 OA
ATOM     41  H   UNL     1       5.900  -0.161  22.186  0.00  0.00    +0.292 HD
ENDBRANCH   7  40
BRANCH  11  42
ATOM     42  O   UNL     1       7.988   3.814  22.107  0.00  0.00    -0.501 OA
ATOM     43  H   UNL     1       7.020   3.765  22.027  0.00  0.00    +0.292 HD
ENDBRANCH  11  42
TORSDOF 12
ENDMDL
MODEL 4
REMARK VINA RESULT:      -8.3      1.257      2.099
REMARK  Name = 
REMARK  12 active torsions:
REMARK  status: ('A' for Active; 'I' for Inactive)
REMARK    1  A    between atoms: C_3  and  O_34
REMARK    2  A    between atoms: C_4  and  O_33
REMARK    3  A    between atoms: C_6  and  C_7
REMARK    4  A    between atoms: C_8  and  O_32
REMARK    5  A    between atoms: C_15  and  O_31
REMARK    6  A    between atoms: C_16  and  C_19
REMARK    7  A    between atoms: C_17  and  O_18
REMARK    8  A    between atoms: C_19  and  C_21
REMARK    9  A    between atoms: C_22  and  O_30
REMARK   10  A    between atoms: C_23  and  O_29
REMARK   11  A    between atoms: C_24  and  O_28
REMARK   12  A    between atoms: C_25  and  O_27
REMARK                            x       y       z     vdW  Elec       q    Type
REMARK                         _______ _______ _______ _____ _____    ______ ____
ROOT
ATOM      1  C   UNL     1       9.480   2.583  23.815  0.00  0.00    +0.181 A 
ATOM      2  O   UNL     1       9.631   1.711  24.888  0.00  0.00    -0.451 OA
ATOM      3  C   UNL     1       8.901   0.546  24.905  0.00  0.00    +0.147 A 
ATOM      4  C   UNL     1       9.235  -0.418  25.850  0.00  0.00    +0.093 A 
ATOM      5  C   UNL     1       8.545  -1.644  25.882  0.00  0.00    +0.134 A 
ATOM      6  C   UNL     1       7.459  -1.908  25.025  0.00  0.00    +0.104 A 
ATOM      7  C   UNL     1       7.101  -0.886  24.119  0.00  0.00    +0.145 A 
ATOM      8  C   UNL     1       7.864   0.293  24.021  0.00  0.00    +0.110 A 
ATOM      9  C   UNL     1       7.660   1.239  22.917  0.00  0.00    +0.238 A 
ATOM     10  O   UNL     1       6.769   1.039  22.095  0.00  0.00    -0.283 OA
ATOM     11  C   UNL     1       8.610   2.368  22.797  0.00  0.00    +0.208 A 
ENDROOT
BRANCH   1  13
ATOM     12  C   UNL     1       9.928   5.027  24.329  0.00  0.00    +0.015 A 
ATOM     13  C   UNL     1      10.385   3.771  23.868  0.00  0.00    +0.025 A 
ATOM     14  C   UNL     1      11.729   3.670  23.483  0.00  0.00    +0.060 A 
ATOM     15  C   UNL     1      12.550   4.798  23.504  0.00  0.00    +0.159 A 
ATOM     16  C   UNL     1      12.059   6.039  23.894  0.00  0.00    +0.158 A 
ATOM     17  C   UNL     1      10.746   6.163  24.318  0.00  0.00    +0.050 A 
BRANCH  15  18
ATOM     18  O   UNL     1      13.858   4.678  23.125  0.00  0.00    -0.503 OA
ATOM     19  H   UNL     1      14.026   5.464  22.567  0.00  0.00    +0.292 HD
ENDBRANCH  15  18
BRANCH  16  20
ATOM     20  O   UNL     1      12.910   7.108  23.847  0.00  0.00    -0.503 OA
ATOM     21  H   UNL     1      13.578   6.999  24.548  0.00  0.00    +0.292 HD
ENDBRANCH  16  20
ENDBRANCH   1  13
BRANCH   5  22
ATOM     22  O   UNL     1       9.001  -2.578  26.767  0.00  0.00    -0.506 OA
ATOM     23  H   UNL     1       9.799  -2.246  27.215  0.00  0.00    +0.292 HD
ENDBRANCH   5  22
BRANCH   6  24
ATOM     24  C   UNL     1       6.686  -3.216  25.002  0.00  0.00    +0.201 C 
ATOM     25  O   UNL     1       5.643  -3.326  25.651  0.00  0.00    -0.289 OA
BRANCH  24  26
ATOM     26  C   UNL     1       7.171  -4.436  24.191  0.00  0.00    +0.223 C 
ATOM     27  O   UNL     1       7.032  -4.322  22.757  0.00  0.00    -0.335 OA
ATOM     28  C   UNL     1       5.694  -4.261  22.259  0.00  0.00    +0.279 C 
ATOM     29  C   UNL     1       4.895  -5.503  22.694  0.00  0.00    +0.201 C 
ATOM     30  C   UNL     1       4.977  -5.690  24.209  0.00  0.00    +0.179 C 
ATOM     31  C   UNL     1       6.441  -5.702  24.669  0.00  0.00    +0.182 C 
BRANCH  28  32
ATOM     32  O   UNL     1       5.767  -4.226  20.833  0.00  0.00    -0.365 OA
ATOM     33  H   UNL     1       5.192  -4.935  20.498  0.00  0.00    +0.213 HD
ENDBRANCH  28  32
BRANCH  29  34
ATOM     34  O   UNL     1       5.454  -6.682  22.055  0.00  0.00    -0.384 OA
ATOM     35  H   UNL     1       4.821  -7.414  22.205  0.00  0.00    +0.210 HD
ENDBRANCH  29  34
BRANCH  30  36
ATOM     36  O   UNL     1       4.388  -6.939  24.608  0.00  0.00    -0.386 OA
ATOM     37  H   UNL     1       4.471  -7.537  23.839  0.00  0.00    +0.210 HD
ENDBRANCH  30  36
BRANCH  31  38
ATOM     38  O   UNL     1       6.483  -5.917  26.082  0.00  0.00    -0.386 OA
ATOM     39  H   UNL     1       5.623  -6.334  26.300  0.00  0.00    +0.210 HD
ENDBRANCH  31  38
ENDBRANCH  24  26
ENDBRANCH   6  24
BRANCH   7  40
ATOM     40  O   UNL     1       6.003  -1.046  23.311  0.00  0.00    -0.505 OA
ATOM     41  H   UNL     1       5.962  -0.332  22.637  0.00  0.00    +0.292 HD
ENDBRANCH   7  40
BRANCH  11  42
ATOM     42  O   UNL     1       8.552   3.108  21.632  0.00  0.00    -0.501 OA
ATOM     43  H   UNL     1       7.866   3.791  21.734  0.00  0.00    +0.292 HD
ENDBRANCH  11  42
TORSDOF 12
ENDMDL
MODEL 5
REMARK VINA RESULT:      -8.2      2.252      9.708
REMARK  Name = 
REMARK  12 active torsions:
REMARK  status: ('A' for Active; 'I' for Inactive)
REMARK    1  A    between atoms: C_3  and  O_34
REMARK    2  A    between atoms: C_4  and  O_33
REMARK    3  A    between atoms: C_6  and  C_7
REMARK    4  A    between atoms: C_8  and  O_32
REMARK    5  A    between atoms: C_15  and  O_31
REMARK    6  A    between atoms: C_16  and  C_19
REMARK    7  A    between atoms: C_17  and  O_18
REMARK    8  A    between atoms: C_19  and  C_21
REMARK    9  A    between atoms: C_22  and  O_30
REMARK   10  A    between atoms: C_23  and  O_29
REMARK   11  A    between atoms: C_24  and  O_28
REMARK   12  A    between atoms: C_25  and  O_27
REMARK                            x       y       z     vdW  Elec       q    Type
REMARK                         _______ _______ _______ _____ _____    ______ ____
ROOT
ATOM      1  C   UNL     1       4.865  -4.887  23.726  0.00  0.00    +0.181 A 
ATOM      2  O   UNL     1       4.978  -4.062  24.840  0.00  0.00    -0.451 OA
ATOM      3  C   UNL     1       5.963  -3.104  24.861  0.00  0.00    +0.147 A 
ATOM      4  C   UNL     1       5.914  -2.139  25.861  0.00  0.00    +0.093 A 
ATOM      5  C   UNL     1       6.876  -1.113  25.902  0.00  0.00    +0.134 A 
ATOM      6  C   UNL     1       7.951  -1.067  24.993  0.00  0.00    +0.104 A 
ATOM      7  C   UNL     1       8.012  -2.095  24.028  0.00  0.00    +0.145 A 
ATOM      8  C   UNL     1       6.987  -3.055  23.928  0.00  0.00    +0.110 A 
ATOM      9  C   UNL     1       6.907  -3.963  22.776  0.00  0.00    +0.238 A 
ATOM     10  O   UNL     1       7.780  -3.934  21.912  0.00  0.00    -0.283 OA
ATOM     11  C   UNL     1       5.712  -4.829  22.668  0.00  0.00    +0.208 A 
ENDROOT
BRANCH   1  13
ATOM     12  C   UNL     1       2.484  -5.539  23.141  0.00  0.00    +0.015 A 
ATOM     13  C   UNL     1       3.708  -5.831  23.785  0.00  0.00    +0.025 A 
ATOM     14  C   UNL     1       3.810  -7.052  24.464  0.00  0.00    +0.060 A 
ATOM     15  C   UNL     1       2.707  -7.905  24.541  0.00  0.00    +0.159 A 
ATOM     16  C   UNL     1       1.491  -7.564  23.960  0.00  0.00    +0.158 A 
ATOM     17  C   UNL     1       1.371  -6.382  23.248  0.00  0.00    +0.050 A 
BRANCH  15  18
ATOM     18  O   UNL     1       2.828  -9.092  25.208  0.00  0.00    -0.503 OA
ATOM     19  H   UNL     1       2.946  -8.837  26.145  0.00  0.00    +0.292 HD
ENDBRANCH  15  18
BRANCH  16  20
ATOM     20  O   UNL     1       0.443  -8.428  24.114  0.00  0.00    -0.503 OA
ATOM     21  H   UNL     1      -0.266  -8.160  23.502  0.00  0.00    +0.292 HD
ENDBRANCH  16  20
ENDBRANCH   1  13
BRANCH   5  22
ATOM     22  O   UNL     1       6.698  -0.146  26.849  0.00  0.00    -0.506 OA
ATOM     23  H   UNL     1       6.154   0.575  26.486  0.00  0.00    +0.292 HD
ENDBRANCH   5  22
BRANCH   6  24
ATOM     24  C   UNL     1       9.010   0.022  24.976  0.00  0.00    +0.201 C 
ATOM     25  O   UNL     1      10.197  -0.270  25.146  0.00  0.00    -0.289 OA
BRANCH  24  26
ATOM     26  C   UNL     1       8.650   1.507  24.761  0.00  0.00    +0.223 C 
ATOM     27  O   UNL     1       7.308   1.757  24.286  0.00  0.00    -0.335 OA
ATOM     28  C   UNL     1       7.008   1.280  22.973  0.00  0.00    +0.279 C 
ATOM     29  C   UNL     1       7.974   1.886  21.940  0.00  0.00    +0.201 C 
ATOM     30  C   UNL     1       9.425   1.652  22.360  0.00  0.00    +0.179 C 
ATOM     31  C   UNL     1       9.655   2.152  23.793  0.00  0.00    +0.182 C 
BRANCH  28  32
ATOM     32  O   UNL     1       5.674   1.686  22.663  0.00  0.00    -0.365 OA
ATOM     33  H   UNL     1       5.270   2.001  23.490  0.00  0.00    +0.213 HD
ENDBRANCH  28  32
BRANCH  29  34
ATOM     34  O   UNL     1       7.747   3.319  21.854  0.00  0.00    -0.384 OA
ATOM     35  H   UNL     1       7.384   3.496  20.961  0.00  0.00    +0.210 HD
ENDBRANCH  29  34
BRANCH  30  36
ATOM     36  O   UNL     1      10.333   2.363  21.502  0.00  0.00    -0.386 OA
ATOM     37  H   UNL     1      10.010   3.286  21.470  0.00  0.00    +0.210 HD
ENDBRANCH  30  36
BRANCH  31  38
ATOM     38  O   UNL     1      11.028   1.953  24.139  0.00  0.00    -0.386 OA
ATOM     39  H   UNL     1      11.127   2.360  25.026  0.00  0.00    +0.210 HD
ENDBRANCH  31  38
ENDBRANCH  24  26
ENDBRANCH   6  24
BRANCH   7  40
ATOM     40  O   UNL     1       9.076  -2.155  23.162  0.00  0.00    -0.505 OA
ATOM     41  H   UNL     1       8.777  -2.021  22.235  0.00  0.00    +0.292 HD
ENDBRANCH   7  40
BRANCH  11  42
ATOM     42  O   UNL     1       5.537  -5.499  21.473  0.00  0.00    -0.501 OA
ATOM     43  H   UNL     1       4.690  -5.220  21.083  0.00  0.00    +0.292 HD
ENDBRANCH  11  42
TORSDOF 12
ENDMDL
MODEL 6
REMARK VINA RESULT:      -8.0      1.518      2.614
REMARK  Name = 
REMARK  12 active torsions:
REMARK  status: ('A' for Active; 'I' for Inactive)
REMARK    1  A    between atoms: C_3  and  O_34
REMARK    2  A    between atoms: C_4  and  O_33
REMARK    3  A    between atoms: C_6  and  C_7
REMARK    4  A    between atoms: C_8  and  O_32
REMARK    5  A    between atoms: C_15  and  O_31
REMARK    6  A    between atoms: C_16  and  C_19
REMARK    7  A    between atoms: C_17  and  O_18
REMARK    8  A    between atoms: C_19  and  C_21
REMARK    9  A    between atoms: C_22  and  O_30
REMARK   10  A    between atoms: C_23  and  O_29
REMARK   11  A    between atoms: C_24  and  O_28
REMARK   12  A    between atoms: C_25  and  O_27
REMARK                            x       y       z     vdW  Elec       q    Type
REMARK                         _______ _______ _______ _____ _____    ______ ____
ROOT
ATOM      1  C   UNL     1       9.466   2.620  23.697  0.00  0.00    +0.181 A 
ATOM      2  O   UNL     1       8.851   2.249  24.889  0.00  0.00    -0.451 OA
ATOM      3  C   UNL     1       8.047   1.135  24.902  0.00  0.00    +0.147 A 
ATOM      4  C   UNL     1       7.637   0.641  26.136  0.00  0.00    +0.093 A 
ATOM      5  C   UNL     1       6.846  -0.520  26.206  0.00  0.00    +0.134 A 
ATOM      6  C   UNL     1       6.383  -1.174  25.047  0.00  0.00    +0.104 A 
ATOM      7  C   UNL     1       6.762  -0.615  23.808  0.00  0.00    +0.145 A 
ATOM      8  C   UNL     1       7.641   0.484  23.748  0.00  0.00    +0.110 A 
ATOM      9  C   UNL     1       8.241   0.906  22.477  0.00  0.00    +0.238 A 
ATOM     10  O   UNL     1       7.930   0.338  21.433  0.00  0.00    -0.283 OA
ATOM     11  C   UNL     1       9.276   1.963  22.526  0.00  0.00    +0.208 A 
ENDROOT
BRANCH   1  13
ATOM     12  C   UNL     1       9.926   5.028  24.352  0.00  0.00    +0.015 A 
ATOM     13  C   UNL     1      10.379   3.796  23.827  0.00  0.00    +0.025 A 
ATOM     14  C   UNL     1      11.726   3.705  23.454  0.00  0.00    +0.060 A 
ATOM     15  C   UNL     1      12.556   4.824  23.546  0.00  0.00    +0.159 A 
ATOM     16  C   UNL     1      12.070   6.045  23.999  0.00  0.00    +0.158 A 
ATOM     17  C   UNL     1      10.752   6.156  24.414  0.00  0.00    +0.050 A 
BRANCH  15  18
ATOM     18  O   UNL     1      13.867   4.713  23.177  0.00  0.00    -0.503 OA
ATOM     19  H   UNL     1      14.318   5.442  23.650  0.00  0.00    +0.292 HD
ENDBRANCH  15  18
BRANCH  16  20
ATOM     20  O   UNL     1      12.929   7.108  24.022  0.00  0.00    -0.503 OA
ATOM     21  H   UNL     1      13.747   6.850  23.560  0.00  0.00    +0.292 HD
ENDBRANCH  16  20
ENDBRANCH   1  13
BRANCH   5  22
ATOM     22  O   UNL     1       6.574  -1.000  27.455  0.00  0.00    -0.506 OA
ATOM     23  H   UNL     1       7.405  -1.187  27.925  0.00  0.00    +0.292 HD
ENDBRANCH   5  22
BRANCH   6  24
ATOM     24  C   UNL     1       5.542  -2.439  25.058  0.00  0.00    +0.201 C 
ATOM     25  O   UNL     1       4.323  -2.369  24.874  0.00  0.00    -0.289 OA
BRANCH  24  26
ATOM     26  C   UNL     1       6.162  -3.830  25.304  0.00  0.00    +0.223 C 
ATOM     27  O   UNL     1       7.606  -3.868  25.335  0.00  0.00    -0.335 OA
ATOM     28  C   UNL     1       8.269  -3.560  24.107  0.00  0.00    +0.279 C 
ATOM     29  C   UNL     1       7.815  -4.518  22.989  0.00  0.00    +0.201 C 
ATOM     30  C   UNL     1       6.291  -4.527  22.878  0.00  0.00    +0.179 C 
ATOM     31  C   UNL     1       5.655  -4.821  24.243  0.00  0.00    +0.182 C 
BRANCH  28  32
ATOM     32  O   UNL     1       9.672  -3.724  24.323  0.00  0.00    -0.365 OA
ATOM     33  H   UNL     1      10.097  -3.740  23.449  0.00  0.00    +0.213 HD
ENDBRANCH  28  32
BRANCH  29  34
ATOM     34  O   UNL     1       8.260  -5.865  23.301  0.00  0.00    -0.384 OA
ATOM     35  H   UNL     1       8.880  -5.792  24.057  0.00  0.00    +0.210 HD
ENDBRANCH  29  34
BRANCH  30  36
ATOM     36  O   UNL     1       5.846  -5.543  21.964  0.00  0.00    -0.386 OA
ATOM     37  H   UNL     1       5.755  -5.106  21.094  0.00  0.00    +0.210 HD
ENDBRANCH  30  36
BRANCH  31  38
ATOM     38  O   UNL     1       4.233  -4.861  24.095  0.00  0.00    -0.386 OA
ATOM     39  H   UNL     1       4.083  -5.109  23.159  0.00  0.00    +0.210 HD
ENDBRANCH  31  38
ENDBRANCH  24  26
ENDBRANCH   6  24
BRANCH   7  40
ATOM     40  O   UNL     1       6.281  -1.156  22.641  0.00  0.00    -0.505 OA
ATOM     41  H   UNL     1       5.298  -1.157  22.639  0.00  0.00    +0.292 HD
ENDBRANCH   7  40
BRANCH  11  42
ATOM     42  O   UNL     1       9.994   2.184  21.366  0.00  0.00    -0.501 OA
ATOM     43  H   UNL     1       9.522   1.765  20.626  0.00  0.00    +0.292 HD
ENDBRANCH  11  42
TORSDOF 12
ENDMDL
MODEL 7
REMARK VINA RESULT:      -7.9      2.388      9.820
REMARK  Name = 
REMARK  12 active torsions:
REMARK  status: ('A' for Active; 'I' for Inactive)
REMARK    1  A    between atoms: C_3  and  O_34
REMARK    2  A    between atoms: C_4  and  O_33
REMARK    3  A    between atoms: C_6  and  C_7
REMARK    4  A    between atoms: C_8  and  O_32
REMARK    5  A    between atoms: C_15  and  O_31
REMARK    6  A    between atoms: C_16  and  C_19
REMARK    7  A    between atoms: C_17  and  O_18
REMARK    8  A    between atoms: C_19  and  C_21
REMARK    9  A    between atoms: C_22  and  O_30
REMARK   10  A    between atoms: C_23  and  O_29
REMARK   11  A    between atoms: C_24  and  O_28
REMARK   12  A    between atoms: C_25  and  O_27
REMARK                            x       y       z     vdW  Elec       q    Type
REMARK                         _______ _______ _______ _____ _____    ______ ____
ROOT
ATOM      1  C   UNL     1       4.406  -4.968  24.897  0.00  0.00    +0.181 A 
ATOM      2  O   UNL     1       5.247  -4.444  25.874  0.00  0.00    -0.451 OA
ATOM      3  C   UNL     1       6.191  -3.516  25.510  0.00  0.00    +0.147 A 
ATOM      4  C   UNL     1       6.856  -2.830  26.521  0.00  0.00    +0.093 A 
ATOM      5  C   UNL     1       7.803  -1.840  26.199  0.00  0.00    +0.134 A 
ATOM      6  C   UNL     1       8.164  -1.563  24.866  0.00  0.00    +0.104 A 
ATOM      7  C   UNL     1       7.521  -2.318  23.863  0.00  0.00    +0.145 A 
ATOM      8  C   UNL     1       6.498  -3.230  24.189  0.00  0.00    +0.110 A 
ATOM      9  C   UNL     1       5.651  -3.823  23.146  0.00  0.00    +0.238 A 
ATOM     10  O   UNL     1       5.870  -3.576  21.963  0.00  0.00    -0.283 OA
ATOM     11  C   UNL     1       4.498  -4.643  23.584  0.00  0.00    +0.208 A 
ENDROOT
BRANCH   1  13
ATOM     12  C   UNL     1       2.345  -5.456  26.294  0.00  0.00    +0.015 A 
ATOM     13  C   UNL     1       3.369  -5.903  25.428  0.00  0.00    +0.025 A 
ATOM     14  C   UNL     1       3.364  -7.256  25.061  0.00  0.00    +0.060 A 
ATOM     15  C   UNL     1       2.411  -8.124  25.596  0.00  0.00    +0.159 A 
ATOM     16  C   UNL     1       1.457  -7.675  26.503  0.00  0.00    +0.158 A 
ATOM     17  C   UNL     1       1.410  -6.336  26.853  0.00  0.00    +0.050 A 
BRANCH  15  18
ATOM     18  O   UNL     1       2.424  -9.439  25.225  0.00  0.00    -0.503 OA
ATOM     19  H   UNL     1       1.545  -9.590  24.822  0.00  0.00    +0.292 HD
ENDBRANCH  15  18
BRANCH  16  20
ATOM     20  O   UNL     1       0.583  -8.591  27.018  0.00  0.00    -0.503 OA
ATOM     21  H   UNL     1       0.187  -9.087  26.278  0.00  0.00    +0.292 HD
ENDBRANCH  16  20
ENDBRANCH   1  13
BRANCH   5  22
ATOM     22  O   UNL     1       8.334  -1.140  27.245  0.00  0.00    -0.506 OA
ATOM     23  H   UNL     1       8.363  -0.192  27.025  0.00  0.00    +0.292 HD
ENDBRANCH   5  22
BRANCH   6  24
ATOM     24  C   UNL     1       9.166  -0.497  24.456  0.00  0.00    +0.201 C 
ATOM     25  O   UNL     1      10.282  -0.827  24.043  0.00  0.00    -0.289 OA
BRANCH  24  26
ATOM     26  C   UNL     1       8.840   1.008  24.549  0.00  0.00    +0.223 C 
ATOM     27  O   UNL     1       7.519   1.385  24.102  0.00  0.00    -0.335 OA
ATOM     28  C   UNL     1       7.250   1.200  22.710  0.00  0.00    +0.279 C 
ATOM     29  C   UNL     1       8.259   1.986  21.853  0.00  0.00    +0.201 C 
ATOM     30  C   UNL     1       9.691   1.633  22.253  0.00  0.00    +0.179 C 
ATOM     31  C   UNL     1       9.887   1.816  23.764  0.00  0.00    +0.182 C 
BRANCH  28  32
ATOM     32  O   UNL     1       5.934   1.694  22.458  0.00  0.00    -0.365 OA
ATOM     33  H   UNL     1       5.766   1.591  21.506  0.00  0.00    +0.213 HD
ENDBRANCH  28  32
BRANCH  29  34
ATOM     34  O   UNL     1       8.061   3.409  22.063  0.00  0.00    -0.384 OA
ATOM     35  H   UNL     1       7.383   3.701  21.419  0.00  0.00    +0.210 HD
ENDBRANCH  29  34
BRANCH  30  36
ATOM     36  O   UNL     1      10.638   2.486  21.587  0.00  0.00    -0.386 OA
ATOM     37  H   UNL     1      10.712   2.148  20.672  0.00  0.00    +0.210 HD
ENDBRANCH  30  36
BRANCH  31  38
ATOM     38  O   UNL     1      11.245   1.516  24.096  0.00  0.00    -0.386 OA
ATOM     39  H   UNL     1      11.782   2.058  23.480  0.00  0.00    +0.210 HD
ENDBRANCH  31  38
ENDBRANCH  24  26
ENDBRANCH   6  24
BRANCH   7  40
ATOM     40  O   UNL     1       7.882  -2.155  22.549  0.00  0.00    -0.505 OA
ATOM     41  H   UNL     1       8.701  -1.615  22.479  0.00  0.00    +0.292 HD
ENDBRANCH   7  40
BRANCH  11  42
ATOM     42  O   UNL     1       3.583  -4.996  22.612  0.00  0.00    -0.501 OA
ATOM     43  H   UNL     1       3.092  -5.778  22.919  0.00  0.00    +0.292 HD
ENDBRANCH  11  42
TORSDOF 12
ENDMDL
MODEL 8
REMARK VINA RESULT:      -7.9      2.441      9.909
REMARK  Name = 
REMARK  12 active torsions:
REMARK  status: ('A' for Active; 'I' for Inactive)
REMARK    1  A    between atoms: C_3  and  O_34
REMARK    2  A    between atoms: C_4  and  O_33
REMARK    3  A    between atoms: C_6  and  C_7
REMARK    4  A    between atoms: C_8  and  O_32
REMARK    5  A    between atoms: C_15  and  O_31
REMARK    6  A    between atoms: C_16  and  C_19
REMARK    7  A    between atoms: C_17  and  O_18
REMARK    8  A    between atoms: C_19  and  C_21
REMARK    9  A    between atoms: C_22  and  O_30
REMARK   10  A    between atoms: C_23  and  O_29
REMARK   11  A    between atoms: C_24  and  O_28
REMARK   12  A    between atoms: C_25  and  O_27
REMARK                            x       y       z     vdW  Elec       q    Type
REMARK                         _______ _______ _______ _____ _____    ______ ____
ROOT
ATOM      1  C   UNL     1       4.135  -4.836  24.507  0.00  0.00    +0.181 A 
ATOM      2  O   UNL     1       4.976  -4.412  23.483  0.00  0.00    -0.451 OA
ATOM      3  C   UNL     1       5.912  -3.442  23.750  0.00  0.00    +0.147 A 
ATOM      4  C   UNL     1       6.894  -3.203  22.795  0.00  0.00    +0.093 A 
ATOM      5  C   UNL     1       7.899  -2.249  23.038  0.00  0.00    +0.134 A 
ATOM      6  C   UNL     1       7.907  -1.459  24.204  0.00  0.00    +0.104 A 
ATOM      7  C   UNL     1       6.862  -1.679  25.127  0.00  0.00    +0.145 A 
ATOM      8  C   UNL     1       5.923  -2.709  24.925  0.00  0.00    +0.110 A 
ATOM      9  C   UNL     1       4.999  -3.112  25.993  0.00  0.00    +0.238 A 
ATOM     10  O   UNL     1       4.994  -2.505  27.061  0.00  0.00    -0.283 OA
ATOM     11  C   UNL     1       4.157  -4.306  25.755  0.00  0.00    +0.208 A 
ENDROOT
BRANCH   1  13
ATOM     12  C   UNL     1       2.297  -5.809  23.053  0.00  0.00    +0.015 A 
ATOM     13  C   UNL     1       3.218  -5.949  24.117  0.00  0.00    +0.025 A 
ATOM     14  C   UNL     1       3.260  -7.182  24.781  0.00  0.00    +0.060 A 
ATOM     15  C   UNL     1       2.371  -8.199  24.429  0.00  0.00    +0.159 A 
ATOM     16  C   UNL     1       1.426  -8.013  23.426  0.00  0.00    +0.158 A 
ATOM     17  C   UNL     1       1.386  -6.820  22.724  0.00  0.00    +0.050 A 
BRANCH  15  18
ATOM     18  O   UNL     1       2.430  -9.394  25.089  0.00  0.00    -0.503 OA
ATOM     19  H   UNL     1       1.589  -9.841  24.864  0.00  0.00    +0.292 HD
ENDBRANCH  15  18
BRANCH  16  20
ATOM     20  O   UNL     1       0.560  -9.038  23.165  0.00  0.00    -0.503 OA
ATOM     21  H   UNL     1       1.051  -9.745  22.710  0.00  0.00    +0.292 HD
ENDBRANCH  16  20
ENDBRANCH   1  13
BRANCH   5  22
ATOM     22  O   UNL     1       8.885  -2.148  22.099  0.00  0.00    -0.506 OA
ATOM     23  H   UNL     1       8.498  -1.910  21.238  0.00  0.00    +0.292 HD
ENDBRANCH   5  22
BRANCH   6  24
ATOM     24  C   UNL     1       8.972  -0.426  24.530  0.00  0.00    +0.201 C 
ATOM     25  O   UNL     1      10.126  -0.788  24.777  0.00  0.00    -0.289 OA
BRANCH  24  26
ATOM     26  C   UNL     1       8.658   1.084  24.573  0.00  0.00    +0.223 C 
ATOM     27  O   UNL     1       7.347   1.459  24.097  0.00  0.00    -0.335 OA
ATOM     28  C   UNL     1       7.096   1.235  22.708  0.00  0.00    +0.279 C 
ATOM     29  C   UNL     1       8.123   1.987  21.842  0.00  0.00    +0.201 C 
ATOM     30  C   UNL     1       9.547   1.634  22.272  0.00  0.00    +0.179 C 
ATOM     31  C   UNL     1       9.723   1.860  23.780  0.00  0.00    +0.182 C 
BRANCH  28  32
ATOM     32  O   UNL     1       5.787   1.733  22.423  0.00  0.00    -0.365 OA
ATOM     33  H   UNL     1       5.877   2.683  22.233  0.00  0.00    +0.213 HD
ENDBRANCH  28  32
BRANCH  29  34
ATOM     34  O   UNL     1       7.935   3.418  22.008  0.00  0.00    -0.384 OA
ATOM     35  H   UNL     1       6.999   3.554  22.263  0.00  0.00    +0.210 HD
ENDBRANCH  29  34
BRANCH  30  36
ATOM     36  O   UNL     1      10.510   2.459  21.596  0.00  0.00    -0.386 OA
ATOM     37  H   UNL     1       9.997   3.050  21.009  0.00  0.00    +0.210 HD
ENDBRANCH  30  36
BRANCH  31  38
ATOM     38  O   UNL     1      11.073   1.558  24.141  0.00  0.00    -0.386 OA
ATOM     39  H   UNL     1      11.462   2.418  24.408  0.00  0.00    +0.210 HD
ENDBRANCH  31  38
ENDBRANCH  24  26
ENDBRANCH   6  24
BRANCH   7  40
ATOM     40  O   UNL     1       6.765  -0.890  26.247  0.00  0.00    -0.505 OA
ATOM     41  H   UNL     1       7.489  -1.094  26.879  0.00  0.00    +0.292 HD
ENDBRANCH   7  40
BRANCH  11  42
ATOM     42  O   UNL     1       3.471  -4.809  26.844  0.00  0.00    -0.501 OA
ATOM     43  H   UNL     1       2.695  -5.298  26.521  0.00  0.00    +0.292 HD
ENDBRANCH  11  42
TORSDOF 12
ENDMDL
MODEL 9
REMARK VINA RESULT:      -7.8      2.007      9.756
REMARK  Name = 
REMARK  12 active torsions:
REMARK  status: ('A' for Active; 'I' for Inactive)
REMARK    1  A    between atoms: C_3  and  O_34
REMARK    2  A    between atoms: C_4  and  O_33
REMARK    3  A    between atoms: C_6  and  C_7
REMARK    4  A    between atoms: C_8  and  O_32
REMARK    5  A    between atoms: C_15  and  O_31
REMARK    6  A    between atoms: C_16  and  C_19
REMARK    7  A    between atoms: C_17  and  O_18
REMARK    8  A    between atoms: C_19  and  C_21
REMARK    9  A    between atoms: C_22  and  O_30
REMARK   10  A    between atoms: C_23  and  O_29
REMARK   11  A    between atoms: C_24  and  O_28
REMARK   12  A    between atoms: C_25  and  O_27
REMARK                            x       y       z     vdW  Elec       q    Type
REMARK                         _______ _______ _______ _____ _____    ______ ____
ROOT
ATOM      1  C   UNL     1       6.644  -4.222  24.420  0.00  0.00    +0.181 A 
ATOM      2  O   UNL     1       6.012  -2.982  24.420  0.00  0.00    -0.451 OA
ATOM      3  C   UNL     1       6.757  -1.857  24.162  0.00  0.00    +0.147 A 
ATOM      4  C   UNL     1       6.078  -0.665  23.929  0.00  0.00    +0.093 A 
ATOM      5  C   UNL     1       6.793   0.507  23.621  0.00  0.00    +0.134 A 
ATOM      6  C   UNL     1       8.201   0.536  23.612  0.00  0.00    +0.104 A 
ATOM      7  C   UNL     1       8.865  -0.672  23.914  0.00  0.00    +0.145 A 
ATOM      8  C   UNL     1       8.142  -1.863  24.115  0.00  0.00    +0.110 A 
ATOM      9  C   UNL     1       8.822  -3.163  24.172  0.00  0.00    +0.238 A 
ATOM     10  O   UNL     1      10.048  -3.217  24.107  0.00  0.00    -0.283 OA
ATOM     11  C   UNL     1       7.977  -4.377  24.223  0.00  0.00    +0.208 A 
ENDROOT
BRANCH   1  13
ATOM     12  C   UNL     1       5.028  -5.974  23.550  0.00  0.00    +0.015 A 
ATOM     13  C   UNL     1       5.718  -5.375  24.629  0.00  0.00    +0.025 A 
ATOM     14  C   UNL     1       5.521  -5.918  25.906  0.00  0.00    +0.060 A 
ATOM     15  C   UNL     1       4.624  -6.970  26.089  0.00  0.00    +0.159 A 
ATOM     16  C   UNL     1       3.903  -7.497  25.024  0.00  0.00    +0.158 A 
ATOM     17  C   UNL     1       4.105  -7.008  23.743  0.00  0.00    +0.050 A 
BRANCH  15  18
ATOM     18  O   UNL     1       4.448  -7.485  27.343  0.00  0.00    -0.503 OA
ATOM     19  H   UNL     1       5.024  -8.276  27.369  0.00  0.00    +0.292 HD
ENDBRANCH  15  18
BRANCH  16  20
ATOM     20  O   UNL     1       3.010  -8.497  25.286  0.00  0.00    -0.503 OA
ATOM     21  H   UNL     1       3.047  -8.700  26.238  0.00  0.00    +0.292 HD
ENDBRANCH  16  20
ENDBRANCH   1  13
BRANCH   5  22
ATOM     22  O   UNL     1       6.052   1.608  23.303  0.00  0.00    -0.506 OA
ATOM     23  H   UNL     1       6.237   1.876  22.385  0.00  0.00    +0.292 HD
ENDBRANCH   5  22
BRANCH   6  24
ATOM     24  C   UNL     1       9.028   1.765  23.272  0.00  0.00    +0.201 C 
ATOM     25  O   UNL     1       9.247   2.053  22.092  0.00  0.00    -0.289 OA
BRANCH  24  26
ATOM     26  C   UNL     1       9.622   2.677  24.366  0.00  0.00    +0.223 C 
ATOM     27  O   UNL     1       8.713   3.047  25.426  0.00  0.00    -0.335 OA
ATOM     28  C   UNL     1       7.609   3.871  25.047  0.00  0.00    +0.279 C 
ATOM     29  C   UNL     1       8.103   5.177  24.398  0.00  0.00    +0.201 C 
ATOM     30  C   UNL     1       9.064   4.875  23.250  0.00  0.00    +0.179 C 
ATOM     31  C   UNL     1      10.195   3.952  23.725  0.00  0.00    +0.182 C 
BRANCH  28  32
ATOM     32  O   UNL     1       6.879   4.184  26.235  0.00  0.00    -0.365 OA
ATOM     33  H   UNL     1       5.958   4.351  25.970  0.00  0.00    +0.213 HD
ENDBRANCH  28  32
BRANCH  29  34
ATOM     34  O   UNL     1       8.808   5.969  25.391  0.00  0.00    -0.384 OA
ATOM     35  H   UNL     1       9.170   6.751  24.926  0.00  0.00    +0.210 HD
ENDBRANCH  29  34
BRANCH  30  36
ATOM     36  O   UNL     1       9.669   6.080  22.751  0.00  0.00    -0.386 OA
ATOM     37  H   UNL     1      10.630   5.903  22.705  0.00  0.00    +0.210 HD
ENDBRANCH  30  36
BRANCH  31  38
ATOM     38  O   UNL     1      11.095   3.722  22.639  0.00  0.00    -0.386 OA
ATOM     39  H   UNL     1      10.868   2.828  22.307  0.00  0.00    +0.210 HD
ENDBRANCH  31  38
ENDBRANCH  24  26
ENDBRANCH   6  24
BRANCH   7  40
ATOM     40  O   UNL     1      10.235  -0.694  24.000  0.00  0.00    -0.505 OA
ATOM     41  H   UNL     1      10.637  -0.187  23.260  0.00  0.00    +0.292 HD
ENDBRANCH   7  40
BRANCH  11  42
ATOM     42  O   UNL     1       8.618  -5.588  24.040  0.00  0.00    -0.501 OA
ATOM     43  H   UNL     1       9.013  -5.597  23.151  0.00  0.00    +0.292 HD
ENDBRANCH  11  42
TORSDOF 12
ENDMDL
