MODEL 1
REMARK VINA RESULT:      -5.5      0.000      0.000
REMARK  Name = 
REMARK  28 active torsions:
REMARK  status: ('A' for Active; 'I' for Inactive)
REMARK    1  A    between atoms: C_1  and  O_2
REMARK    2  A    between atoms: O_2  and  C_3
REMARK    3  A    between atoms: C_4  and  O_75
REMARK    4  A    between atoms: C_7  and  C_9
REMARK    5  A    between atoms: C_10  and  C_11
REMARK    6  A    between atoms: C_11  and  O_13
REMARK    7  A    between atoms: O_13  and  C_14
REMARK    8  A    between atoms: C_14  and  C_15
REMARK    9  A    between atoms: C_16  and  O_74
REMARK   10  A    between atoms: C_18  and  O_73
REMARK   11  A    between atoms: C_20  and  O_72
REMARK   12  A    between atoms: C_21  and  O_24
REMARK   13  A    between atoms: O_24  and  C_25
REMARK   14  A    between atoms: C_27  and  O_36
REMARK   15  A    between atoms: C_31  and  O_35
REMARK   16  A    between atoms: C_33  and  O_34
REMARK   17  A    between atoms: O_36  and  C_37
REMARK   18  A    between atoms: C_38  and  C_64
REMARK   19  A    between atoms: C_42  and  O_49
REMARK   20  A    between atoms: C_44  and  O_48
REMARK   21  A    between atoms: O_49  and  C_50
REMARK   22  A    between atoms: C_52  and  O_63
REMARK   23  A    between atoms: C_53  and  O_62
REMARK   24  A    between atoms: C_55  and  O_61
REMARK   25  A    between atoms: C_57  and  C_59
REMARK   26  A    between atoms: C_59  and  O_60
REMARK   27  A    between atoms: C_66  and  O_71
REMARK   28  A    between atoms: C_67  and  O_70
REMARK                            x       y       z     vdW  Elec       q    Type
REMARK                         _______ _______ _______ _____ _____    ______ ____
ROOT
ATOM      1  O   UNL     1       5.768  -3.169  27.313  0.00  0.00    -0.453 OA
ENDROOT
BRANCH   1   2
ATOM      2  C   UNL     1       5.063  -1.939  27.261  0.00  0.00    +0.214 A 
ATOM      3  C   UNL     1       3.608  -1.634  27.229  0.00  0.00    +0.238 A 
ATOM      4  O   UNL     1       2.953  -1.924  26.221  0.00  0.00    -0.283 OA
ATOM      5  C   UNL     1       3.113  -0.595  28.203  0.00  0.00    +0.109 A 
ATOM      6  C   UNL     1       3.812   0.566  27.981  0.00  0.00    +0.147 A 
ATOM      7  C   UNL     1       3.323   1.778  28.478  0.00  0.00    +0.093 A 
ATOM      8  C   UNL     1       2.088   1.847  29.143  0.00  0.00    +0.131 A 
ATOM      9  C   UNL     1       1.458   0.678  29.516  0.00  0.00    +0.092 A 
ATOM     10  O   UNL     1       4.973   0.514  27.216  0.00  0.00    -0.451 OA
ATOM     11  C   UNL     1       2.035  -0.538  29.119  0.00  0.00    +0.135 A 
ATOM     12  C   UNL     1       5.651  -0.729  27.077  0.00  0.00    +0.181 A 
BRANCH  12  13
ATOM     13  C   UNL     1       7.015  -0.558  26.584  0.00  0.00    +0.025 A 
ATOM     14  C   UNL     1       7.896  -1.638  26.320  0.00  0.00    +0.015 A 
ATOM     15  C   UNL     1       9.159  -1.415  25.775  0.00  0.00    +0.050 A 
ATOM     16  C   UNL     1       9.526  -0.122  25.434  0.00  0.00    +0.158 A 
ATOM     17  C   UNL     1       8.653   0.940  25.649  0.00  0.00    +0.159 A 
ATOM     18  C   UNL     1       7.423   0.731  26.240  0.00  0.00    +0.060 A 
BRANCH  17  19
ATOM     19  O   UNL     1       9.030   2.184  25.235  0.00  0.00    -0.503 OA
ATOM     20  H   UNL     1       8.482   2.829  25.719  0.00  0.00    +0.292 HD
ENDBRANCH  17  19
BRANCH  16  21
ATOM     21  O   UNL     1      10.730   0.099  24.849  0.00  0.00    -0.503 OA
ATOM     22  H   UNL     1      11.229   0.605  25.521  0.00  0.00    +0.292 HD
ENDBRANCH  16  21
ENDBRANCH  12  13
BRANCH  11  23
ATOM     23  O   UNL     1       1.604  -1.642  29.802  0.00  0.00    -0.506 OA
ATOM     24  H   UNL     1       2.325  -2.007  30.344  0.00  0.00    +0.292 HD
ENDBRANCH  11  23
BRANCH   8  25
ATOM     25  O   UNL     1       1.627   3.111  29.383  0.00  0.00    -0.461 OA
BRANCH  25  26
ATOM     26  C   UNL     1       0.517   3.666  28.649  0.00  0.00    +0.339 C 
ATOM     27  O   UNL     1       0.493   3.398  27.236  0.00  0.00    -0.331 OA
ATOM     28  C   UNL     1       1.597   3.987  26.527  0.00  0.00    +0.179 C 
ATOM     29  C   UNL     1       1.610   5.526  26.671  0.00  0.00    +0.177 C 
ATOM     30  C   UNL     1       1.656   5.909  28.161  0.00  0.00    +0.180 C 
ATOM     31  C   UNL     1       0.516   5.194  28.924  0.00  0.00    +0.214 C 
BRANCH  29  32
ATOM     32  O   UNL     1       0.443   6.118  26.092  0.00  0.00    -0.386 OA
ATOM     33  H   UNL     1      -0.227   6.191  26.796  0.00  0.00    +0.210 HD
ENDBRANCH  29  32
BRANCH  31  34
ATOM     34  O   UNL     1       0.567   5.514  30.324  0.00  0.00    -0.383 OA
ATOM     35  H   UNL     1       0.078   4.828  30.811  0.00  0.00    +0.210 HD
ENDBRANCH  31  34
BRANCH  30  36
ATOM     36  O   UNL     1       2.946   5.659  28.733  0.00  0.00    -0.386 OA
ATOM     37  H   UNL     1       3.460   5.053  28.178  0.00  0.00    +0.210 HD
ENDBRANCH  30  36
BRANCH  28  38
ATOM     38  C   UNL     1       1.601   3.499  25.063  0.00  0.00    +0.190 C 
BRANCH  38  39
ATOM     39  O   UNL     1       1.878   4.500  24.094  0.00  0.00    -0.392 OA
ATOM     40  H   UNL     1       1.304   5.261  24.295  0.00  0.00    +0.210 HD
ENDBRANCH  38  39
ENDBRANCH  28  38
ENDBRANCH  25  26
ENDBRANCH   8  25
ENDBRANCH   1   2
BRANCH   1  46
ATOM     41  C   UNL     1       4.155  -5.171  27.423  0.00  0.00    +0.221 C 
ATOM     42  C   UNL     1       3.972  -6.527  28.167  0.00  0.00    +0.180 C 
ATOM     43  C   UNL     1       3.738  -6.279  29.661  0.00  0.00    +0.171 C 
ATOM     44  C   UNL     1       4.783  -5.284  30.205  0.00  0.00    +0.198 C 
ATOM     45  O   UNL     1       4.921  -4.070  29.421  0.00  0.00    -0.337 OA
ATOM     46  C   UNL     1       5.390  -4.372  28.057  0.00  0.00    +0.340 C 
BRANCH  43  47
ATOM     47  O   UNL     1       3.764  -7.535  30.361  0.00  0.00    -0.387 OA
ATOM     48  H   UNL     1       4.673  -7.867  30.406  0.00  0.00    +0.210 HD
ENDBRANCH  43  47
BRANCH  42  49
ATOM     49  O   UNL     1       5.126  -7.382  28.077  0.00  0.00    -0.386 OA
ATOM     50  H   UNL     1       5.128  -7.756  27.177  0.00  0.00    +0.210 HD
ENDBRANCH  42  49
BRANCH  41  51
ATOM     51  O   UNL     1       3.955  -5.259  25.994  0.00  0.00    -0.337 OA
BRANCH  51  54
ATOM     52  C   UNL     1       5.341  -3.418  23.080  0.00  0.00    +0.190 C 
ATOM     53  O   UNL     1       4.693  -3.664  24.356  0.00  0.00    -0.339 OA
ATOM     54  C   UNL     1       4.967  -4.878  25.040  0.00  0.00    +0.282 C 
ATOM     55  C   UNL     1       5.199  -6.015  24.080  0.00  0.00    +0.201 C 
ATOM     56  C   UNL     1       6.101  -5.719  22.905  0.00  0.00    +0.179 C 
ATOM     57  C   UNL     1       5.436  -4.601  22.130  0.00  0.00    +0.178 C 
BRANCH  57  58
ATOM     58  O   UNL     1       6.211  -4.345  20.958  0.00  0.00    -0.386 OA
ATOM     59  H   UNL     1       6.885  -5.046  20.897  0.00  0.00    +0.210 HD
ENDBRANCH  57  58
BRANCH  56  60
ATOM     60  O   UNL     1       6.199  -6.857  22.045  0.00  0.00    -0.386 OA
ATOM     61  H   UNL     1       5.739  -7.617  22.422  0.00  0.00    +0.210 HD
ENDBRANCH  56  60
BRANCH  55  62
ATOM     62  O   UNL     1       3.948  -6.235  23.418  0.00  0.00    -0.384 OA
ATOM     63  H   UNL     1       4.159  -6.514  22.496  0.00  0.00    +0.210 HD
ENDBRANCH  55  62
BRANCH  52  64
ATOM     64  C   UNL     1       6.752  -2.850  23.200  0.00  0.00    +0.266 C 
BRANCH  64  65
ATOM     65  O   UNL     1       6.763  -1.569  22.620  0.00  0.00    -0.459 OA
BRANCH  65  66
ATOM     66  C   UNL     1       8.017  -1.215  22.251  0.00  0.00    +0.332 C 
ATOM     67  O   UNL     1       8.940  -1.919  21.923  0.00  0.00    -0.246 OA
BRANCH  66  69
ATOM     68  C   UNL     1       6.807   0.795  22.495  0.00  0.00    +0.015 C 
ATOM     69  C   UNL     1       8.016   0.236  22.326  0.00  0.00    +0.092 C 
BRANCH  68  72
ATOM     70  C   UNL     1       5.663   4.032  23.992  0.00  0.00    +0.162 A 
ATOM     71  C   UNL     1       5.777   2.667  23.765  0.00  0.00    +0.057 A 
ATOM     72  C   UNL     1       6.650   2.189  22.782  0.00  0.00    -0.021 A 
ATOM     73  C   UNL     1       7.419   3.083  22.019  0.00  0.00    +0.012 A 
ATOM     74  C   UNL     1       7.294   4.446  22.227  0.00  0.00    +0.050 A 
ATOM     75  C   UNL     1       6.414   4.904  23.201  0.00  0.00    +0.158 A 
BRANCH  75  76
ATOM     76  O   UNL     1       6.317   6.255  23.381  0.00  0.00    -0.503 OA
ATOM     77  H   UNL     1       6.914   6.453  24.129  0.00  0.00    +0.292 HD
ENDBRANCH  75  76
BRANCH  70  79
ATOM     78  C   UNL     1       5.193   4.320  26.288  0.00  0.00    +0.277 C 
ATOM     79  O   UNL     1       4.846   4.605  24.932  0.00  0.00    -0.491 OA
ENDBRANCH  70  79
ENDBRANCH  68  72
ENDBRANCH  66  69
ENDBRANCH  65  66
ENDBRANCH  64  65
ENDBRANCH  52  64
ENDBRANCH  51  54
ENDBRANCH  41  51
ENDBRANCH   1  46
TORSDOF 27
ENDMDL
MODEL 2
REMARK VINA RESULT:      -5.4      2.037      3.541
REMARK  Name = 
REMARK  28 active torsions:
REMARK  status: ('A' for Active; 'I' for Inactive)
REMARK    1  A    between atoms: C_1  and  O_2
REMARK    2  A    between atoms: O_2  and  C_3
REMARK    3  A    between atoms: C_4  and  O_75
REMARK    4  A    between atoms: C_7  and  C_9
REMARK    5  A    between atoms: C_10  and  C_11
REMARK    6  A    between atoms: C_11  and  O_13
REMARK    7  A    between atoms: O_13  and  C_14
REMARK    8  A    between atoms: C_14  and  C_15
REMARK    9  A    between atoms: C_16  and  O_74
REMARK   10  A    between atoms: C_18  and  O_73
REMARK   11  A    between atoms: C_20  and  O_72
REMARK   12  A    between atoms: C_21  and  O_24
REMARK   13  A    between atoms: O_24  and  C_25
REMARK   14  A    between atoms: C_27  and  O_36
REMARK   15  A    between atoms: C_31  and  O_35
REMARK   16  A    between atoms: C_33  and  O_34
REMARK   17  A    between atoms: O_36  and  C_37
REMARK   18  A    between atoms: C_38  and  C_64
REMARK   19  A    between atoms: C_42  and  O_49
REMARK   20  A    between atoms: C_44  and  O_48
REMARK   21  A    between atoms: O_49  and  C_50
REMARK   22  A    between atoms: C_52  and  O_63
REMARK   23  A    between atoms: C_53  and  O_62
REMARK   24  A    between atoms: C_55  and  O_61
REMARK   25  A    between atoms: C_57  and  C_59
REMARK   26  A    between atoms: C_59  and  O_60
REMARK   27  A    between atoms: C_66  and  O_71
REMARK   28  A    between atoms: C_67  and  O_70
REMARK                            x       y       z     vdW  Elec       q    Type
REMARK                         _______ _______ _______ _____ _____    ______ ____
ROOT
ATOM      1  O   UNL     1       4.059  -3.504  29.119  0.00  0.00    -0.453 OA
ENDROOT
BRANCH   1   2
ATOM      2  C   UNL     1       3.911  -2.438  28.195  0.00  0.00    +0.214 A 
ATOM      3  C   UNL     1       2.722  -1.648  27.780  0.00  0.00    +0.238 A 
ATOM      4  O   UNL     1       1.833  -2.197  27.118  0.00  0.00    -0.283 OA
ATOM      5  C   UNL     1       2.872  -0.148  27.780  0.00  0.00    +0.109 A 
ATOM      6  C   UNL     1       3.925   0.176  26.960  0.00  0.00    +0.147 A 
ATOM      7  C   UNL     1       4.063   1.486  26.491  0.00  0.00    +0.093 A 
ATOM      8  C   UNL     1       3.104   2.469  26.782  0.00  0.00    +0.131 A 
ATOM      9  C   UNL     1       2.138   2.206  27.730  0.00  0.00    +0.092 A 
ATOM     10  O   UNL     1       4.806  -0.828  26.573  0.00  0.00    -0.451 OA
ATOM     11  C   UNL     1       2.095   0.920  28.291  0.00  0.00    +0.135 A 
ATOM     12  C   UNL     1       4.890  -2.011  27.357  0.00  0.00    +0.181 A 
BRANCH  12  13
ATOM     13  C   UNL     1       6.093  -2.784  27.058  0.00  0.00    +0.025 A 
ATOM     14  C   UNL     1       7.258  -2.229  26.468  0.00  0.00    +0.015 A 
ATOM     15  C   UNL     1       8.403  -3.000  26.280  0.00  0.00    +0.050 A 
ATOM     16  C   UNL     1       8.413  -4.310  26.733  0.00  0.00    +0.158 A 
ATOM     17  C   UNL     1       7.291  -4.854  27.352  0.00  0.00    +0.159 A 
ATOM     18  C   UNL     1       6.136  -4.110  27.491  0.00  0.00    +0.060 A 
BRANCH  17  19
ATOM     19  O   UNL     1       7.371  -6.124  27.842  0.00  0.00    -0.503 OA
ATOM     20  H   UNL     1       6.490  -6.529  27.743  0.00  0.00    +0.292 HD
ENDBRANCH  17  19
BRANCH  16  21
ATOM     21  O   UNL     1       9.542  -5.052  26.607  0.00  0.00    -0.503 OA
ATOM     22  H   UNL     1       9.218  -5.925  26.307  0.00  0.00    +0.292 HD
ENDBRANCH  16  21
ENDBRANCH  12  13
BRANCH  11  23
ATOM     23  O   UNL     1       1.389   0.811  29.457  0.00  0.00    -0.506 OA
ATOM     24  H   UNL     1       1.773   0.116  30.020  0.00  0.00    +0.292 HD
ENDBRANCH  11  23
BRANCH   8  25
ATOM     25  O   UNL     1       3.242   3.639  26.090  0.00  0.00    -0.461 OA
BRANCH  25  26
ATOM     26  C   UNL     1       2.657   3.820  24.784  0.00  0.00    +0.339 C 
ATOM     27  O   UNL     1       3.398   3.279  23.675  0.00  0.00    -0.331 OA
ATOM     28  C   UNL     1       4.675   3.913  23.482  0.00  0.00    +0.179 C 
ATOM     29  C   UNL     1       4.523   5.425  23.199  0.00  0.00    +0.177 C 
ATOM     30  C   UNL     1       3.753   6.095  24.350  0.00  0.00    +0.180 C 
ATOM     31  C   UNL     1       2.425   5.345  24.604  0.00  0.00    +0.214 C 
BRANCH  29  32
ATOM     32  O   UNL     1       3.806   5.662  21.983  0.00  0.00    -0.386 OA
ATOM     33  H   UNL     1       2.863   5.745  22.212  0.00  0.00    +0.210 HD
ENDBRANCH  29  32
BRANCH  31  34
ATOM     34  O   UNL     1       1.711   5.939  25.701  0.00  0.00    -0.383 OA
ATOM     35  H   UNL     1       1.105   6.611  25.342  0.00  0.00    +0.210 HD
ENDBRANCH  31  34
BRANCH  30  36
ATOM     36  O   UNL     1       4.558   6.209  25.531  0.00  0.00    -0.386 OA
ATOM     37  H   UNL     1       5.380   6.689  25.345  0.00  0.00    +0.210 HD
ENDBRANCH  30  36
BRANCH  28  38
ATOM     38  C   UNL     1       5.478   3.155  22.405  0.00  0.00    +0.190 C 
BRANCH  38  39
ATOM     39  O   UNL     1       6.467   3.925  21.736  0.00  0.00    -0.392 OA
ATOM     40  H   UNL     1       6.408   4.833  22.085  0.00  0.00    +0.210 HD
ENDBRANCH  38  39
ENDBRANCH  28  38
ENDBRANCH  25  26
ENDBRANCH   8  25
ENDBRANCH   1   2
BRANCH   1  46
ATOM     41  C   UNL     1       2.267  -4.927  27.944  0.00  0.00    +0.221 C 
ATOM     42  C   UNL     1       1.656  -6.359  27.979  0.00  0.00    +0.180 C 
ATOM     43  C   UNL     1       0.940  -6.593  29.313  0.00  0.00    +0.171 C 
ATOM     44  C   UNL     1       1.844  -6.157  30.485  0.00  0.00    +0.198 C 
ATOM     45  O   UNL     1       2.408  -4.826  30.343  0.00  0.00    -0.337 OA
ATOM     46  C   UNL     1       3.288  -4.748  29.164  0.00  0.00    +0.340 C 
BRANCH  43  47
ATOM     47  O   UNL     1       0.551  -7.974  29.409  0.00  0.00    -0.387 OA
ATOM     48  H   UNL     1       0.183  -8.270  28.563  0.00  0.00    +0.210 HD
ENDBRANCH  43  47
BRANCH  42  49
ATOM     49  O   UNL     1       2.644  -7.399  27.865  0.00  0.00    -0.386 OA
ATOM     50  H   UNL     1       2.489  -8.015  28.605  0.00  0.00    +0.210 HD
ENDBRANCH  42  49
BRANCH  41  51
ATOM     51  O   UNL     1       2.578  -4.459  26.611  0.00  0.00    -0.337 OA
BRANCH  51  54
ATOM     52  C   UNL     1       4.851  -4.882  23.703  0.00  0.00    +0.190 C 
ATOM     53  O   UNL     1       4.302  -4.357  24.941  0.00  0.00    -0.339 OA
ATOM     54  C   UNL     1       3.444  -5.183  25.714  0.00  0.00    +0.282 C 
ATOM     55  C   UNL     1       2.613  -6.088  24.843  0.00  0.00    +0.201 C 
ATOM     56  C   UNL     1       3.345  -6.788  23.723  0.00  0.00    +0.179 C 
ATOM     57  C   UNL     1       3.907  -5.698  22.836  0.00  0.00    +0.178 C 
BRANCH  57  58
ATOM     58  O   UNL     1       4.536  -6.314  21.711  0.00  0.00    -0.386 OA
ATOM     59  H   UNL     1       4.950  -7.138  22.025  0.00  0.00    +0.210 HD
ENDBRANCH  57  58
BRANCH  56  60
ATOM     60  O   UNL     1       2.441  -7.574  22.942  0.00  0.00    -0.386 OA
ATOM     61  H   UNL     1       2.739  -8.491  22.887  0.00  0.00    +0.210 HD
ENDBRANCH  56  60
BRANCH  55  62
ATOM     62  O   UNL     1       1.736  -5.231  24.105  0.00  0.00    -0.384 OA
ATOM     63  H   UNL     1       1.688  -5.592  23.188  0.00  0.00    +0.210 HD
ENDBRANCH  55  62
BRANCH  52  64
ATOM     64  C   UNL     1       6.102  -5.734  23.894  0.00  0.00    +0.266 C 
BRANCH  64  65
ATOM     65  O   UNL     1       7.229  -4.909  23.726  0.00  0.00    -0.459 OA
BRANCH  65  66
ATOM     66  C   UNL     1       7.239  -4.349  22.493  0.00  0.00    +0.332 C 
ATOM     67  O   UNL     1       7.211  -4.888  21.414  0.00  0.00    -0.246 OA
BRANCH  66  69
ATOM     68  C   UNL     1       8.503  -2.364  22.640  0.00  0.00    +0.015 C 
ATOM     69  C   UNL     1       7.286  -2.919  22.748  0.00  0.00    +0.092 C 
BRANCH  68  72
ATOM     70  C   UNL     1       8.402   1.240  23.657  0.00  0.00    +0.162 A 
ATOM     71  C   UNL     1       8.192  -0.132  23.690  0.00  0.00    +0.057 A 
ATOM     72  C   UNL     1       8.693  -0.944  22.668  0.00  0.00    -0.021 A 
ATOM     73  C   UNL     1       9.416  -0.382  21.603  0.00  0.00    +0.012 A 
ATOM     74  C   UNL     1       9.611   0.988  21.554  0.00  0.00    +0.050 A 
ATOM     75  C   UNL     1       9.097   1.781  22.573  0.00  0.00    +0.158 A 
BRANCH  75  76
ATOM     76  O   UNL     1       9.309   3.129  22.494  0.00  0.00    -0.503 OA
ATOM     77  H   UNL     1       8.814   3.506  23.247  0.00  0.00    +0.292 HD
ENDBRANCH  75  76
BRANCH  70  79
ATOM     78  C   UNL     1       7.633   1.541  25.869  0.00  0.00    +0.277 C 
ATOM     79  O   UNL     1       7.961   2.125  24.608  0.00  0.00    -0.491 OA
ENDBRANCH  70  79
ENDBRANCH  68  72
ENDBRANCH  66  69
ENDBRANCH  65  66
ENDBRANCH  64  65
ENDBRANCH  52  64
ENDBRANCH  51  54
ENDBRANCH  41  51
ENDBRANCH   1  46
TORSDOF 27
ENDMDL
MODEL 3
REMARK VINA RESULT:      -5.3      2.747      8.372
REMARK  Name = 
REMARK  28 active torsions:
REMARK  status: ('A' for Active; 'I' for Inactive)
REMARK    1  A    between atoms: C_1  and  O_2
REMARK    2  A    between atoms: O_2  and  C_3
REMARK    3  A    between atoms: C_4  and  O_75
REMARK    4  A    between atoms: C_7  and  C_9
REMARK    5  A    between atoms: C_10  and  C_11
REMARK    6  A    between atoms: C_11  and  O_13
REMARK    7  A    between atoms: O_13  and  C_14
REMARK    8  A    between atoms: C_14  and  C_15
REMARK    9  A    between atoms: C_16  and  O_74
REMARK   10  A    between atoms: C_18  and  O_73
REMARK   11  A    between atoms: C_20  and  O_72
REMARK   12  A    between atoms: C_21  and  O_24
REMARK   13  A    between atoms: O_24  and  C_25
REMARK   14  A    between atoms: C_27  and  O_36
REMARK   15  A    between atoms: C_31  and  O_35
REMARK   16  A    between atoms: C_33  and  O_34
REMARK   17  A    between atoms: O_36  and  C_37
REMARK   18  A    between atoms: C_38  and  C_64
REMARK   19  A    between atoms: C_42  and  O_49
REMARK   20  A    between atoms: C_44  and  O_48
REMARK   21  A    between atoms: O_49  and  C_50
REMARK   22  A    between atoms: C_52  and  O_63
REMARK   23  A    between atoms: C_53  and  O_62
REMARK   24  A    between atoms: C_55  and  O_61
REMARK   25  A    between atoms: C_57  and  C_59
REMARK   26  A    between atoms: C_59  and  O_60
REMARK   27  A    between atoms: C_66  and  O_71
REMARK   28  A    between atoms: C_67  and  O_70
REMARK                            x       y       z     vdW  Elec       q    Type
REMARK                         _______ _______ _______ _____ _____    ______ ____
ROOT
ATOM      1  O   UNL     1       6.574   3.393  23.297  0.00  0.00    -0.453 OA
ENDROOT
BRANCH   1   2
ATOM      2  C   UNL     1       5.686   2.594  24.062  0.00  0.00    +0.214 A 
ATOM      3  C   UNL     1       5.884   1.307  24.780  0.00  0.00    +0.238 A 
ATOM      4  O   UNL     1       6.072   0.275  24.126  0.00  0.00    -0.283 OA
ATOM      5  C   UNL     1       5.392   1.244  26.204  0.00  0.00    +0.109 A 
ATOM      6  C   UNL     1       4.054   1.550  26.208  0.00  0.00    +0.147 A 
ATOM      7  C   UNL     1       3.269   1.220  27.316  0.00  0.00    +0.093 A 
ATOM      8  C   UNL     1       3.805   0.513  28.405  0.00  0.00    +0.131 A 
ATOM      9  C   UNL     1       5.171   0.344  28.490  0.00  0.00    +0.092 A 
ATOM     10  O   UNL     1       3.498   2.140  25.077  0.00  0.00    -0.451 OA
ATOM     11  C   UNL     1       5.960   0.802  27.423  0.00  0.00    +0.135 A 
ATOM     12  C   UNL     1       4.351   2.819  24.165  0.00  0.00    +0.181 A 
BRANCH  12  13
ATOM     13  C   UNL     1       3.605   3.689  23.259  0.00  0.00    +0.025 A 
ATOM     14  C   UNL     1       3.764   5.098  23.213  0.00  0.00    +0.015 A 
ATOM     15  C   UNL     1       3.081   5.865  22.271  0.00  0.00    +0.050 A 
ATOM     16  C   UNL     1       2.284   5.228  21.334  0.00  0.00    +0.158 A 
ATOM     17  C   UNL     1       2.153   3.842  21.342  0.00  0.00    +0.159 A 
ATOM     18  C   UNL     1       2.784   3.082  22.307  0.00  0.00    +0.060 A 
BRANCH  17  19
ATOM     19  O   UNL     1       1.413   3.253  20.359  0.00  0.00    -0.503 OA
ATOM     20  H   UNL     1       2.037   2.831  19.740  0.00  0.00    +0.292 HD
ENDBRANCH  17  19
BRANCH  16  21
ATOM     21  O   UNL     1       1.661   5.960  20.377  0.00  0.00    -0.503 OA
ATOM     22  H   UNL     1       0.980   5.353  20.022  0.00  0.00    +0.292 HD
ENDBRANCH  16  21
ENDBRANCH  12  13
BRANCH  11  23
ATOM     23  O   UNL     1       7.292   0.951  27.700  0.00  0.00    -0.506 OA
ATOM     24  H   UNL     1       7.801   0.215  27.318  0.00  0.00    +0.292 HD
ENDBRANCH  11  23
BRANCH   8  25
ATOM     25  O   UNL     1       2.890   0.066  29.316  0.00  0.00    -0.461 OA
BRANCH  25  26
ATOM     26  C   UNL     1       2.636  -1.340  29.508  0.00  0.00    +0.339 C 
ATOM     27  O   UNL     1       3.225  -2.230  28.542  0.00  0.00    -0.331 OA
ATOM     28  C   UNL     1       2.708  -2.048  27.212  0.00  0.00    +0.179 C 
ATOM     29  C   UNL     1       1.184  -2.301  27.154  0.00  0.00    +0.177 C 
ATOM     30  C   UNL     1       0.464  -1.373  28.147  0.00  0.00    +0.180 C 
ATOM     31  C   UNL     1       1.093  -1.515  29.553  0.00  0.00    +0.214 C 
BRANCH  29  32
ATOM     32  O   UNL     1       0.864  -3.654  27.492  0.00  0.00    -0.386 OA
ATOM     33  H   UNL     1       0.956  -4.187  26.682  0.00  0.00    +0.210 HD
ENDBRANCH  29  32
BRANCH  31  34
ATOM     34  O   UNL     1       0.453  -0.628  30.485  0.00  0.00    -0.383 OA
ATOM     35  H   UNL     1       0.887   0.241  30.426  0.00  0.00    +0.210 HD
ENDBRANCH  31  34
BRANCH  30  36
ATOM     36  O   UNL     1       0.443  -0.016  27.686  0.00  0.00    -0.386 OA
ATOM     37  H   UNL     1       1.007   0.093  26.904  0.00  0.00    +0.210 HD
ENDBRANCH  30  36
BRANCH  28  38
ATOM     38  C   UNL     1       3.520  -2.899  26.214  0.00  0.00    +0.190 C 
BRANCH  38  39
ATOM     39  O   UNL     1       2.809  -3.309  25.054  0.00  0.00    -0.392 OA
ATOM     40  H   UNL     1       2.692  -4.274  25.115  0.00  0.00    +0.210 HD
ENDBRANCH  38  39
ENDBRANCH  28  38
ENDBRANCH  25  26
ENDBRANCH   8  25
ENDBRANCH   1   2
BRANCH   1  46
ATOM     41  C   UNL     1       8.957   3.894  24.127  0.00  0.00    +0.221 C 
ATOM     42  C   UNL     1       9.889   5.099  24.450  0.00  0.00    +0.180 C 
ATOM     43  C   UNL     1       9.329   5.894  25.635  0.00  0.00    +0.171 C 
ATOM     44  C   UNL     1       7.826   6.170  25.426  0.00  0.00    +0.198 C 
ATOM     45  O   UNL     1       7.043   4.996  25.081  0.00  0.00    -0.337 OA
ATOM     46  C   UNL     1       7.484   4.426  23.796  0.00  0.00    +0.340 C 
BRANCH  43  47
ATOM     47  O   UNL     1      10.089   7.104  25.796  0.00  0.00    -0.387 OA
ATOM     48  H   UNL     1      10.195   7.541  24.938  0.00  0.00    +0.210 HD
ENDBRANCH  43  47
BRANCH  42  49
ATOM     49  O   UNL     1      10.007   6.031  23.359  0.00  0.00    -0.386 OA
ATOM     50  H   UNL     1      10.213   5.507  22.564  0.00  0.00    +0.210 HD
ENDBRANCH  42  49
BRANCH  41  51
ATOM     51  O   UNL     1       9.592   2.862  23.339  0.00  0.00    -0.337 OA
BRANCH  51  54
ATOM     52  C   UNL     1      10.128  -0.708  24.219  0.00  0.00    +0.190 C 
ATOM     53  O   UNL     1      10.045   0.735  24.360  0.00  0.00    -0.339 OA
ATOM     54  C   UNL     1       9.240   1.468  23.450  0.00  0.00    +0.282 C 
ATOM     55  C   UNL     1       9.244   0.843  22.079  0.00  0.00    +0.201 C 
ATOM     56  C   UNL     1       9.070  -0.656  22.032  0.00  0.00    +0.179 C 
ATOM     57  C   UNL     1      10.235  -1.244  22.801  0.00  0.00    +0.178 C 
BRANCH  57  58
ATOM     58  O   UNL     1      10.161  -2.667  22.709  0.00  0.00    -0.386 OA
ATOM     59  H   UNL     1      10.904  -3.031  23.223  0.00  0.00    +0.210 HD
ENDBRANCH  57  58
BRANCH  56  60
ATOM     60  O   UNL     1       9.143  -1.131  20.686  0.00  0.00    -0.386 OA
ATOM     61  H   UNL     1       8.403  -1.719  20.486  0.00  0.00    +0.210 HD
ENDBRANCH  56  60
BRANCH  55  62
ATOM     62  O   UNL     1      10.581   0.981  21.586  0.00  0.00    -0.384 OA
ATOM     63  H   UNL     1      11.091   0.207  21.925  0.00  0.00    +0.210 HD
ENDBRANCH  55  62
BRANCH  52  64
ATOM     64  C   UNL     1       8.974  -1.461  24.875  0.00  0.00    +0.266 C 
BRANCH  64  65
ATOM     65  O   UNL     1       9.341  -2.814  24.992  0.00  0.00    -0.459 OA
BRANCH  65  66
ATOM     66  C   UNL     1       8.533  -3.462  25.865  0.00  0.00    +0.332 C 
ATOM     67  O   UNL     1       8.666  -3.615  27.054  0.00  0.00    -0.246 OA
BRANCH  66  69
ATOM     68  C   UNL     1       6.919  -5.124  25.421  0.00  0.00    +0.015 C 
ATOM     69  C   UNL     1       7.431  -3.941  25.046  0.00  0.00    +0.092 C 
BRANCH  68  72
ATOM     70  C   UNL     1       3.649  -6.892  24.962  0.00  0.00    +0.162 A 
ATOM     71  C   UNL     1       4.797  -6.409  25.575  0.00  0.00    +0.057 A 
ATOM     72  C   UNL     1       5.713  -5.643  24.848  0.00  0.00    -0.021 A 
ATOM     73  C   UNL     1       5.480  -5.352  23.494  0.00  0.00    +0.012 A 
ATOM     74  C   UNL     1       4.348  -5.848  22.871  0.00  0.00    +0.050 A 
ATOM     75  C   UNL     1       3.453  -6.616  23.606  0.00  0.00    +0.158 A 
BRANCH  75  76
ATOM     76  O   UNL     1       2.344  -7.088  22.960  0.00  0.00    -0.503 OA
ATOM     77  H   UNL     1       2.549  -8.023  22.761  0.00  0.00    +0.292 HD
ENDBRANCH  75  76
BRANCH  70  79
ATOM     78  C   UNL     1       2.050  -7.014  26.694  0.00  0.00    +0.277 C 
ATOM     79  O   UNL     1       2.685  -7.645  25.581  0.00  0.00    -0.491 OA
ENDBRANCH  70  79
ENDBRANCH  68  72
ENDBRANCH  66  69
ENDBRANCH  65  66
ENDBRANCH  64  65
ENDBRANCH  52  64
ENDBRANCH  51  54
ENDBRANCH  41  51
ENDBRANCH   1  46
TORSDOF 27
ENDMDL
MODEL 4
REMARK VINA RESULT:      -5.1      2.557      8.160
REMARK  Name = 
REMARK  28 active torsions:
REMARK  status: ('A' for Active; 'I' for Inactive)
REMARK    1  A    between atoms: C_1  and  O_2
REMARK    2  A    between atoms: O_2  and  C_3
REMARK    3  A    between atoms: C_4  and  O_75
REMARK    4  A    between atoms: C_7  and  C_9
REMARK    5  A    between atoms: C_10  and  C_11
REMARK    6  A    between atoms: C_11  and  O_13
REMARK    7  A    between atoms: O_13  and  C_14
REMARK    8  A    between atoms: C_14  and  C_15
REMARK    9  A    between atoms: C_16  and  O_74
REMARK   10  A    between atoms: C_18  and  O_73
REMARK   11  A    between atoms: C_20  and  O_72
REMARK   12  A    between atoms: C_21  and  O_24
REMARK   13  A    between atoms: O_24  and  C_25
REMARK   14  A    between atoms: C_27  and  O_36
REMARK   15  A    between atoms: C_31  and  O_35
REMARK   16  A    between atoms: C_33  and  O_34
REMARK   17  A    between atoms: O_36  and  C_37
REMARK   18  A    between atoms: C_38  and  C_64
REMARK   19  A    between atoms: C_42  and  O_49
REMARK   20  A    between atoms: C_44  and  O_48
REMARK   21  A    between atoms: O_49  and  C_50
REMARK   22  A    between atoms: C_52  and  O_63
REMARK   23  A    between atoms: C_53  and  O_62
REMARK   24  A    between atoms: C_55  and  O_61
REMARK   25  A    between atoms: C_57  and  C_59
REMARK   26  A    between atoms: C_59  and  O_60
REMARK   27  A    between atoms: C_66  and  O_71
REMARK   28  A    between atoms: C_67  and  O_70
REMARK                            x       y       z     vdW  Elec       q    Type
REMARK                         _______ _______ _______ _____ _____    ______ ____
ROOT
ATOM      1  O   UNL     1       9.267  -1.366  24.336  0.00  0.00    -0.453 OA
ENDROOT
BRANCH   1   2
ATOM      2  C   UNL     1       8.428  -0.242  24.129  0.00  0.00    +0.214 A 
ATOM      3  C   UNL     1       8.426   1.115  24.734  0.00  0.00    +0.238 A 
ATOM      4  O   UNL     1       8.116   1.245  25.924  0.00  0.00    -0.283 OA
ATOM      5  C   UNL     1       8.345   2.281  23.782  0.00  0.00    +0.109 A 
ATOM      6  C   UNL     1       7.210   2.135  23.023  0.00  0.00    +0.147 A 
ATOM      7  C   UNL     1       6.696   3.231  22.323  0.00  0.00    +0.093 A 
ATOM      8  C   UNL     1       7.276   4.505  22.436  0.00  0.00    +0.131 A 
ATOM      9  C   UNL     1       8.501   4.634  23.056  0.00  0.00    +0.092 A 
ATOM     10  O   UNL     1       6.566   0.902  23.011  0.00  0.00    -0.451 OA
ATOM     11  C   UNL     1       9.068   3.491  23.642  0.00  0.00    +0.135 A 
ATOM     12  C   UNL     1       7.299  -0.261  23.375  0.00  0.00    +0.181 A 
BRANCH  12  13
ATOM     13  C   UNL     1       6.624  -1.487  22.958  0.00  0.00    +0.025 A 
ATOM     14  C   UNL     1       7.045  -2.282  21.861  0.00  0.00    +0.015 A 
ATOM     15  C   UNL     1       6.407  -3.484  21.561  0.00  0.00    +0.050 A 
ATOM     16  C   UNL     1       5.387  -3.930  22.387  0.00  0.00    +0.158 A 
ATOM     17  C   UNL     1       4.994  -3.180  23.492  0.00  0.00    +0.159 A 
ATOM     18  C   UNL     1       5.586  -1.961  23.761  0.00  0.00    +0.060 A 
BRANCH  17  19
ATOM     19  O   UNL     1       4.034  -3.690  24.315  0.00  0.00    -0.503 OA
ATOM     20  H   UNL     1       3.528  -4.345  23.800  0.00  0.00    +0.292 HD
ENDBRANCH  17  19
BRANCH  16  21
ATOM     21  O   UNL     1       4.799  -5.127  22.139  0.00  0.00    -0.503 OA
ATOM     22  H   UNL     1       5.553  -5.731  21.983  0.00  0.00    +0.292 HD
ENDBRANCH  16  21
ENDBRANCH  12  13
BRANCH  11  23
ATOM     23  O   UNL     1      10.407   3.572  23.909  0.00  0.00    -0.506 OA
ATOM     24  H   UNL     1      10.753   2.698  24.163  0.00  0.00    +0.292 HD
ENDBRANCH  11  23
BRANCH   8  25
ATOM     25  O   UNL     1       6.554   5.524  21.880  0.00  0.00    -0.461 OA
BRANCH  25  26
ATOM     26  C   UNL     1       6.054   6.619  22.674  0.00  0.00    +0.339 C 
ATOM     27  O   UNL     1       6.054   6.422  24.100  0.00  0.00    -0.331 OA
ATOM     28  C   UNL     1       5.177   5.365  24.527  0.00  0.00    +0.179 C 
ATOM     29  C   UNL     1       3.709   5.648  24.134  0.00  0.00    +0.177 C 
ATOM     30  C   UNL     1       3.609   5.854  22.612  0.00  0.00    +0.180 C 
ATOM     31  C   UNL     1       4.622   6.929  22.157  0.00  0.00    +0.214 C 
BRANCH  29  32
ATOM     32  O   UNL     1       3.210   6.824  24.779  0.00  0.00    -0.386 OA
ATOM     33  H   UNL     1       2.489   6.548  25.372  0.00  0.00    +0.210 HD
ENDBRANCH  29  32
BRANCH  31  34
ATOM     34  O   UNL     1       4.565   7.108  20.733  0.00  0.00    -0.383 OA
ATOM     35  H   UNL     1       5.364   6.712  20.343  0.00  0.00    +0.210 HD
ENDBRANCH  31  34
BRANCH  30  36
ATOM     36  O   UNL     1       3.756   4.619  21.899  0.00  0.00    -0.386 OA
ATOM     37  H   UNL     1       3.558   3.862  22.472  0.00  0.00    +0.210 HD
ENDBRANCH  30  36
BRANCH  28  38
ATOM     38  C   UNL     1       5.377   5.095  26.033  0.00  0.00    +0.190 C 
BRANCH  38  39
ATOM     39  O   UNL     1       6.089   3.905  26.343  0.00  0.00    -0.392 OA
ATOM     40  H   UNL     1       5.608   3.463  27.066  0.00  0.00    +0.210 HD
ENDBRANCH  38  39
ENDBRANCH  28  38
ENDBRANCH  25  26
ENDBRANCH   8  25
ENDBRANCH   1   2
BRANCH   1  46
ATOM     41  C   UNL     1       8.202  -2.585  26.336  0.00  0.00    +0.221 C 
ATOM     42  C   UNL     1       7.651  -3.986  26.735  0.00  0.00    +0.180 C 
ATOM     43  C   UNL     1       8.786  -5.017  26.735  0.00  0.00    +0.171 C 
ATOM     44  C   UNL     1       9.609  -4.900  25.435  0.00  0.00    +0.198 C 
ATOM     45  O   UNL     1      10.038  -3.550  25.118  0.00  0.00    -0.337 OA
ATOM     46  C   UNL     1       8.882  -2.666  24.889  0.00  0.00    +0.340 C 
BRANCH  43  47
ATOM     47  O   UNL     1       8.232  -6.332  26.913  0.00  0.00    -0.387 OA
ATOM     48  H   UNL     1       8.943  -6.990  26.910  0.00  0.00    +0.210 HD
ENDBRANCH  43  47
BRANCH  42  49
ATOM     49  O   UNL     1       6.655  -4.483  25.823  0.00  0.00    -0.386 OA
ATOM     50  H   UNL     1       5.821  -4.540  26.323  0.00  0.00    +0.210 HD
ENDBRANCH  42  49
BRANCH  41  51
ATOM     51  O   UNL     1       7.337  -1.490  26.714  0.00  0.00    -0.337 OA
BRANCH  51  54
ATOM     52  C   UNL     1       3.740  -2.296  27.174  0.00  0.00    +0.190 C 
ATOM     53  O   UNL     1       5.128  -2.434  26.773  0.00  0.00    -0.339 OA
ATOM     54  C   UNL     1       6.118  -1.682  27.459  0.00  0.00    +0.282 C 
ATOM     55  C   UNL     1       5.588  -0.342  27.900  0.00  0.00    +0.201 C 
ATOM     56  C   UNL     1       4.221  -0.346  28.541  0.00  0.00    +0.179 C 
ATOM     57  C   UNL     1       3.265  -0.890  27.499  0.00  0.00    +0.178 C 
BRANCH  57  58
ATOM     58  O   UNL     1       1.941  -0.830  28.031  0.00  0.00    -0.386 OA
ATOM     59  H   UNL     1       1.526  -1.697  27.875  0.00  0.00    +0.210 HD
ENDBRANCH  57  58
BRANCH  56  60
ATOM     60  O   UNL     1       3.811   0.985  28.866  0.00  0.00    -0.386 OA
ATOM     61  H   UNL     1       4.319   1.330  29.611  0.00  0.00    +0.210 HD
ENDBRANCH  56  60
BRANCH  55  62
ATOM     62  O   UNL     1       5.328   0.395  26.700  0.00  0.00    -0.384 OA
ATOM     63  H   UNL     1       6.196   0.521  26.249  0.00  0.00    +0.210 HD
ENDBRANCH  55  62
BRANCH  52  64
ATOM     64  C   UNL     1       3.350  -3.166  28.366  0.00  0.00    +0.266 C 
BRANCH  64  65
ATOM     65  O   UNL     1       2.715  -4.323  27.879  0.00  0.00    -0.459 OA
BRANCH  65  66
ATOM     66  C   UNL     1       1.369  -4.196  27.934  0.00  0.00    +0.332 C 
ATOM     67  O   UNL     1       0.695  -3.575  28.719  0.00  0.00    -0.246 OA
BRANCH  66  69
ATOM     68  C   UNL     1       1.848  -5.483  26.017  0.00  0.00    +0.015 C 
ATOM     69  C   UNL     1       0.888  -4.982  26.811  0.00  0.00    +0.092 C 
BRANCH  68  72
ATOM     70  C   UNL     1       0.874  -8.618  24.213  0.00  0.00    +0.162 A 
ATOM     71  C   UNL     1       1.131  -7.738  25.256  0.00  0.00    +0.057 A 
ATOM     72  C   UNL     1       1.559  -6.435  24.986  0.00  0.00    -0.021 A 
ATOM     73  C   UNL     1       1.730  -6.002  23.660  0.00  0.00    +0.012 A 
ATOM     74  C   UNL     1       1.495  -6.881  22.617  0.00  0.00    +0.050 A 
ATOM     75  C   UNL     1       1.080  -8.176  22.904  0.00  0.00    +0.158 A 
BRANCH  75  76
ATOM     76  O   UNL     1       0.855  -9.017  21.849  0.00  0.00    -0.503 OA
ATOM     77  H   UNL     1      -0.108  -8.967  21.689  0.00  0.00    +0.292 HD
ENDBRANCH  75  76
BRANCH  70  79
ATOM     78  C   UNL     1       0.735 -10.498  25.634  0.00  0.00    +0.277 C 
ATOM     79  O   UNL     1       0.445  -9.911  24.365  0.00  0.00    -0.491 OA
ENDBRANCH  70  79
ENDBRANCH  68  72
ENDBRANCH  66  69
ENDBRANCH  65  66
ENDBRANCH  64  65
ENDBRANCH  52  64
ENDBRANCH  51  54
ENDBRANCH  41  51
ENDBRANCH   1  46
TORSDOF 27
ENDMDL
MODEL 5
REMARK VINA RESULT:      -5.0      2.076      8.073
REMARK  Name = 
REMARK  28 active torsions:
REMARK  status: ('A' for Active; 'I' for Inactive)
REMARK    1  A    between atoms: C_1  and  O_2
REMARK    2  A    between atoms: O_2  and  C_3
REMARK    3  A    between atoms: C_4  and  O_75
REMARK    4  A    between atoms: C_7  and  C_9
REMARK    5  A    between atoms: C_10  and  C_11
REMARK    6  A    between atoms: C_11  and  O_13
REMARK    7  A    between atoms: O_13  and  C_14
REMARK    8  A    between atoms: C_14  and  C_15
REMARK    9  A    between atoms: C_16  and  O_74
REMARK   10  A    between atoms: C_18  and  O_73
REMARK   11  A    between atoms: C_20  and  O_72
REMARK   12  A    between atoms: C_21  and  O_24
REMARK   13  A    between atoms: O_24  and  C_25
REMARK   14  A    between atoms: C_27  and  O_36
REMARK   15  A    between atoms: C_31  and  O_35
REMARK   16  A    between atoms: C_33  and  O_34
REMARK   17  A    between atoms: O_36  and  C_37
REMARK   18  A    between atoms: C_38  and  C_64
REMARK   19  A    between atoms: C_42  and  O_49
REMARK   20  A    between atoms: C_44  and  O_48
REMARK   21  A    between atoms: O_49  and  C_50
REMARK   22  A    between atoms: C_52  and  O_63
REMARK   23  A    between atoms: C_53  and  O_62
REMARK   24  A    between atoms: C_55  and  O_61
REMARK   25  A    between atoms: C_57  and  C_59
REMARK   26  A    between atoms: C_59  and  O_60
REMARK   27  A    between atoms: C_66  and  O_71
REMARK   28  A    between atoms: C_67  and  O_70
REMARK                            x       y       z     vdW  Elec       q    Type
REMARK                         _______ _______ _______ _____ _____    ______ ____
ROOT
ATOM      1  O   UNL     1       9.123  -0.203  25.554  0.00  0.00    -0.453 OA
ENDROOT
BRANCH   1   2
ATOM      2  C   UNL     1       8.371  -1.221  24.913  0.00  0.00    +0.214 A 
ATOM      3  C   UNL     1       8.475  -2.703  24.957  0.00  0.00    +0.238 A 
ATOM      4  O   UNL     1       9.453  -3.254  24.439  0.00  0.00    -0.283 OA
ATOM      5  C   UNL     1       7.198  -3.465  25.206  0.00  0.00    +0.109 A 
ATOM      6  C   UNL     1       6.296  -3.115  24.232  0.00  0.00    +0.147 A 
ATOM      7  C   UNL     1       5.175  -3.919  24.001  0.00  0.00    +0.093 A 
ATOM      8  C   UNL     1       4.987  -5.124  24.697  0.00  0.00    +0.131 A 
ATOM      9  C   UNL     1       5.789  -5.404  25.784  0.00  0.00    +0.092 A 
ATOM     10  O   UNL     1       6.548  -1.986  23.458  0.00  0.00    -0.451 OA
ATOM     11  C   UNL     1       6.831  -4.514  26.083  0.00  0.00    +0.135 A 
ATOM     12  C   UNL     1       7.432  -0.991  23.960  0.00  0.00    +0.181 A 
BRANCH  12  13
ATOM     13  C   UNL     1       7.304   0.271  23.236  0.00  0.00    +0.025 A 
ATOM     14  C   UNL     1       6.151   1.096  23.293  0.00  0.00    +0.015 A 
ATOM     15  C   UNL     1       6.120   2.329  22.643  0.00  0.00    +0.050 A 
ATOM     16  C   UNL     1       7.257   2.771  21.985  0.00  0.00    +0.158 A 
ATOM     17  C   UNL     1       8.409   1.990  21.959  0.00  0.00    +0.159 A 
ATOM     18  C   UNL     1       8.426   0.743  22.554  0.00  0.00    +0.060 A 
BRANCH  17  19
ATOM     19  O   UNL     1       9.524   2.496  21.359  0.00  0.00    -0.503 OA
ATOM     20  H   UNL     1       9.977   3.057  22.015  0.00  0.00    +0.292 HD
ENDBRANCH  17  19
BRANCH  16  21
ATOM     21  O   UNL     1       7.257   3.995  21.399  0.00  0.00    -0.503 OA
ATOM     22  H   UNL     1       8.187   4.123  21.122  0.00  0.00    +0.292 HD
ENDBRANCH  16  21
ENDBRANCH  12  13
BRANCH  11  23
ATOM     23  O   UNL     1       7.352  -4.622  27.343  0.00  0.00    -0.506 OA
ATOM     24  H   UNL     1       7.434  -5.558  27.596  0.00  0.00    +0.292 HD
ENDBRANCH  11  23
BRANCH   8  25
ATOM     25  O   UNL     1       3.978  -5.916  24.227  0.00  0.00    -0.461 OA
BRANCH  25  26
ATOM     26  C   UNL     1       2.597  -5.660  24.556  0.00  0.00    +0.339 C 
ATOM     27  O   UNL     1       2.336  -5.220  25.901  0.00  0.00    -0.331 OA
ATOM     28  C   UNL     1       2.664  -6.207  26.895  0.00  0.00    +0.179 C 
ATOM     29  C   UNL     1       1.846  -7.505  26.701  0.00  0.00    +0.177 C 
ATOM     30  C   UNL     1       2.081  -8.061  25.286  0.00  0.00    +0.180 C 
ATOM     31  C   UNL     1       1.811  -6.960  24.235  0.00  0.00    +0.214 C 
BRANCH  29  32
ATOM     32  O   UNL     1       0.444  -7.270  26.863  0.00  0.00    -0.386 OA
ATOM     33  H   UNL     1      -0.006  -8.131  26.791  0.00  0.00    +0.210 HD
ENDBRANCH  29  32
BRANCH  31  34
ATOM     34  O   UNL     1       2.060  -7.455  22.909  0.00  0.00    -0.383 OA
ATOM     35  H   UNL     1       1.254  -7.329  22.380  0.00  0.00    +0.210 HD
ENDBRANCH  31  34
BRANCH  30  36
ATOM     36  O   UNL     1       3.385  -8.643  25.155  0.00  0.00    -0.386 OA
ATOM     37  H   UNL     1       4.076  -7.974  25.271  0.00  0.00    +0.210 HD
ENDBRANCH  30  36
BRANCH  28  38
ATOM     38  C   UNL     1       2.534  -5.594  28.305  0.00  0.00    +0.190 C 
BRANCH  38  39
ATOM     39  O   UNL     1       1.361  -4.822  28.521  0.00  0.00    -0.392 OA
ATOM     40  H   UNL     1       1.638  -3.992  28.948  0.00  0.00    +0.210 HD
ENDBRANCH  38  39
ENDBRANCH  28  38
ENDBRANCH  25  26
ENDBRANCH   8  25
ENDBRANCH   1   2
BRANCH   1  46
ATOM     41  C   UNL     1       7.077   1.084  26.437  0.00  0.00    +0.221 C 
ATOM     42  C   UNL     1       6.711   2.431  27.126  0.00  0.00    +0.180 C 
ATOM     43  C   UNL     1       7.019   3.603  26.188  0.00  0.00    +0.171 C 
ATOM     44  C   UNL     1       8.435   3.449  25.593  0.00  0.00    +0.198 C 
ATOM     45  O   UNL     1       8.703   2.144  25.016  0.00  0.00    -0.337 OA
ATOM     46  C   UNL     1       8.628   1.087  26.040  0.00  0.00    +0.340 C 
BRANCH  43  47
ATOM     47  O   UNL     1       6.860   4.840  26.903  0.00  0.00    -0.387 OA
ATOM     48  H   UNL     1       6.009   4.844  27.366  0.00  0.00    +0.210 HD
ENDBRANCH  43  47
BRANCH  42  49
ATOM     49  O   UNL     1       7.461   2.673  28.331  0.00  0.00    -0.386 OA
ATOM     50  H   UNL     1       7.746   1.802  28.663  0.00  0.00    +0.210 HD
ENDBRANCH  42  49
BRANCH  41  51
ATOM     51  O   UNL     1       6.445  -0.069  27.039  0.00  0.00    -0.337 OA
BRANCH  51  54
ATOM     52  C   UNL     1       3.687  -0.484  29.493  0.00  0.00    +0.190 C 
ATOM     53  O   UNL     1       4.932  -0.023  28.905  0.00  0.00    -0.339 OA
ATOM     54  C   UNL     1       5.076  -0.058  27.493  0.00  0.00    +0.282 C 
ATOM     55  C   UNL     1       4.343  -1.228  26.890  0.00  0.00    +0.201 C 
ATOM     56  C   UNL     1       2.944  -1.470  27.401  0.00  0.00    +0.179 C 
ATOM     57  C   UNL     1       3.073  -1.735  28.887  0.00  0.00    +0.178 C 
BRANCH  57  58
ATOM     58  O   UNL     1       1.780  -2.057  29.400  0.00  0.00    -0.386 OA
ATOM     59  H   UNL     1       1.214  -2.283  28.640  0.00  0.00    +0.210 HD
ENDBRANCH  57  58
BRANCH  56  60
ATOM     60  O   UNL     1       2.377  -2.633  26.792  0.00  0.00    -0.386 OA
ATOM     61  H   UNL     1       1.459  -2.754  27.065  0.00  0.00    +0.210 HD
ENDBRANCH  56  60
BRANCH  55  62
ATOM     62  O   UNL     1       5.016  -2.402  27.361  0.00  0.00    -0.384 OA
ATOM     63  H   UNL     1       4.476  -2.760  28.105  0.00  0.00    +0.210 HD
ENDBRANCH  55  62
BRANCH  52  64
ATOM     64  C   UNL     1       2.583   0.570  29.511  0.00  0.00    +0.266 C 
BRANCH  64  65
ATOM     65  O   UNL     1       3.127   1.785  29.059  0.00  0.00    -0.459 OA
BRANCH  65  66
ATOM     66  C   UNL     1       2.206   2.502  28.372  0.00  0.00    +0.332 C 
ATOM     67  O   UNL     1       1.024   2.624  28.585  0.00  0.00    -0.246 OA
BRANCH  66  69
ATOM     68  C   UNL     1       2.427   2.981  26.073  0.00  0.00    +0.015 C 
ATOM     69  C   UNL     1       2.962   3.122  27.297  0.00  0.00    +0.092 C 
BRANCH  68  72
ATOM     70  C   UNL     1       3.092   4.108  22.564  0.00  0.00    +0.162 A 
ATOM     71  C   UNL     1       2.557   3.390  23.625  0.00  0.00    +0.057 A 
ATOM     72  C   UNL     1       2.936   3.690  24.937  0.00  0.00    -0.021 A 
ATOM     73  C   UNL     1       3.855   4.719  25.194  0.00  0.00    +0.012 A 
ATOM     74  C   UNL     1       4.407   5.426  24.139  0.00  0.00    +0.050 A 
ATOM     75  C   UNL     1       4.028   5.107  22.841  0.00  0.00    +0.158 A 
BRANCH  75  76
ATOM     76  O   UNL     1       4.591   5.826  21.823  0.00  0.00    -0.503 OA
ATOM     77  H   UNL     1       4.595   5.216  21.058  0.00  0.00    +0.292 HD
ENDBRANCH  75  76
BRANCH  70  79
ATOM     78  C   UNL     1       1.598   4.554  20.791  0.00  0.00    +0.277 C 
ATOM     79  O   UNL     1       2.785   3.902  21.243  0.00  0.00    -0.491 OA
ENDBRANCH  70  79
ENDBRANCH  68  72
ENDBRANCH  66  69
ENDBRANCH  65  66
ENDBRANCH  64  65
ENDBRANCH  52  64
ENDBRANCH  51  54
ENDBRANCH  41  51
ENDBRANCH   1  46
TORSDOF 27
ENDMDL
MODEL 6
REMARK VINA RESULT:      -4.8      2.545      8.133
REMARK  Name = 
REMARK  28 active torsions:
REMARK  status: ('A' for Active; 'I' for Inactive)
REMARK    1  A    between atoms: C_1  and  O_2
REMARK    2  A    between atoms: O_2  and  C_3
REMARK    3  A    between atoms: C_4  and  O_75
REMARK    4  A    between atoms: C_7  and  C_9
REMARK    5  A    between atoms: C_10  and  C_11
REMARK    6  A    between atoms: C_11  and  O_13
REMARK    7  A    between atoms: O_13  and  C_14
REMARK    8  A    between atoms: C_14  and  C_15
REMARK    9  A    between atoms: C_16  and  O_74
REMARK   10  A    between atoms: C_18  and  O_73
REMARK   11  A    between atoms: C_20  and  O_72
REMARK   12  A    between atoms: C_21  and  O_24
REMARK   13  A    between atoms: O_24  and  C_25
REMARK   14  A    between atoms: C_27  and  O_36
REMARK   15  A    between atoms: C_31  and  O_35
REMARK   16  A    between atoms: C_33  and  O_34
REMARK   17  A    between atoms: O_36  and  C_37
REMARK   18  A    between atoms: C_38  and  C_64
REMARK   19  A    between atoms: C_42  and  O_49
REMARK   20  A    between atoms: C_44  and  O_48
REMARK   21  A    between atoms: O_49  and  C_50
REMARK   22  A    between atoms: C_52  and  O_63
REMARK   23  A    between atoms: C_53  and  O_62
REMARK   24  A    between atoms: C_55  and  O_61
REMARK   25  A    between atoms: C_57  and  C_59
REMARK   26  A    between atoms: C_59  and  O_60
REMARK   27  A    between atoms: C_66  and  O_71
REMARK   28  A    between atoms: C_67  and  O_70
REMARK                            x       y       z     vdW  Elec       q    Type
REMARK                         _______ _______ _______ _____ _____    ______ ____
ROOT
ATOM      1  O   UNL     1       5.888  -0.464  26.806  0.00  0.00    -0.453 OA
ENDROOT
BRANCH   1   2
ATOM      2  C   UNL     1       5.200  -1.657  26.462  0.00  0.00    +0.214 A 
ATOM      3  C   UNL     1       3.988  -2.299  27.035  0.00  0.00    +0.238 A 
ATOM      4  O   UNL     1       4.045  -2.791  28.168  0.00  0.00    -0.283 OA
ATOM      5  C   UNL     1       2.921  -2.724  26.059  0.00  0.00    +0.109 A 
ATOM      6  C   UNL     1       3.490  -3.585  25.153  0.00  0.00    +0.147 A 
ATOM      7  C   UNL     1       2.675  -4.406  24.367  0.00  0.00    +0.093 A 
ATOM      8  C   UNL     1       1.281  -4.423  24.535  0.00  0.00    +0.131 A 
ATOM      9  C   UNL     1       0.686  -3.455  25.316  0.00  0.00    +0.092 A 
ATOM     10  O   UNL     1       4.877  -3.656  25.075  0.00  0.00    -0.451 OA
ATOM     11  C   UNL     1       1.517  -2.553  25.997  0.00  0.00    +0.135 A 
ATOM     12  C   UNL     1       5.651  -2.565  25.559  0.00  0.00    +0.181 A 
BRANCH  12  13
ATOM     13  C   UNL     1       7.028  -2.611  25.076  0.00  0.00    +0.025 A 
ATOM     14  C   UNL     1       8.068  -3.319  25.733  0.00  0.00    +0.015 A 
ATOM     15  C   UNL     1       9.345  -3.391  25.180  0.00  0.00    +0.050 A 
ATOM     16  C   UNL     1       9.577  -2.811  23.943  0.00  0.00    +0.158 A 
ATOM     17  C   UNL     1       8.553  -2.151  23.269  0.00  0.00    +0.159 A 
ATOM     18  C   UNL     1       7.301  -2.029  23.838  0.00  0.00    +0.060 A 
BRANCH  17  19
ATOM     19  O   UNL     1       8.810  -1.655  22.024  0.00  0.00    -0.503 OA
ATOM     20  H   UNL     1       9.197  -0.768  22.139  0.00  0.00    +0.292 HD
ENDBRANCH  17  19
BRANCH  16  21
ATOM     21  O   UNL     1      10.801  -2.926  23.369  0.00  0.00    -0.503 OA
ATOM     22  H   UNL     1      11.422  -2.806  24.115  0.00  0.00    +0.292 HD
ENDBRANCH  16  21
ENDBRANCH  12  13
BRANCH  11  23
ATOM     23  O   UNL     1       0.904  -1.415  26.447  0.00  0.00    -0.506 OA
ATOM     24  H   UNL     1       1.247  -1.172  27.325  0.00  0.00    +0.292 HD
ENDBRANCH  11  23
BRANCH   8  25
ATOM     25  O   UNL     1       0.627  -5.418  23.865  0.00  0.00    -0.461 OA
BRANCH  25  26
ATOM     26  C   UNL     1       0.463  -6.734  24.432  0.00  0.00    +0.339 C 
ATOM     27  O   UNL     1       1.012  -6.931  25.747  0.00  0.00    -0.331 OA
ATOM     28  C   UNL     1       2.445  -6.803  25.789  0.00  0.00    +0.179 C 
ATOM     29  C   UNL     1       3.136  -7.841  24.875  0.00  0.00    +0.177 C 
ATOM     30  C   UNL     1       2.620  -7.690  23.434  0.00  0.00    +0.180 C 
ATOM     31  C   UNL     1       1.075  -7.739  23.419  0.00  0.00    +0.214 C 
BRANCH  29  32
ATOM     32  O   UNL     1       2.873  -9.179  25.308  0.00  0.00    -0.386 OA
ATOM     33  H   UNL     1       3.583  -9.431  25.925  0.00  0.00    +0.210 HD
ENDBRANCH  29  32
BRANCH  31  34
ATOM     34  O   UNL     1       0.576  -7.564  22.083  0.00  0.00    -0.383 OA
ATOM     35  H   UNL     1      -0.230  -7.021  22.126  0.00  0.00    +0.210 HD
ENDBRANCH  31  34
BRANCH  30  36
ATOM     36  O   UNL     1       3.142  -6.513  22.804  0.00  0.00    -0.386 OA
ATOM     37  H   UNL     1       2.915  -5.719  23.311  0.00  0.00    +0.210 HD
ENDBRANCH  30  36
BRANCH  28  38
ATOM     38  C   UNL     1       2.932  -6.840  27.253  0.00  0.00    +0.190 C 
BRANCH  38  39
ATOM     39  O   UNL     1       3.920  -5.874  27.585  0.00  0.00    -0.392 OA
ATOM     40  H   UNL     1       4.644  -5.971  26.941  0.00  0.00    +0.210 HD
ENDBRANCH  38  39
ENDBRANCH  28  38
ENDBRANCH  25  26
ENDBRANCH   8  25
ENDBRANCH   1   2
BRANCH   1  46
ATOM     41  C   UNL     1       5.132   1.971  27.148  0.00  0.00    +0.221 C 
ATOM     42  C   UNL     1       4.513   2.895  28.237  0.00  0.00    +0.180 C 
ATOM     43  C   UNL     1       5.487   3.053  29.410  0.00  0.00    +0.171 C 
ATOM     44  C   UNL     1       6.024   1.673  29.843  0.00  0.00    +0.198 C 
ATOM     45  O   UNL     1       6.536   0.860  28.754  0.00  0.00    -0.337 OA
ATOM     46  C   UNL     1       5.473   0.542  27.785  0.00  0.00    +0.340 C 
BRANCH  43  47
ATOM     47  O   UNL     1       4.829   3.744  30.485  0.00  0.00    -0.387 OA
ATOM     48  H   UNL     1       5.289   4.577  30.669  0.00  0.00    +0.210 HD
ENDBRANCH  43  47
BRANCH  42  49
ATOM     49  O   UNL     1       3.293   2.374  28.795  0.00  0.00    -0.386 OA
ATOM     50  H   UNL     1       3.524   1.981  29.656  0.00  0.00    +0.210 HD
ENDBRANCH  42  49
BRANCH  41  51
ATOM     51  O   UNL     1       4.507   2.100  25.851  0.00  0.00    -0.337 OA
BRANCH  51  54
ATOM     52  C   UNL     1       4.026   5.595  24.685  0.00  0.00    +0.190 C 
ATOM     53  O   UNL     1       4.320   4.478  25.566  0.00  0.00    -0.339 OA
ATOM     54  C   UNL     1       4.717   3.241  24.994  0.00  0.00    +0.282 C 
ATOM     55  C   UNL     1       4.039   3.000  23.670  0.00  0.00    +0.201 C 
ATOM     56  C   UNL     1       4.008   4.170  22.717  0.00  0.00    +0.179 C 
ATOM     57  C   UNL     1       3.245   5.273  23.422  0.00  0.00    +0.178 C 
BRANCH  57  58
ATOM     58  O   UNL     1       3.114   6.374  22.521  0.00  0.00    -0.386 OA
ATOM     59  H   UNL     1       2.412   6.147  21.886  0.00  0.00    +0.210 HD
ENDBRANCH  57  58
BRANCH  56  60
ATOM     60  O   UNL     1       3.296   3.832  21.524  0.00  0.00    -0.386 OA
ATOM     61  H   UNL     1       3.681   4.272  20.756  0.00  0.00    +0.210 HD
ENDBRANCH  56  60
BRANCH  55  62
ATOM     62  O   UNL     1       2.645   2.845  23.962  0.00  0.00    -0.384 OA
ATOM     63  H   UNL     1       2.279   3.752  24.093  0.00  0.00    +0.210 HD
ENDBRANCH  55  62
BRANCH  52  64
ATOM     64  C   UNL     1       5.260   6.374  24.239  0.00  0.00    +0.266 C 
BRANCH  64  65
ATOM     65  O   UNL     1       5.767   7.070  25.352  0.00  0.00    -0.459 OA
BRANCH  65  66
ATOM     66  C   UNL     1       7.067   6.757  25.567  0.00  0.00    +0.332 C 
ATOM     67  O   UNL     1       7.795   7.105  26.464  0.00  0.00    -0.246 OA
BRANCH  66  69
ATOM     68  C   UNL     1       8.174   4.824  24.791  0.00  0.00    +0.015 C 
ATOM     69  C   UNL     1       7.412   5.880  24.461  0.00  0.00    +0.092 C 
BRANCH  68  72
ATOM     70  C   UNL     1       9.646   1.798  23.146  0.00  0.00    +0.162 A 
ATOM     71  C   UNL     1       9.429   2.799  24.084  0.00  0.00    +0.057 A 
ATOM     72  C   UNL     1       8.440   3.763  23.866  0.00  0.00    -0.021 A 
ATOM     73  C   UNL     1       7.655   3.726  22.702  0.00  0.00    +0.012 A 
ATOM     74  C   UNL     1       7.880   2.743  21.754  0.00  0.00    +0.050 A 
ATOM     75  C   UNL     1       8.875   1.799  21.981  0.00  0.00    +0.158 A 
BRANCH  75  76
ATOM     76  O   UNL     1       9.069   0.842  21.025  0.00  0.00    -0.503 OA
ATOM     77  H   UNL     1       9.816   1.171  20.487  0.00  0.00    +0.292 HD
ENDBRANCH  75  76
BRANCH  70  79
ATOM     78  C   UNL     1      11.033   0.551  24.593  0.00  0.00    +0.277 C 
ATOM     79  O   UNL     1      10.582   0.802  23.262  0.00  0.00    -0.491 OA
ENDBRANCH  70  79
ENDBRANCH  68  72
ENDBRANCH  66  69
ENDBRANCH  65  66
ENDBRANCH  64  65
ENDBRANCH  52  64
ENDBRANCH  51  54
ENDBRANCH  41  51
ENDBRANCH   1  46
TORSDOF 27
ENDMDL
MODEL 7
REMARK VINA RESULT:      -4.6      2.553      6.929
REMARK  Name = 
REMARK  28 active torsions:
REMARK  status: ('A' for Active; 'I' for Inactive)
REMARK    1  A    between atoms: C_1  and  O_2
REMARK    2  A    between atoms: O_2  and  C_3
REMARK    3  A    between atoms: C_4  and  O_75
REMARK    4  A    between atoms: C_7  and  C_9
REMARK    5  A    between atoms: C_10  and  C_11
REMARK    6  A    between atoms: C_11  and  O_13
REMARK    7  A    between atoms: O_13  and  C_14
REMARK    8  A    between atoms: C_14  and  C_15
REMARK    9  A    between atoms: C_16  and  O_74
REMARK   10  A    between atoms: C_18  and  O_73
REMARK   11  A    between atoms: C_20  and  O_72
REMARK   12  A    between atoms: C_21  and  O_24
REMARK   13  A    between atoms: O_24  and  C_25
REMARK   14  A    between atoms: C_27  and  O_36
REMARK   15  A    between atoms: C_31  and  O_35
REMARK   16  A    between atoms: C_33  and  O_34
REMARK   17  A    between atoms: O_36  and  C_37
REMARK   18  A    between atoms: C_38  and  C_64
REMARK   19  A    between atoms: C_42  and  O_49
REMARK   20  A    between atoms: C_44  and  O_48
REMARK   21  A    between atoms: O_49  and  C_50
REMARK   22  A    between atoms: C_52  and  O_63
REMARK   23  A    between atoms: C_53  and  O_62
REMARK   24  A    between atoms: C_55  and  O_61
REMARK   25  A    between atoms: C_57  and  C_59
REMARK   26  A    between atoms: C_59  and  O_60
REMARK   27  A    between atoms: C_66  and  O_71
REMARK   28  A    between atoms: C_67  and  O_70
REMARK                            x       y       z     vdW  Elec       q    Type
REMARK                         _______ _______ _______ _____ _____    ______ ____
ROOT
ATOM      1  O   UNL     1       4.877  -2.898  28.915  0.00  0.00    -0.453 OA
ENDROOT
BRANCH   1   2
ATOM      2  C   UNL     1       4.431  -1.634  28.451  0.00  0.00    +0.214 A 
ATOM      3  C   UNL     1       4.658  -0.257  28.961  0.00  0.00    +0.238 A 
ATOM      4  O   UNL     1       4.145   0.081  30.034  0.00  0.00    -0.283 OA
ATOM      5  C   UNL     1       5.096   0.775  27.953  0.00  0.00    +0.109 A 
ATOM      6  C   UNL     1       4.154   0.825  26.955  0.00  0.00    +0.147 A 
ATOM      7  C   UNL     1       4.112   1.924  26.092  0.00  0.00    +0.093 A 
ATOM      8  C   UNL     1       4.970   3.022  26.268  0.00  0.00    +0.131 A 
ATOM      9  C   UNL     1       6.022   2.917  27.154  0.00  0.00    +0.092 A 
ATOM     10  O   UNL     1       3.225  -0.206  26.859  0.00  0.00    -0.451 OA
ATOM     11  C   UNL     1       6.126   1.747  27.921  0.00  0.00    +0.135 A 
ATOM     12  C   UNL     1       3.527  -1.463  27.451  0.00  0.00    +0.181 A 
BRANCH  12  13
ATOM     13  C   UNL     1       2.658  -2.527  26.955  0.00  0.00    +0.025 A 
ATOM     14  C   UNL     1       2.415  -2.766  25.578  0.00  0.00    +0.015 A 
ATOM     15  C   UNL     1       1.639  -3.846  25.164  0.00  0.00    +0.050 A 
ATOM     16  C   UNL     1       1.151  -4.728  26.116  0.00  0.00    +0.158 A 
ATOM     17  C   UNL     1       1.418  -4.528  27.468  0.00  0.00    +0.159 A 
ATOM     18  C   UNL     1       2.141  -3.428  27.887  0.00  0.00    +0.060 A 
BRANCH  17  19
ATOM     19  O   UNL     1       0.976  -5.459  28.362  0.00  0.00    -0.503 OA
ATOM     20  H   UNL     1       1.159  -5.113  29.254  0.00  0.00    +0.292 HD
ENDBRANCH  17  19
BRANCH  16  21
ATOM     21  O   UNL     1       0.443  -5.816  25.720  0.00  0.00    -0.503 OA
ATOM     22  H   UNL     1       1.127  -6.500  25.571  0.00  0.00    +0.292 HD
ENDBRANCH  16  21
ENDBRANCH  12  13
BRANCH  11  23
ATOM     23  O   UNL     1       7.348   1.528  28.495  0.00  0.00    -0.506 OA
ATOM     24  H   UNL     1       7.530   2.205  29.171  0.00  0.00    +0.292 HD
ENDBRANCH  11  23
BRANCH   8  25
ATOM     25  O   UNL     1       4.681   4.115  25.500  0.00  0.00    -0.461 OA
BRANCH  25  26
ATOM     26  C   UNL     1       4.669   4.047  24.060  0.00  0.00    +0.339 C 
ATOM     27  O   UNL     1       5.868   4.481  23.393  0.00  0.00    -0.331 OA
ATOM     28  C   UNL     1       6.153   5.878  23.589  0.00  0.00    +0.179 C 
ATOM     29  C   UNL     1       5.014   6.773  23.048  0.00  0.00    +0.177 C 
ATOM     30  C   UNL     1       3.686   6.390  23.725  0.00  0.00    +0.180 C 
ATOM     31  C   UNL     1       3.441   4.870  23.584  0.00  0.00    +0.214 C 
BRANCH  29  32
ATOM     32  O   UNL     1       4.855   6.623  21.634  0.00  0.00    -0.386 OA
ATOM     33  H   UNL     1       3.913   6.449  21.463  0.00  0.00    +0.210 HD
ENDBRANCH  29  32
BRANCH  31  34
ATOM     34  O   UNL     1       2.221   4.492  24.242  0.00  0.00    -0.383 OA
ATOM     35  H   UNL     1       1.880   3.687  23.813  0.00  0.00    +0.210 HD
ENDBRANCH  31  34
BRANCH  30  36
ATOM     36  O   UNL     1       3.638   6.833  25.087  0.00  0.00    -0.386 OA
ATOM     37  H   UNL     1       2.735   7.082  25.339  0.00  0.00    +0.210 HD
ENDBRANCH  30  36
BRANCH  28  38
ATOM     38  C   UNL     1       7.541   6.216  23.006  0.00  0.00    +0.190 C 
BRANCH  38  39
ATOM     39  O   UNL     1       7.630   6.159  21.589  0.00  0.00    -0.392 OA
ATOM     40  H   UNL     1       8.102   6.959  21.298  0.00  0.00    +0.210 HD
ENDBRANCH  38  39
ENDBRANCH  28  38
ENDBRANCH  25  26
ENDBRANCH   8  25
ENDBRANCH   1   2
BRANCH   1  46
ATOM     41  C   UNL     1       6.460  -3.227  26.914  0.00  0.00    +0.221 C 
ATOM     42  C   UNL     1       7.731  -4.030  26.506  0.00  0.00    +0.180 C 
ATOM     43  C   UNL     1       7.419  -5.531  26.483  0.00  0.00    +0.171 C 
ATOM     44  C   UNL     1       6.681  -5.940  27.774  0.00  0.00    +0.198 C 
ATOM     45  O   UNL     1       5.539  -5.105  28.102  0.00  0.00    -0.337 OA
ATOM     46  C   UNL     1       5.955  -3.714  28.353  0.00  0.00    +0.340 C 
BRANCH  43  47
ATOM     47  O   UNL     1       8.640  -6.267  26.296  0.00  0.00    -0.387 OA
ATOM     48  H   UNL     1       8.475  -7.213  26.423  0.00  0.00    +0.210 HD
ENDBRANCH  43  47
BRANCH  42  49
ATOM     49  O   UNL     1       8.826  -3.861  27.424  0.00  0.00    -0.386 OA
ATOM     50  H   UNL     1       9.637  -4.107  26.941  0.00  0.00    +0.210 HD
ENDBRANCH  42  49
BRANCH  41  51
ATOM     51  O   UNL     1       6.518  -1.827  26.557  0.00  0.00    -0.337 OA
BRANCH  51  54
ATOM     52  C   UNL     1       8.423  -1.763  23.368  0.00  0.00    +0.190 C 
ATOM     53  O   UNL     1       7.648  -2.275  24.485  0.00  0.00    -0.339 OA
ATOM     54  C   UNL     1       6.838  -1.375  25.226  0.00  0.00    +0.282 C 
ATOM     55  C   UNL     1       7.460  -0.005  25.303  0.00  0.00    +0.201 C 
ATOM     56  C   UNL     1       8.020   0.544  24.013  0.00  0.00    +0.179 C 
ATOM     57  C   UNL     1       9.103  -0.420  23.575  0.00  0.00    +0.178 C 
BRANCH  57  58
ATOM     58  O   UNL     1       9.723   0.106  22.401  0.00  0.00    -0.386 OA
ATOM     59  H   UNL     1      10.204  -0.626  21.974  0.00  0.00    +0.210 HD
ENDBRANCH  57  58
BRANCH  56  60
ATOM     60  O   UNL     1       8.625   1.822  24.228  0.00  0.00    -0.386 OA
ATOM     61  H   UNL     1       8.591   2.360  23.427  0.00  0.00    +0.210 HD
ENDBRANCH  56  60
BRANCH  55  62
ATOM     62  O   UNL     1       8.654  -0.156  26.080  0.00  0.00    -0.384 OA
ATOM     63  H   UNL     1       9.270  -0.715  25.550  0.00  0.00    +0.210 HD
ENDBRANCH  55  62
BRANCH  52  64
ATOM     64  C   UNL     1       7.633  -1.649  22.068  0.00  0.00    +0.266 C 
BRANCH  64  65
ATOM     65  O   UNL     1       6.406  -2.315  22.236  0.00  0.00    -0.459 OA
BRANCH  65  66
ATOM     66  C   UNL     1       6.547  -3.647  22.035  0.00  0.00    +0.332 C 
ATOM     67  O   UNL     1       7.278  -4.227  21.271  0.00  0.00    -0.246 OA
BRANCH  66  69
ATOM     68  C   UNL     1       5.011  -5.368  22.524  0.00  0.00    +0.015 C 
ATOM     69  C   UNL     1       5.610  -4.251  22.968  0.00  0.00    +0.092 C 
BRANCH  68  72
ATOM     70  C   UNL     1       2.268  -7.544  23.858  0.00  0.00    +0.162 A 
ATOM     71  C   UNL     1       3.001  -6.760  22.977  0.00  0.00    +0.057 A 
ATOM     72  C   UNL     1       4.213  -6.192  23.383  0.00  0.00    -0.021 A 
ATOM     73  C   UNL     1       4.701  -6.410  24.682  0.00  0.00    +0.012 A 
ATOM     74  C   UNL     1       3.965  -7.174  25.571  0.00  0.00    +0.050 A 
ATOM     75  C   UNL     1       2.758  -7.722  25.154  0.00  0.00    +0.158 A 
BRANCH  75  76
ATOM     76  O   UNL     1       2.057  -8.472  26.058  0.00  0.00    -0.503 OA
ATOM     77  H   UNL     1       2.187  -9.398  25.771  0.00  0.00    +0.292 HD
ENDBRANCH  75  76
BRANCH  70  79
ATOM     78  C   UNL     1       0.820  -8.333  22.169  0.00  0.00    +0.277 C 
ATOM     79  O   UNL     1       1.076  -8.152  23.562  0.00  0.00    -0.491 OA
ENDBRANCH  70  79
ENDBRANCH  68  72
ENDBRANCH  66  69
ENDBRANCH  65  66
ENDBRANCH  64  65
ENDBRANCH  52  64
ENDBRANCH  51  54
ENDBRANCH  41  51
ENDBRANCH   1  46
TORSDOF 27
ENDMDL
MODEL 8
REMARK VINA RESULT:      -4.5      2.704      7.607
REMARK  Name = 
REMARK  28 active torsions:
REMARK  status: ('A' for Active; 'I' for Inactive)
REMARK    1  A    between atoms: C_1  and  O_2
REMARK    2  A    between atoms: O_2  and  C_3
REMARK    3  A    between atoms: C_4  and  O_75
REMARK    4  A    between atoms: C_7  and  C_9
REMARK    5  A    between atoms: C_10  and  C_11
REMARK    6  A    between atoms: C_11  and  O_13
REMARK    7  A    between atoms: O_13  and  C_14
REMARK    8  A    between atoms: C_14  and  C_15
REMARK    9  A    between atoms: C_16  and  O_74
REMARK   10  A    between atoms: C_18  and  O_73
REMARK   11  A    between atoms: C_20  and  O_72
REMARK   12  A    between atoms: C_21  and  O_24
REMARK   13  A    between atoms: O_24  and  C_25
REMARK   14  A    between atoms: C_27  and  O_36
REMARK   15  A    between atoms: C_31  and  O_35
REMARK   16  A    between atoms: C_33  and  O_34
REMARK   17  A    between atoms: O_36  and  C_37
REMARK   18  A    between atoms: C_38  and  C_64
REMARK   19  A    between atoms: C_42  and  O_49
REMARK   20  A    between atoms: C_44  and  O_48
REMARK   21  A    between atoms: O_49  and  C_50
REMARK   22  A    between atoms: C_52  and  O_63
REMARK   23  A    between atoms: C_53  and  O_62
REMARK   24  A    between atoms: C_55  and  O_61
REMARK   25  A    between atoms: C_57  and  C_59
REMARK   26  A    between atoms: C_59  and  O_60
REMARK   27  A    between atoms: C_66  and  O_71
REMARK   28  A    between atoms: C_67  and  O_70
REMARK                            x       y       z     vdW  Elec       q    Type
REMARK                         _______ _______ _______ _____ _____    ______ ____
ROOT
ATOM      1  O   UNL     1       7.102  -1.370  22.345  0.00  0.00    -0.453 OA
ENDROOT
BRANCH   1   2
ATOM      2  C   UNL     1       7.531  -0.500  23.380  0.00  0.00    +0.214 A 
ATOM      3  C   UNL     1       7.674   0.979  23.433  0.00  0.00    +0.238 A 
ATOM      4  O   UNL     1       8.557   1.524  22.761  0.00  0.00    -0.283 OA
ATOM      5  C   UNL     1       7.064   1.676  24.623  0.00  0.00    +0.109 A 
ATOM      6  C   UNL     1       7.615   1.139  25.760  0.00  0.00    +0.147 A 
ATOM      7  C   UNL     1       7.512   1.826  26.974  0.00  0.00    +0.093 A 
ATOM      8  C   UNL     1       6.916   3.096  27.044  0.00  0.00    +0.131 A 
ATOM      9  C   UNL     1       6.218   3.572  25.954  0.00  0.00    +0.092 A 
ATOM     10  O   UNL     1       8.313  -0.061  25.666  0.00  0.00    -0.451 OA
ATOM     11  C   UNL     1       6.222   2.803  24.780  0.00  0.00    +0.135 A 
ATOM     12  C   UNL     1       8.062  -0.917  24.558  0.00  0.00    +0.181 A 
BRANCH  12  13
ATOM     13  C   UNL     1       8.565  -2.270  24.785  0.00  0.00    +0.025 A 
ATOM     14  C   UNL     1       9.685  -2.816  24.107  0.00  0.00    +0.015 A 
ATOM     15  C   UNL     1      10.165  -4.085  24.424  0.00  0.00    +0.050 A 
ATOM     16  C   UNL     1       9.571  -4.790  25.459  0.00  0.00    +0.158 A 
ATOM     17  C   UNL     1       8.499  -4.247  26.161  0.00  0.00    +0.159 A 
ATOM     18  C   UNL     1       7.984  -3.013  25.813  0.00  0.00    +0.060 A 
BRANCH  17  19
ATOM     19  O   UNL     1       7.991  -4.947  27.216  0.00  0.00    -0.503 OA
ATOM     20  H   UNL     1       7.268  -5.504  26.872  0.00  0.00    +0.292 HD
ENDBRANCH  17  19
BRANCH  16  21
ATOM     21  O   UNL     1      10.068  -6.001  25.816  0.00  0.00    -0.503 OA
ATOM     22  H   UNL     1      10.614  -6.266  25.048  0.00  0.00    +0.292 HD
ENDBRANCH  16  21
ENDBRANCH  12  13
BRANCH  11  23
ATOM     23  O   UNL     1       5.246   3.112  23.873  0.00  0.00    -0.506 OA
ATOM     24  H   UNL     1       4.752   3.899  24.163  0.00  0.00    +0.292 HD
ENDBRANCH  11  23
BRANCH   8  25
ATOM     25  O   UNL     1       7.074   3.747  28.235  0.00  0.00    -0.461 OA
BRANCH  25  26
ATOM     26  C   UNL     1       6.135   3.584  29.318  0.00  0.00    +0.339 C 
ATOM     27  O   UNL     1       4.797   3.205  28.947  0.00  0.00    -0.331 OA
ATOM     28  C   UNL     1       4.122   4.203  28.161  0.00  0.00    +0.179 C 
ATOM     29  C   UNL     1       3.993   5.540  28.927  0.00  0.00    +0.177 C 
ATOM     30  C   UNL     1       5.387   6.035  29.349  0.00  0.00    +0.180 C 
ATOM     31  C   UNL     1       6.134   4.917  30.114  0.00  0.00    +0.214 C 
BRANCH  29  32
ATOM     32  O   UNL     1       3.193   5.395  30.105  0.00  0.00    -0.386 OA
ATOM     33  H   UNL     1       3.800   5.326  30.863  0.00  0.00    +0.210 HD
ENDBRANCH  29  32
BRANCH  31  34
ATOM     34  O   UNL     1       7.452   5.353  30.485  0.00  0.00    -0.383 OA
ATOM     35  H   UNL     1       7.768   4.785  31.209  0.00  0.00    +0.210 HD
ENDBRANCH  31  34
BRANCH  30  36
ATOM     36  O   UNL     1       6.133   6.534  28.232  0.00  0.00    -0.386 OA
ATOM     37  H   UNL     1       5.731   7.343  27.880  0.00  0.00    +0.210 HD
ENDBRANCH  30  36
BRANCH  28  38
ATOM     38  C   UNL     1       2.777   3.646  27.650  0.00  0.00    +0.190 C 
BRANCH  38  39
ATOM     39  O   UNL     1       2.882   2.617  26.676  0.00  0.00    -0.392 OA
ATOM     40  H   UNL     1       2.334   2.885  25.916  0.00  0.00    +0.210 HD
ENDBRANCH  38  39
ENDBRANCH  28  38
ENDBRANCH  25  26
ENDBRANCH   8  25
ENDBRANCH   1   2
BRANCH   1  46
ATOM     41  C   UNL     1       5.762  -2.947  23.874  0.00  0.00    +0.221 C 
ATOM     42  C   UNL     1       5.046  -4.330  23.842  0.00  0.00    +0.180 C 
ATOM     43  C   UNL     1       6.071  -5.448  23.617  0.00  0.00    +0.171 C 
ATOM     44  C   UNL     1       7.006  -5.084  22.445  0.00  0.00    +0.198 C 
ATOM     45  O   UNL     1       7.590  -3.757  22.535  0.00  0.00    -0.337 OA
ATOM     46  C   UNL     1       6.547  -2.716  22.498  0.00  0.00    +0.340 C 
BRANCH  43  47
ATOM     47  O   UNL     1       5.379  -6.689  23.398  0.00  0.00    -0.387 OA
ATOM     48  H   UNL     1       6.019  -7.392  23.209  0.00  0.00    +0.210 HD
ENDBRANCH  43  47
BRANCH  42  49
ATOM     49  O   UNL     1       4.085  -4.445  22.777  0.00  0.00    -0.386 OA
ATOM     50  H   UNL     1       4.537  -4.895  22.039  0.00  0.00    +0.210 HD
ENDBRANCH  42  49
BRANCH  41  51
ATOM     51  O   UNL     1       4.980  -1.901  24.492  0.00  0.00    -0.337 OA
BRANCH  51  54
ATOM     52  C   UNL     1       2.262  -2.018  27.024  0.00  0.00    +0.190 C 
ATOM     53  O   UNL     1       3.034  -2.333  25.834  0.00  0.00    -0.339 OA
ATOM     54  C   UNL     1       4.420  -2.025  25.816  0.00  0.00    +0.282 C 
ATOM     55  C   UNL     1       4.721  -0.776  26.602  0.00  0.00    +0.201 C 
ATOM     56  C   UNL     1       4.053  -0.664  27.952  0.00  0.00    +0.179 C 
ATOM     57  C   UNL     1       2.562  -0.686  27.692  0.00  0.00    +0.178 C 
BRANCH  57  58
ATOM     58  O   UNL     1       1.886  -0.494  28.936  0.00  0.00    -0.386 OA
ATOM     59  H   UNL     1       0.989  -0.860  28.839  0.00  0.00    +0.210 HD
ENDBRANCH  57  58
BRANCH  56  60
ATOM     60  O   UNL     1       4.376   0.583  28.573  0.00  0.00    -0.386 OA
ATOM     61  H   UNL     1       3.726   1.260  28.347  0.00  0.00    +0.210 HD
ENDBRANCH  56  60
BRANCH  55  62
ATOM     62  O   UNL     1       4.092   0.298  25.893  0.00  0.00    -0.384 OA
ATOM     63  H   UNL     1       4.211   0.114  24.932  0.00  0.00    +0.210 HD
ENDBRANCH  55  62
BRANCH  52  64
ATOM     64  C   UNL     1       2.353  -3.077  28.119  0.00  0.00    +0.266 C 
BRANCH  64  65
ATOM     65  O   UNL     1       3.321  -4.024  27.738  0.00  0.00    -0.459 OA
BRANCH  65  66
ATOM     66  C   UNL     1       3.055  -5.234  28.284  0.00  0.00    +0.332 C 
ATOM     67  O   UNL     1       3.418  -5.687  29.341  0.00  0.00    -0.246 OA
BRANCH  66  69
ATOM     68  C   UNL     1       2.825  -6.232  26.159  0.00  0.00    +0.015 C 
ATOM     69  C   UNL     1       2.208  -5.892  27.302  0.00  0.00    +0.092 C 
BRANCH  68  72
ATOM     70  C   UNL     1       1.200  -9.126  24.423  0.00  0.00    +0.162 A 
ATOM     71  C   UNL     1       1.804  -8.376  25.422  0.00  0.00    +0.057 A 
ATOM     72  C   UNL     1       2.191  -7.055  25.173  0.00  0.00    -0.021 A 
ATOM     73  C   UNL     1       1.970  -6.476  23.913  0.00  0.00    +0.012 A 
ATOM     74  C   UNL     1       1.387  -7.226  22.905  0.00  0.00    +0.050 A 
ATOM     75  C   UNL     1       1.018  -8.540  23.168  0.00  0.00    +0.158 A 
BRANCH  75  76
ATOM     76  O   UNL     1       0.444  -9.251  22.151  0.00  0.00    -0.503 OA
ATOM     77  H   UNL     1      -0.498  -9.331  22.402  0.00  0.00    +0.292 HD
ENDBRANCH  75  76
BRANCH  70  79
ATOM     78  C   UNL     1       0.546 -10.841  25.908  0.00  0.00    +0.277 C 
ATOM     79  O   UNL     1       0.777 -10.423  24.562  0.00  0.00    -0.491 OA
ENDBRANCH  70  79
ENDBRANCH  68  72
ENDBRANCH  66  69
ENDBRANCH  65  66
ENDBRANCH  64  65
ENDBRANCH  52  64
ENDBRANCH  51  54
ENDBRANCH  41  51
ENDBRANCH   1  46
TORSDOF 27
ENDMDL
MODEL 9
REMARK VINA RESULT:      -3.5      2.154      7.973
REMARK  Name = 
REMARK  28 active torsions:
REMARK  status: ('A' for Active; 'I' for Inactive)
REMARK    1  A    between atoms: C_1  and  O_2
REMARK    2  A    between atoms: O_2  and  C_3
REMARK    3  A    between atoms: C_4  and  O_75
REMARK    4  A    between atoms: C_7  and  C_9
REMARK    5  A    between atoms: C_10  and  C_11
REMARK    6  A    between atoms: C_11  and  O_13
REMARK    7  A    between atoms: O_13  and  C_14
REMARK    8  A    between atoms: C_14  and  C_15
REMARK    9  A    between atoms: C_16  and  O_74
REMARK   10  A    between atoms: C_18  and  O_73
REMARK   11  A    between atoms: C_20  and  O_72
REMARK   12  A    between atoms: C_21  and  O_24
REMARK   13  A    between atoms: O_24  and  C_25
REMARK   14  A    between atoms: C_27  and  O_36
REMARK   15  A    between atoms: C_31  and  O_35
REMARK   16  A    between atoms: C_33  and  O_34
REMARK   17  A    between atoms: O_36  and  C_37
REMARK   18  A    between atoms: C_38  and  C_64
REMARK   19  A    between atoms: C_42  and  O_49
REMARK   20  A    between atoms: C_44  and  O_48
REMARK   21  A    between atoms: O_49  and  C_50
REMARK   22  A    between atoms: C_52  and  O_63
REMARK   23  A    between atoms: C_53  and  O_62
REMARK   24  A    between atoms: C_55  and  O_61
REMARK   25  A    between atoms: C_57  and  C_59
REMARK   26  A    between atoms: C_59  and  O_60
REMARK   27  A    between atoms: C_66  and  O_71
REMARK   28  A    between atoms: C_67  and  O_70
REMARK                            x       y       z     vdW  Elec       q    Type
REMARK                         _______ _______ _______ _____ _____    ______ ____
ROOT
ATOM      1  O   UNL     1       5.013   0.382  27.737  0.00  0.00    -0.453 OA
ENDROOT
BRANCH   1   2
ATOM      2  C   UNL     1       4.992  -1.033  27.823  0.00  0.00    +0.214 A 
ATOM      3  C   UNL     1       4.179  -1.961  28.652  0.00  0.00    +0.238 A 
ATOM      4  O   UNL     1       4.368  -2.002  29.873  0.00  0.00    -0.283 OA
ATOM      5  C   UNL     1       3.517  -3.109  27.932  0.00  0.00    +0.109 A 
ATOM      6  C   UNL     1       4.493  -3.831  27.291  0.00  0.00    +0.147 A 
ATOM      7  C   UNL     1       4.223  -5.131  26.854  0.00  0.00    +0.093 A 
ATOM      8  C   UNL     1       2.990  -5.748  27.122  0.00  0.00    +0.131 A 
ATOM      9  C   UNL     1       1.951  -4.987  27.615  0.00  0.00    +0.092 A 
ATOM     10  O   UNL     1       5.754  -3.263  27.135  0.00  0.00    -0.451 OA
ATOM     11  C   UNL     1       2.206  -3.643  27.926  0.00  0.00    +0.135 A 
ATOM     12  C   UNL     1       5.886  -1.849  27.207  0.00  0.00    +0.181 A 
BRANCH  12  13
ATOM     13  C   UNL     1       7.160  -1.388  26.660  0.00  0.00    +0.025 A 
ATOM     14  C   UNL     1       8.095  -2.242  26.020  0.00  0.00    +0.015 A 
ATOM     15  C   UNL     1       9.258  -1.729  25.448  0.00  0.00    +0.050 A 
ATOM     16  C   UNL     1       9.465  -0.358  25.458  0.00  0.00    +0.158 A 
ATOM     17  C   UNL     1       8.533   0.493  26.046  0.00  0.00    +0.159 A 
ATOM     18  C   UNL     1       7.407  -0.015  26.663  0.00  0.00    +0.060 A 
BRANCH  17  19
ATOM     19  O   UNL     1       8.745   1.839  25.971  0.00  0.00    -0.503 OA
ATOM     20  H   UNL     1       8.490   2.220  26.831  0.00  0.00    +0.292 HD
ENDBRANCH  17  19
BRANCH  16  21
ATOM     21  O   UNL     1      10.564   0.157  24.853  0.00  0.00    -0.503 OA
ATOM     22  H   UNL     1      10.284   1.054  24.581  0.00  0.00    +0.292 HD
ENDBRANCH  16  21
ENDBRANCH  12  13
BRANCH  11  23
ATOM     23  O   UNL     1       1.099  -2.850  28.053  0.00  0.00    -0.506 OA
ATOM     24  H   UNL     1       0.524  -3.184  28.764  0.00  0.00    +0.292 HD
ENDBRANCH  11  23
BRANCH   8  25
ATOM     25  O   UNL     1       2.933  -7.083  26.836  0.00  0.00    -0.461 OA
BRANCH  25  26
ATOM     26  C   UNL     1       3.506  -7.625  25.629  0.00  0.00    +0.339 C 
ATOM     27  O   UNL     1       4.041  -6.669  24.695  0.00  0.00    -0.331 OA
ATOM     28  C   UNL     1       3.041  -5.795  24.142  0.00  0.00    +0.179 C 
ATOM     29  C   UNL     1       1.956  -6.584  23.374  0.00  0.00    +0.177 C 
ATOM     30  C   UNL     1       1.311  -7.623  24.306  0.00  0.00    +0.180 C 
ATOM     31  C   UNL     1       2.406  -8.496  24.962  0.00  0.00    +0.214 C 
BRANCH  29  32
ATOM     32  O   UNL     1       2.506  -7.273  22.247  0.00  0.00    -0.386 OA
ATOM     33  H   UNL     1       2.273  -8.214  22.338  0.00  0.00    +0.210 HD
ENDBRANCH  29  32
BRANCH  31  34
ATOM     34  O   UNL     1       1.821  -9.450  25.863  0.00  0.00    -0.383 OA
ATOM     35  H   UNL     1       0.962  -9.103  26.159  0.00  0.00    +0.210 HD
ENDBRANCH  31  34
BRANCH  30  36
ATOM     36  O   UNL     1       0.445  -7.008  25.269  0.00  0.00    -0.386 OA
ATOM     37  H   UNL     1      -0.409  -7.465  25.309  0.00  0.00    +0.210 HD
ENDBRANCH  30  36
BRANCH  28  38
ATOM     38  C   UNL     1       3.717  -4.689  23.305  0.00  0.00    +0.190 C 
BRANCH  38  39
ATOM     39  O   UNL     1       4.614  -5.153  22.305  0.00  0.00    -0.392 OA
ATOM     40  H   UNL     1       5.477  -5.289  22.734  0.00  0.00    +0.210 HD
ENDBRANCH  38  39
ENDBRANCH  28  38
ENDBRANCH  25  26
ENDBRANCH   8  25
ENDBRANCH   1   2
BRANCH   1  46
ATOM     41  C   UNL     1       3.693   2.582  27.545  0.00  0.00    +0.221 C 
ATOM     42  C   UNL     1       2.603   3.400  28.301  0.00  0.00    +0.180 C 
ATOM     43  C   UNL     1       3.141   3.862  29.660  0.00  0.00    +0.171 C 
ATOM     44  C   UNL     1       3.809   2.682  30.396  0.00  0.00    +0.198 C 
ATOM     45  O   UNL     1       4.775   1.948  29.598  0.00  0.00    -0.337 OA
ATOM     46  C   UNL     1       4.130   1.322  28.430  0.00  0.00    +0.340 C 
BRANCH  43  47
ATOM     47  O   UNL     1       2.070   4.444  30.421  0.00  0.00    -0.387 OA
ATOM     48  H   UNL     1       2.290   4.427  31.364  0.00  0.00    +0.210 HD
ENDBRANCH  43  47
BRANCH  42  49
ATOM     49  O   UNL     1       1.414   2.638  28.577  0.00  0.00    -0.386 OA
ATOM     50  H   UNL     1       1.503   2.298  29.486  0.00  0.00    +0.210 HD
ENDBRANCH  42  49
BRANCH  41  51
ATOM     51  O   UNL     1       3.456   2.473  26.123  0.00  0.00    -0.337 OA
BRANCH  51  54
ATOM     52  C   UNL     1       3.645   5.667  24.236  0.00  0.00    +0.190 C 
ATOM     53  O   UNL     1       3.577   4.747  25.357  0.00  0.00    -0.339 OA
ATOM     54  C   UNL     1       4.002   3.405  25.168  0.00  0.00    +0.282 C 
ATOM     55  C   UNL     1       3.702   2.921  23.773  0.00  0.00    +0.201 C 
ATOM     56  C   UNL     1       4.048   3.870  22.652  0.00  0.00    +0.179 C 
ATOM     57  C   UNL     1       3.223   5.120  22.883  0.00  0.00    +0.178 C 
BRANCH  57  58
ATOM     58  O   UNL     1       3.451   6.016  21.795  0.00  0.00    -0.386 OA
ATOM     59  H   UNL     1       4.195   5.660  21.277  0.00  0.00    +0.210 HD
ENDBRANCH  57  58
BRANCH  56  60
ATOM     60  O   UNL     1       3.670   3.318  21.388  0.00  0.00    -0.386 OA
ATOM     61  H   UNL     1       4.285   3.591  20.694  0.00  0.00    +0.210 HD
ENDBRANCH  56  60
BRANCH  55  62
ATOM     62  O   UNL     1       2.275   2.877  23.668  0.00  0.00    -0.384 OA
ATOM     63  H   UNL     1       2.005   1.942  23.832  0.00  0.00    +0.210 HD
ENDBRANCH  55  62
BRANCH  52  64
ATOM     64  C   UNL     1       5.021   6.296  24.034  0.00  0.00    +0.266 C 
BRANCH  64  65
ATOM     65  O   UNL     1       5.531   6.655  25.295  0.00  0.00    -0.459 OA
BRANCH  65  66
ATOM     66  C   UNL     1       6.882   6.564  25.314  0.00  0.00    +0.332 C 
ATOM     67  O   UNL     1       7.670   7.106  26.049  0.00  0.00    -0.246 OA
BRANCH  66  69
ATOM     68  C   UNL     1       8.134   4.727  24.526  0.00  0.00    +0.015 C 
ATOM     69  C   UNL     1       7.194   5.641  24.236  0.00  0.00    +0.092 C 
BRANCH  68  72
ATOM     70  C   UNL     1       7.798   1.635  22.439  0.00  0.00    +0.162 A 
ATOM     71  C   UNL     1       7.459   2.682  23.285  0.00  0.00    +0.057 A 
ATOM     72  C   UNL     1       8.420   3.629  23.651  0.00  0.00    -0.021 A 
ATOM     73  C   UNL     1       9.734   3.534  23.164  0.00  0.00    +0.012 A 
ATOM     74  C   UNL     1      10.083   2.481  22.336  0.00  0.00    +0.050 A 
ATOM     75  C   UNL     1       9.118   1.542  21.992  0.00  0.00    +0.158 A 
BRANCH  75  76
ATOM     76  O   UNL     1       9.497   0.516  21.171  0.00  0.00    -0.503 OA
ATOM     77  H   UNL     1       9.964  -0.113  21.756  0.00  0.00    +0.292 HD
ENDBRANCH  75  76
BRANCH  70  79
ATOM     78  C   UNL     1       7.068  -0.597  22.682  0.00  0.00    +0.277 C 
ATOM     79  O   UNL     1       6.935   0.658  22.014  0.00  0.00    -0.491 OA
ENDBRANCH  70  79
ENDBRANCH  68  72
ENDBRANCH  66  69
ENDBRANCH  65  66
ENDBRANCH  64  65
ENDBRANCH  52  64
ENDBRANCH  51  54
ENDBRANCH  41  51
ENDBRANCH   1  46
TORSDOF 27
ENDMDL
