MODEL 1
REMARK VINA RESULT:      -6.2      0.000      0.000
REMARK  Name = 
REMARK  30 active torsions:
REMARK  status: ('A' for Active; 'I' for Inactive)
REMARK    1  A    between atoms: C_1  and  O_2
REMARK    2  A    between atoms: O_2  and  C_3
REMARK    3  A    between atoms: C_4  and  O_68
REMARK    4  A    between atoms: C_7  and  C_9
REMARK    5  A    between atoms: C_10  and  C_11
REMARK    6  A    between atoms: C_11  and  O_13
REMARK    7  A    between atoms: O_13  and  C_14
REMARK    8  A    between atoms: C_15  and  O_67
REMARK    9  A    between atoms: C_16  and  O_66
REMARK   10  A    between atoms: C_17  and  C_64
REMARK   11  A    between atoms: C_19  and  O_20
REMARK   12  A    between atoms: O_20  and  C_21
REMARK   13  A    between atoms: C_22  and  O_63
REMARK   14  A    between atoms: C_23  and  O_62
REMARK   15  A    between atoms: C_24  and  C_60
REMARK   16  A    between atoms: C_26  and  O_27
REMARK   17  A    between atoms: O_27  and  C_28
REMARK   18  A    between atoms: C_29  and  C_52
REMARK   19  A    between atoms: C_33  and  O_40
REMARK   20  A    between atoms: C_35  and  O_39
REMARK   21  A    between atoms: O_40  and  C_41
REMARK   22  A    between atoms: C_42  and  O_51
REMARK   23  A    between atoms: C_43  and  O_50
REMARK   24  A    between atoms: C_44  and  O_49
REMARK   25  A    between atoms: C_45  and  C_47
REMARK   26  A    between atoms: C_47  and  O_48
REMARK   27  A    between atoms: C_54  and  O_59
REMARK   28  A    between atoms: C_55  and  O_58
REMARK   29  A    between atoms: C_60  and  O_61
REMARK   30  A    between atoms: C_64  and  O_65
REMARK                            x       y       z     vdW  Elec       q    Type
REMARK                         _______ _______ _______ _____ _____    ______ ____
ROOT
ATOM      1  C   UNL     1       5.040  -3.000  27.083  0.00  0.00    +0.221 C 
ATOM      2  C   UNL     1       5.274  -3.683  25.686  0.00  0.00    +0.340 C 
ATOM      3  O   UNL     1       4.168  -4.550  25.354  0.00  0.00    -0.331 OA
ATOM      4  C   UNL     1       3.868  -5.601  26.277  0.00  0.00    +0.179 C 
ATOM      5  C   UNL     1       3.666  -5.060  27.696  0.00  0.00    +0.177 C 
ATOM      6  C   UNL     1       4.800  -4.115  28.109  0.00  0.00    +0.180 C 
ENDROOT
BRANCH   6   7
ATOM      7  O   UNL     1       4.550  -3.619  29.431  0.00  0.00    -0.386 OA
ATOM      8  H   UNL     1       3.593  -3.681  29.601  0.00  0.00    +0.210 HD
ENDBRANCH   6   7
BRANCH   5   9
ATOM      9  O   UNL     1       3.552  -6.137  28.642  0.00  0.00    -0.386 OA
ATOM     10  H   UNL     1       4.455  -6.364  28.945  0.00  0.00    +0.210 HD
ENDBRANCH   5   9
BRANCH   4  11
ATOM     11  C   UNL     1       4.858  -6.778  26.221  0.00  0.00    +0.190 C 
BRANCH  11  12
ATOM     12  O   UNL     1       5.893  -6.706  27.195  0.00  0.00    -0.392 OA
ATOM     13  H   UNL     1       6.171  -7.627  27.375  0.00  0.00    +0.210 HD
ENDBRANCH  11  12
ENDBRANCH   4  11
BRANCH   2  14
ATOM     14  O   UNL     1       6.549  -4.361  25.563  0.00  0.00    -0.453 OA
BRANCH  14  15
ATOM     15  C   UNL     1       7.605  -3.568  25.064  0.00  0.00    +0.214 A 
ATOM     16  C   UNL     1       8.358  -2.646  25.977  0.00  0.00    +0.238 A 
ATOM     17  O   UNL     1       8.413  -2.852  27.183  0.00  0.00    -0.283 OA
ATOM     18  C   UNL     1       9.049  -1.503  25.358  0.00  0.00    +0.109 A 
ATOM     19  C   UNL     1       9.226  -1.523  23.977  0.00  0.00    +0.147 A 
ATOM     20  C   UNL     1       9.885  -0.464  23.329  0.00  0.00    +0.093 A 
ATOM     21  C   UNL     1      10.372   0.601  24.084  0.00  0.00    +0.131 A 
ATOM     22  C   UNL     1      10.230   0.603  25.472  0.00  0.00    +0.092 A 
ATOM     23  O   UNL     1       8.822  -2.586  23.204  0.00  0.00    -0.451 OA
ATOM     24  C   UNL     1       9.555  -0.432  26.106  0.00  0.00    +0.135 A 
ATOM     25  C   UNL     1       7.943  -3.531  23.746  0.00  0.00    +0.181 A 
BRANCH  25  26
ATOM     26  C   UNL     1       7.320  -4.396  22.688  0.00  0.00    +0.025 A 
ATOM     27  C   UNL     1       7.215  -5.792  22.846  0.00  0.00    +0.015 A 
ATOM     28  C   UNL     1       6.520  -6.585  21.923  0.00  0.00    +0.050 A 
ATOM     29  C   UNL     1       5.958  -5.995  20.807  0.00  0.00    +0.158 A 
ATOM     30  C   UNL     1       6.116  -4.634  20.576  0.00  0.00    +0.159 A 
ATOM     31  C   UNL     1       6.791  -3.833  21.503  0.00  0.00    +0.060 A 
BRANCH  30  32
ATOM     32  O   UNL     1       5.576  -4.130  19.424  0.00  0.00    -0.503 OA
ATOM     33  H   UNL     1       5.245  -3.233  19.603  0.00  0.00    +0.292 HD
ENDBRANCH  30  32
BRANCH  29  34
ATOM     34  O   UNL     1       5.236  -6.762  19.937  0.00  0.00    -0.503 OA
ATOM     35  H   UNL     1       4.372  -6.889  20.375  0.00  0.00    +0.292 HD
ENDBRANCH  29  34
ENDBRANCH  25  26
BRANCH  24  36
ATOM     36  O   UNL     1       9.404  -0.375  27.462  0.00  0.00    -0.506 OA
ATOM     37  H   UNL     1       8.691   0.240  27.698  0.00  0.00    +0.292 HD
ENDBRANCH  24  36
BRANCH  21  38
ATOM     38  O   UNL     1      11.119   1.626  23.606  0.00  0.00    -0.461 OA
BRANCH  38  39
ATOM     39  C   UNL     1      10.782   2.975  23.914  0.00  0.00    +0.339 C 
ATOM     40  O   UNL     1      11.737   3.908  23.398  0.00  0.00    -0.331 OA
ATOM     41  C   UNL     1      11.709   5.137  24.149  0.00  0.00    +0.179 C 
ATOM     42  C   UNL     1      10.331   5.807  23.987  0.00  0.00    +0.177 C 
ATOM     43  C   UNL     1       9.196   4.821  24.331  0.00  0.00    +0.180 C 
ATOM     44  C   UNL     1       9.352   3.465  23.605  0.00  0.00    +0.214 C 
BRANCH  44  45
ATOM     45  O   UNL     1       8.375   2.528  24.076  0.00  0.00    -0.383 OA
ATOM     46  H   UNL     1       8.524   2.395  25.030  0.00  0.00    +0.210 HD
ENDBRANCH  44  45
BRANCH  43  47
ATOM     47  O   UNL     1       7.918   5.396  24.031  0.00  0.00    -0.386 OA
ATOM     48  H   UNL     1       7.985   6.350  24.245  0.00  0.00    +0.210 HD
ENDBRANCH  43  47
BRANCH  42  49
ATOM     49  O   UNL     1      10.116   6.272  22.647  0.00  0.00    -0.386 OA
ATOM     50  H   UNL     1       9.567   5.610  22.181  0.00  0.00    +0.210 HD
ENDBRANCH  42  49
BRANCH  41  51
ATOM     51  C   UNL     1      12.864   6.024  23.666  0.00  0.00    +0.190 C 
BRANCH  51  52
ATOM     52  O   UNL     1      13.986   5.250  23.239  0.00  0.00    -0.392 OA
ATOM     53  H   UNL     1      14.773   5.530  23.735  0.00  0.00    +0.210 HD
ENDBRANCH  51  52
ENDBRANCH  41  51
ENDBRANCH  38  39
ENDBRANCH  21  38
ENDBRANCH  14  15
ENDBRANCH   2  14
BRANCH   1  54
ATOM     54  O   UNL     1       3.932  -2.064  26.930  0.00  0.00    -0.336 OA
BRANCH  54  56
ATOM     55  C   UNL     1       5.623  -0.293  26.951  0.00  0.00    +0.263 C 
ATOM     56  C   UNL     1       4.209  -0.735  26.468  0.00  0.00    +0.295 C 
ATOM     57  O   UNL     1       3.204   0.230  26.789  0.00  0.00    -0.340 OA
ATOM     58  C   UNL     1       3.154   0.728  28.135  0.00  0.00    +0.178 C 
ATOM     59  C   UNL     1       4.521   1.185  28.659  0.00  0.00    +0.178 C 
ATOM     60  C   UNL     1       5.570   0.095  28.430  0.00  0.00    +0.191 C 
BRANCH  60  61
ATOM     61  O   UNL     1       6.838   0.559  28.919  0.00  0.00    -0.385 OA
ATOM     62  H   UNL     1       7.334  -0.208  29.256  0.00  0.00    +0.210 HD
ENDBRANCH  60  61
BRANCH  59  63
ATOM     63  O   UNL     1       4.438   1.534  30.043  0.00  0.00    -0.386 OA
ATOM     64  H   UNL     1       3.745   0.974  30.445  0.00  0.00    +0.210 HD
ENDBRANCH  59  63
BRANCH  58  65
ATOM     65  C   UNL     1       2.445  -0.245  29.097  0.00  0.00    +0.190 C 
BRANCH  65  66
ATOM     66  O   UNL     1       3.378  -1.092  29.771  0.00  0.00    -0.392 OA
ATOM     67  H   UNL     1       4.262  -0.912  29.405  0.00  0.00    +0.210 HD
ENDBRANCH  65  66
ENDBRANCH  58  65
BRANCH  55  68
ATOM     68  O   UNL     1       6.082   0.880  26.190  0.00  0.00    -0.450 OA
BRANCH  68  69
ATOM     69  C   UNL     1       5.771   0.886  24.875  0.00  0.00    +0.332 C 
ATOM     70  O   UNL     1       6.177   0.096  24.034  0.00  0.00    -0.246 OA
BRANCH  69  72
ATOM     71  C   UNL     1       5.042   2.737  23.452  0.00  0.00    +0.015 C 
ATOM     72  C   UNL     1       4.837   2.007  24.567  0.00  0.00    +0.092 C 
BRANCH  71  75
ATOM     73  C   UNL     1       2.292   4.258  21.362  0.00  0.00    +0.162 A 
ATOM     74  C   UNL     1       3.019   3.327  22.110  0.00  0.00    +0.057 A 
ATOM     75  C   UNL     1       4.112   3.731  22.893  0.00  0.00    -0.021 A 
ATOM     76  C   UNL     1       4.407   5.102  22.977  0.00  0.00    +0.012 A 
ATOM     77  C   UNL     1       3.650   6.043  22.279  0.00  0.00    +0.050 A 
ATOM     78  C   UNL     1       2.617   5.618  21.461  0.00  0.00    +0.158 A 
BRANCH  78  79
ATOM     79  O   UNL     1       1.958   6.544  20.705  0.00  0.00    -0.503 OA
ATOM     80  H   UNL     1       1.583   7.185  21.339  0.00  0.00    +0.292 HD
ENDBRANCH  78  79
BRANCH  73  82
ATOM     81  C   UNL     1       1.312   2.602  19.997  0.00  0.00    +0.277 C 
ATOM     82  O   UNL     1       1.277   3.940  20.490  0.00  0.00    -0.491 OA
ENDBRANCH  73  82
ENDBRANCH  71  75
ENDBRANCH  69  72
ENDBRANCH  68  69
ENDBRANCH  55  68
ENDBRANCH  54  56
ENDBRANCH   1  54
TORSDOF 29
ENDMDL
MODEL 2
REMARK VINA RESULT:      -6.0      2.617      9.947
REMARK  Name = 
REMARK  30 active torsions:
REMARK  status: ('A' for Active; 'I' for Inactive)
REMARK    1  A    between atoms: C_1  and  O_2
REMARK    2  A    between atoms: O_2  and  C_3
REMARK    3  A    between atoms: C_4  and  O_68
REMARK    4  A    between atoms: C_7  and  C_9
REMARK    5  A    between atoms: C_10  and  C_11
REMARK    6  A    between atoms: C_11  and  O_13
REMARK    7  A    between atoms: O_13  and  C_14
REMARK    8  A    between atoms: C_15  and  O_67
REMARK    9  A    between atoms: C_16  and  O_66
REMARK   10  A    between atoms: C_17  and  C_64
REMARK   11  A    between atoms: C_19  and  O_20
REMARK   12  A    between atoms: O_20  and  C_21
REMARK   13  A    between atoms: C_22  and  O_63
REMARK   14  A    between atoms: C_23  and  O_62
REMARK   15  A    between atoms: C_24  and  C_60
REMARK   16  A    between atoms: C_26  and  O_27
REMARK   17  A    between atoms: O_27  and  C_28
REMARK   18  A    between atoms: C_29  and  C_52
REMARK   19  A    between atoms: C_33  and  O_40
REMARK   20  A    between atoms: C_35  and  O_39
REMARK   21  A    between atoms: O_40  and  C_41
REMARK   22  A    between atoms: C_42  and  O_51
REMARK   23  A    between atoms: C_43  and  O_50
REMARK   24  A    between atoms: C_44  and  O_49
REMARK   25  A    between atoms: C_45  and  C_47
REMARK   26  A    between atoms: C_47  and  O_48
REMARK   27  A    between atoms: C_54  and  O_59
REMARK   28  A    between atoms: C_55  and  O_58
REMARK   29  A    between atoms: C_60  and  O_61
REMARK   30  A    between atoms: C_64  and  O_65
REMARK                            x       y       z     vdW  Elec       q    Type
REMARK                         _______ _______ _______ _____ _____    ______ ____
ROOT
ATOM      1  C   UNL     1       7.062   1.257  22.792  0.00  0.00    +0.221 C 
ATOM      2  C   UNL     1       7.352   1.076  24.328  0.00  0.00    +0.340 C 
ATOM      3  O   UNL     1       8.309   2.058  24.780  0.00  0.00    -0.331 OA
ATOM      4  C   UNL     1       9.580   2.076  24.125  0.00  0.00    +0.179 C 
ATOM      5  C   UNL     1       9.425   2.200  22.606  0.00  0.00    +0.177 C 
ATOM      6  C   UNL     1       8.406   1.194  22.056  0.00  0.00    +0.180 C 
ENDROOT
BRANCH   6   7
ATOM      7  O   UNL     1       8.281   1.368  20.639  0.00  0.00    -0.386 OA
ATOM      8  H   UNL     1       7.403   1.749  20.458  0.00  0.00    +0.210 HD
ENDBRANCH   6   7
BRANCH   5   9
ATOM      9  O   UNL     1      10.691   2.029  21.947  0.00  0.00    -0.386 OA
ATOM     10  H   UNL     1      11.231   2.827  22.125  0.00  0.00    +0.210 HD
ENDBRANCH   5   9
BRANCH   4  11
ATOM     11  C   UNL     1      10.510   0.923  24.539  0.00  0.00    +0.190 C 
BRANCH  11  12
ATOM     12  O   UNL     1      10.337  -0.261  23.767  0.00  0.00    -0.392 OA
ATOM     13  H   UNL     1      11.065  -0.866  24.018  0.00  0.00    +0.210 HD
ENDBRANCH  11  12
ENDBRANCH   4  11
BRANCH   2  14
ATOM     14  O   UNL     1       7.737  -0.269  24.705  0.00  0.00    -0.453 OA
BRANCH  14  15
ATOM     15  C   UNL     1       6.685  -1.084  25.174  0.00  0.00    +0.214 A 
ATOM     16  C   UNL     1       6.283  -2.315  24.416  0.00  0.00    +0.238 A 
ATOM     17  O   UNL     1       7.071  -2.891  23.676  0.00  0.00    -0.283 OA
ATOM     18  C   UNL     1       4.913  -2.815  24.623  0.00  0.00    +0.109 A 
ATOM     19  C   UNL     1       4.201  -2.322  25.713  0.00  0.00    +0.147 A 
ATOM     20  C   UNL     1       2.892  -2.767  25.966  0.00  0.00    +0.093 A 
ATOM     21  C   UNL     1       2.318  -3.715  25.123  0.00  0.00    +0.131 A 
ATOM     22  C   UNL     1       3.045  -4.239  24.054  0.00  0.00    +0.092 A 
ATOM     23  O   UNL     1       4.754  -1.437  26.608  0.00  0.00    -0.451 OA
ATOM     24  C   UNL     1       4.329  -3.777  23.790  0.00  0.00    +0.135 A 
ATOM     25  C   UNL     1       5.937  -0.770  26.268  0.00  0.00    +0.181 A 
BRANCH  25  26
ATOM     26  C   UNL     1       6.202   0.405  27.165  0.00  0.00    +0.025 A 
ATOM     27  C   UNL     1       7.233   0.382  28.125  0.00  0.00    +0.015 A 
ATOM     28  C   UNL     1       7.567   1.519  28.872  0.00  0.00    +0.050 A 
ATOM     29  C   UNL     1       6.843   2.684  28.696  0.00  0.00    +0.158 A 
ATOM     30  C   UNL     1       5.765   2.717  27.820  0.00  0.00    +0.159 A 
ATOM     31  C   UNL     1       5.439   1.591  27.057  0.00  0.00    +0.060 A 
BRANCH  30  32
ATOM     32  O   UNL     1       5.064   3.890  27.738  0.00  0.00    -0.503 OA
ATOM     33  H   UNL     1       4.266   3.737  27.203  0.00  0.00    +0.292 HD
ENDBRANCH  30  32
BRANCH  29  34
ATOM     34  O   UNL     1       7.204   3.806  29.387  0.00  0.00    -0.503 OA
ATOM     35  H   UNL     1       7.693   4.350  28.738  0.00  0.00    +0.292 HD
ENDBRANCH  29  34
ENDBRANCH  25  26
BRANCH  24  36
ATOM     36  O   UNL     1       4.993  -4.287  22.712  0.00  0.00    -0.506 OA
ATOM     37  H   UNL     1       4.371  -4.492  21.996  0.00  0.00    +0.292 HD
ENDBRANCH  24  36
BRANCH  21  38
ATOM     38  O   UNL     1       1.115  -4.310  25.314  0.00  0.00    -0.461 OA
BRANCH  38  39
ATOM     39  C   UNL     1       1.028  -5.710  25.561  0.00  0.00    +0.339 C 
ATOM     40  O   UNL     1       1.352  -6.491  24.405  0.00  0.00    -0.331 OA
ATOM     41  C   UNL     1       0.747  -7.795  24.484  0.00  0.00    +0.179 C 
ATOM     42  C   UNL     1       1.330  -8.561  25.689  0.00  0.00    +0.177 C 
ATOM     43  C   UNL     1       1.214  -7.724  26.979  0.00  0.00    +0.180 C 
ATOM     44  C   UNL     1       1.750  -6.284  26.799  0.00  0.00    +0.214 C 
BRANCH  44  45
ATOM     45  O   UNL     1       1.475  -5.497  27.965  0.00  0.00    -0.383 OA
ATOM     46  H   UNL     1       1.076  -4.657  27.671  0.00  0.00    +0.210 HD
ENDBRANCH  44  45
BRANCH  43  47
ATOM     47  O   UNL     1       1.894  -8.369  28.063  0.00  0.00    -0.386 OA
ATOM     48  H   UNL     1       1.288  -8.333  28.832  0.00  0.00    +0.210 HD
ENDBRANCH  43  47
BRANCH  42  49
ATOM     49  O   UNL     1       2.714  -8.885  25.498  0.00  0.00    -0.386 OA
ATOM     50  H   UNL     1       2.799  -9.860  25.497  0.00  0.00    +0.210 HD
ENDBRANCH  42  49
BRANCH  41  51
ATOM     51  C   UNL     1       0.982  -8.517  23.151  0.00  0.00    +0.190 C 
BRANCH  51  52
ATOM     52  O   UNL     1       2.025  -7.904  22.391  0.00  0.00    -0.392 OA
ATOM     53  H   UNL     1       1.835  -6.956  22.295  0.00  0.00    +0.210 HD
ENDBRANCH  51  52
ENDBRANCH  41  51
ENDBRANCH  38  39
ENDBRANCH  21  38
ENDBRANCH  14  15
ENDBRANCH   2  14
BRANCH   1  54
ATOM     54  O   UNL     1       6.337   2.512  22.631  0.00  0.00    -0.336 OA
BRANCH  54  56
ATOM     55  C   UNL     1       4.314   3.513  23.581  0.00  0.00    +0.263 C 
ATOM     56  C   UNL     1       5.818   3.165  23.797  0.00  0.00    +0.295 C 
ATOM     57  O   UNL     1       6.575   4.297  24.234  0.00  0.00    -0.340 OA
ATOM     58  C   UNL     1       6.432   5.525  23.506  0.00  0.00    +0.178 C 
ATOM     59  C   UNL     1       4.968   5.919  23.271  0.00  0.00    +0.178 C 
ATOM     60  C   UNL     1       4.189   4.743  22.680  0.00  0.00    +0.191 C 
BRANCH  60  61
ATOM     61  O   UNL     1       2.822   5.140  22.486  0.00  0.00    -0.385 OA
ATOM     62  H   UNL     1       2.535   4.824  21.611  0.00  0.00    +0.210 HD
ENDBRANCH  60  61
BRANCH  59  63
ATOM     63  O   UNL     1       4.887   7.067  22.422  0.00  0.00    -0.386 OA
ATOM     64  H   UNL     1       3.962   7.138  22.114  0.00  0.00    +0.210 HD
ENDBRANCH  59  63
BRANCH  58  65
ATOM     65  C   UNL     1       7.265   5.542  22.209  0.00  0.00    +0.190 C 
BRANCH  65  66
ATOM     66  O   UNL     1       7.492   6.874  21.746  0.00  0.00    -0.392 OA
ATOM     67  H   UNL     1       8.244   6.851  21.129  0.00  0.00    +0.210 HD
ENDBRANCH  65  66
ENDBRANCH  58  65
BRANCH  55  68
ATOM     68  O   UNL     1       3.669   3.824  24.867  0.00  0.00    -0.450 OA
BRANCH  68  69
ATOM     69  C   UNL     1       2.464   3.249  25.075  0.00  0.00    +0.332 C 
ATOM     70  O   UNL     1       1.433   3.495  24.467  0.00  0.00    -0.246 OA
BRANCH  69  72
ATOM     71  C   UNL     1       1.411   1.760  26.705  0.00  0.00    +0.015 C 
ATOM     72  C   UNL     1       2.552   2.239  26.169  0.00  0.00    +0.092 C 
BRANCH  71  75
ATOM     73  C   UNL     1       2.278  -0.685  29.446  0.00  0.00    +0.162 A 
ATOM     74  C   UNL     1       2.191   0.507  28.721  0.00  0.00    +0.057 A 
ATOM     75  C   UNL     1       1.310   0.623  27.634  0.00  0.00    -0.021 A 
ATOM     76  C   UNL     1       0.457  -0.455  27.343  0.00  0.00    +0.012 A 
ATOM     77  C   UNL     1       0.499  -1.627  28.098  0.00  0.00    +0.050 A 
ATOM     78  C   UNL     1       1.420  -1.745  29.125  0.00  0.00    +0.158 A 
BRANCH  78  79
ATOM     79  O   UNL     1       1.517  -2.939  29.781  0.00  0.00    -0.503 OA
ATOM     80  H   UNL     1       0.600  -3.256  29.890  0.00  0.00    +0.292 HD
ENDBRANCH  78  79
BRANCH  73  82
ATOM     81  C   UNL     1       4.383  -0.156  30.372  0.00  0.00    +0.277 C 
ATOM     82  O   UNL     1       3.183  -0.923  30.454  0.00  0.00    -0.491 OA
ENDBRANCH  73  82
ENDBRANCH  71  75
ENDBRANCH  69  72
ENDBRANCH  68  69
ENDBRANCH  55  68
ENDBRANCH  54  56
ENDBRANCH   1  54
TORSDOF 29
ENDMDL
MODEL 3
REMARK VINA RESULT:      -5.5      2.940      8.982
REMARK  Name = 
REMARK  30 active torsions:
REMARK  status: ('A' for Active; 'I' for Inactive)
REMARK    1  A    between atoms: C_1  and  O_2
REMARK    2  A    between atoms: O_2  and  C_3
REMARK    3  A    between atoms: C_4  and  O_68
REMARK    4  A    between atoms: C_7  and  C_9
REMARK    5  A    between atoms: C_10  and  C_11
REMARK    6  A    between atoms: C_11  and  O_13
REMARK    7  A    between atoms: O_13  and  C_14
REMARK    8  A    between atoms: C_15  and  O_67
REMARK    9  A    between atoms: C_16  and  O_66
REMARK   10  A    between atoms: C_17  and  C_64
REMARK   11  A    between atoms: C_19  and  O_20
REMARK   12  A    between atoms: O_20  and  C_21
REMARK   13  A    between atoms: C_22  and  O_63
REMARK   14  A    between atoms: C_23  and  O_62
REMARK   15  A    between atoms: C_24  and  C_60
REMARK   16  A    between atoms: C_26  and  O_27
REMARK   17  A    between atoms: O_27  and  C_28
REMARK   18  A    between atoms: C_29  and  C_52
REMARK   19  A    between atoms: C_33  and  O_40
REMARK   20  A    between atoms: C_35  and  O_39
REMARK   21  A    between atoms: O_40  and  C_41
REMARK   22  A    between atoms: C_42  and  O_51
REMARK   23  A    between atoms: C_43  and  O_50
REMARK   24  A    between atoms: C_44  and  O_49
REMARK   25  A    between atoms: C_45  and  C_47
REMARK   26  A    between atoms: C_47  and  O_48
REMARK   27  A    between atoms: C_54  and  O_59
REMARK   28  A    between atoms: C_55  and  O_58
REMARK   29  A    between atoms: C_60  and  O_61
REMARK   30  A    between atoms: C_64  and  O_65
REMARK                            x       y       z     vdW  Elec       q    Type
REMARK                         _______ _______ _______ _____ _____    ______ ____
ROOT
ATOM      1  C   UNL     1       5.110   2.614  23.539  0.00  0.00    +0.221 C 
ATOM      2  C   UNL     1       5.567   2.699  25.042  0.00  0.00    +0.340 C 
ATOM      3  O   UNL     1       6.308   3.916  25.277  0.00  0.00    -0.331 OA
ATOM      4  C   UNL     1       7.478   4.126  24.482  0.00  0.00    +0.179 C 
ATOM      5  C   UNL     1       7.166   4.018  22.986  0.00  0.00    +0.177 C 
ATOM      6  C   UNL     1       6.362   2.752  22.665  0.00  0.00    +0.180 C 
ENDROOT
BRANCH   6   7
ATOM      7  O   UNL     1       6.077   2.712  21.261  0.00  0.00    -0.386 OA
ATOM      8  H   UNL     1       6.787   3.187  20.795  0.00  0.00    +0.210 HD
ENDBRANCH   6   7
BRANCH   5   9
ATOM      9  O   UNL     1       8.376   4.043  22.209  0.00  0.00    -0.386 OA
ATOM     10  H   UNL     1       8.776   4.931  22.309  0.00  0.00    +0.210 HD
ENDBRANCH   5   9
BRANCH   4  11
ATOM     11  C   UNL     1       8.681   3.265  24.906  0.00  0.00    +0.190 C 
BRANCH  11  12
ATOM     12  O   UNL     1       9.930   3.740  24.415  0.00  0.00    -0.392 OA
ATOM     13  H   UNL     1      10.105   3.256  23.582  0.00  0.00    +0.210 HD
ENDBRANCH  11  12
ENDBRANCH   4  11
BRANCH   2  14
ATOM     14  O   UNL     1       6.282   1.530  25.512  0.00  0.00    -0.453 OA
BRANCH  14  15
ATOM     15  C   UNL     1       5.508   0.353  25.612  0.00  0.00    +0.214 A 
ATOM     16  C   UNL     1       4.257   0.336  26.441  0.00  0.00    +0.238 A 
ATOM     17  O   UNL     1       3.636   1.365  26.675  0.00  0.00    -0.283 OA
ATOM     18  C   UNL     1       3.796  -0.973  26.933  0.00  0.00    +0.109 A 
ATOM     19  C   UNL     1       4.346  -2.114  26.355  0.00  0.00    +0.147 A 
ATOM     20  C   UNL     1       3.940  -3.391  26.779  0.00  0.00    +0.093 A 
ATOM     21  C   UNL     1       2.972  -3.505  27.774  0.00  0.00    +0.131 A 
ATOM     22  C   UNL     1       2.392  -2.363  28.325  0.00  0.00    +0.092 A 
ATOM     23  O   UNL     1       5.253  -2.046  25.324  0.00  0.00    -0.451 OA
ATOM     24  C   UNL     1       2.814  -1.102  27.924  0.00  0.00    +0.135 A 
ATOM     25  C   UNL     1       5.880  -0.827  25.044  0.00  0.00    +0.181 A 
BRANCH  25  26
ATOM     26  C   UNL     1       7.084  -0.999  24.162  0.00  0.00    +0.025 A 
ATOM     27  C   UNL     1       7.625  -2.273  23.896  0.00  0.00    +0.015 A 
ATOM     28  C   UNL     1       8.664  -2.451  22.973  0.00  0.00    +0.050 A 
ATOM     29  C   UNL     1       9.203  -1.349  22.335  0.00  0.00    +0.158 A 
ATOM     30  C   UNL     1       8.751  -0.071  22.638  0.00  0.00    +0.159 A 
ATOM     31  C   UNL     1       7.701   0.113  23.543  0.00  0.00    +0.060 A 
BRANCH  30  32
ATOM     32  O   UNL     1       9.368   0.975  22.005  0.00  0.00    -0.503 OA
ATOM     33  H   UNL     1      10.323   0.796  21.971  0.00  0.00    +0.292 HD
ENDBRANCH  30  32
BRANCH  29  34
ATOM     34  O   UNL     1      10.180  -1.531  21.398  0.00  0.00    -0.503 OA
ATOM     35  H   UNL     1       9.698  -1.628  20.553  0.00  0.00    +0.292 HD
ENDBRANCH  29  34
ENDBRANCH  25  26
BRANCH  24  36
ATOM     36  O   UNL     1       2.249  -0.009  28.515  0.00  0.00    -0.506 OA
ATOM     37  H   UNL     1       1.580  -0.282  29.163  0.00  0.00    +0.292 HD
ENDBRANCH  24  36
BRANCH  21  38
ATOM     38  O   UNL     1       2.411  -4.665  28.195  0.00  0.00    -0.461 OA
BRANCH  38  39
ATOM     39  C   UNL     1       2.038  -5.672  27.260  0.00  0.00    +0.339 C 
ATOM     40  O   UNL     1       2.802  -5.606  26.051  0.00  0.00    -0.331 OA
ATOM     41  C   UNL     1       2.084  -6.209  24.958  0.00  0.00    +0.179 C 
ATOM     42  C   UNL     1       1.876  -7.710  25.246  0.00  0.00    +0.177 C 
ATOM     43  C   UNL     1       1.229  -7.919  26.630  0.00  0.00    +0.180 C 
ATOM     44  C   UNL     1       1.956  -7.135  27.747  0.00  0.00    +0.214 C 
BRANCH  44  45
ATOM     45  O   UNL     1       1.230  -7.225  28.979  0.00  0.00    -0.383 OA
ATOM     46  H   UNL     1       1.871  -7.160  29.710  0.00  0.00    +0.210 HD
ENDBRANCH  44  45
BRANCH  43  47
ATOM     47  O   UNL     1       1.180  -9.312  26.960  0.00  0.00    -0.386 OA
ATOM     48  H   UNL     1       1.756  -9.433  27.743  0.00  0.00    +0.210 HD
ENDBRANCH  43  47
BRANCH  42  49
ATOM     49  O   UNL     1       3.114  -8.435  25.227  0.00  0.00    -0.386 OA
ATOM     50  H   UNL     1       3.761  -7.916  24.707  0.00  0.00    +0.210 HD
ENDBRANCH  42  49
BRANCH  41  51
ATOM     51  C   UNL     1       2.869  -5.955  23.665  0.00  0.00    +0.190 C 
BRANCH  51  52
ATOM     52  O   UNL     1       2.801  -7.070  22.774  0.00  0.00    -0.392 OA
ATOM     53  H   UNL     1       3.299  -6.862  21.966  0.00  0.00    +0.210 HD
ENDBRANCH  51  52
ENDBRANCH  41  51
ENDBRANCH  38  39
ENDBRANCH  21  38
ENDBRANCH  14  15
ENDBRANCH   2  14
BRANCH   1  54
ATOM     54  O   UNL     1       4.104   3.650  23.330  0.00  0.00    -0.336 OA
BRANCH  54  56
ATOM     55  C   UNL     1       2.072   4.249  22.101  0.00  0.00    +0.263 C 
ATOM     56  C   UNL     1       2.745   3.256  23.096  0.00  0.00    +0.295 C 
ATOM     57  O   UNL     1       1.965   3.069  24.280  0.00  0.00    -0.340 OA
ATOM     58  C   UNL     1       1.489   4.238  24.964  0.00  0.00    +0.178 C 
ATOM     59  C   UNL     1       0.810   5.247  24.031  0.00  0.00    +0.178 C 
ATOM     60  C   UNL     1       1.706   5.545  22.827  0.00  0.00    +0.191 C 
BRANCH  60  61
ATOM     61  O   UNL     1       1.036   6.481  21.968  0.00  0.00    -0.385 OA
ATOM     62  H   UNL     1       1.615   6.661  21.205  0.00  0.00    +0.210 HD
ENDBRANCH  60  61
BRANCH  59  63
ATOM     63  O   UNL     1       0.487   6.448  24.738  0.00  0.00    -0.386 OA
ATOM     64  H   UNL     1       1.327   6.907  24.934  0.00  0.00    +0.210 HD
ENDBRANCH  59  63
BRANCH  58  65
ATOM     65  C   UNL     1       2.572   4.884  25.850  0.00  0.00    +0.190 C 
BRANCH  65  66
ATOM     66  O   UNL     1       2.923   4.044  26.951  0.00  0.00    -0.392 OA
ATOM     67  H   UNL     1       3.875   3.854  26.888  0.00  0.00    +0.210 HD
ENDBRANCH  65  66
ENDBRANCH  58  65
BRANCH  55  68
ATOM     68  O   UNL     1       0.835   3.668  21.554  0.00  0.00    -0.450 OA
BRANCH  68  69
ATOM     69  C   UNL     1       0.999   2.673  20.656  0.00  0.00    +0.332 C 
ATOM     70  O   UNL     1       0.824   1.480  20.860  0.00  0.00    -0.246 OA
BRANCH  69  72
ATOM     71  C   UNL     1       0.954   4.426  18.951  0.00  0.00    +0.015 C 
ATOM     72  C   UNL     1       1.429   3.226  19.340  0.00  0.00    +0.092 C 
BRANCH  71  75
ATOM     73  C   UNL     1       2.110   5.267  15.458  0.00  0.00    +0.162 A 
ATOM     74  C   UNL     1       1.426   4.646  16.508  0.00  0.00    +0.057 A 
ATOM     75  C   UNL     1       1.428   5.205  17.796  0.00  0.00    -0.021 A 
ATOM     76  C   UNL     1       2.059   6.445  17.989  0.00  0.00    +0.012 A 
ATOM     77  C   UNL     1       2.695   7.098  16.934  0.00  0.00    +0.050 A 
ATOM     78  C   UNL     1       2.738   6.500  15.686  0.00  0.00    +0.158 A 
BRANCH  78  79
ATOM     79  O   UNL     1       3.456   7.105  14.695  0.00  0.00    -0.503 OA
ATOM     80  H   UNL     1       2.833   7.228  13.954  0.00  0.00    +0.292 HD
ENDBRANCH  78  79
BRANCH  73  82
ATOM     81  C   UNL     1       1.369   5.293  13.219  0.00  0.00    +0.277 C 
ATOM     82  O   UNL     1       2.250   4.741  14.195  0.00  0.00    -0.491 OA
ENDBRANCH  73  82
ENDBRANCH  71  75
ENDBRANCH  69  72
ENDBRANCH  68  69
ENDBRANCH  55  68
ENDBRANCH  54  56
ENDBRANCH   1  54
TORSDOF 29
ENDMDL
MODEL 4
REMARK VINA RESULT:      -5.4      2.065      6.966
REMARK  Name = 
REMARK  30 active torsions:
REMARK  status: ('A' for Active; 'I' for Inactive)
REMARK    1  A    between atoms: C_1  and  O_2
REMARK    2  A    between atoms: O_2  and  C_3
REMARK    3  A    between atoms: C_4  and  O_68
REMARK    4  A    between atoms: C_7  and  C_9
REMARK    5  A    between atoms: C_10  and  C_11
REMARK    6  A    between atoms: C_11  and  O_13
REMARK    7  A    between atoms: O_13  and  C_14
REMARK    8  A    between atoms: C_15  and  O_67
REMARK    9  A    between atoms: C_16  and  O_66
REMARK   10  A    between atoms: C_17  and  C_64
REMARK   11  A    between atoms: C_19  and  O_20
REMARK   12  A    between atoms: O_20  and  C_21
REMARK   13  A    between atoms: C_22  and  O_63
REMARK   14  A    between atoms: C_23  and  O_62
REMARK   15  A    between atoms: C_24  and  C_60
REMARK   16  A    between atoms: C_26  and  O_27
REMARK   17  A    between atoms: O_27  and  C_28
REMARK   18  A    between atoms: C_29  and  C_52
REMARK   19  A    between atoms: C_33  and  O_40
REMARK   20  A    between atoms: C_35  and  O_39
REMARK   21  A    between atoms: O_40  and  C_41
REMARK   22  A    between atoms: C_42  and  O_51
REMARK   23  A    between atoms: C_43  and  O_50
REMARK   24  A    between atoms: C_44  and  O_49
REMARK   25  A    between atoms: C_45  and  C_47
REMARK   26  A    between atoms: C_47  and  O_48
REMARK   27  A    between atoms: C_54  and  O_59
REMARK   28  A    between atoms: C_55  and  O_58
REMARK   29  A    between atoms: C_60  and  O_61
REMARK   30  A    between atoms: C_64  and  O_65
REMARK                            x       y       z     vdW  Elec       q    Type
REMARK                         _______ _______ _______ _____ _____    ______ ____
ROOT
ATOM      1  C   UNL     1       3.190  -1.660  27.223  0.00  0.00    +0.221 C 
ATOM      2  C   UNL     1       4.289  -0.535  27.227  0.00  0.00    +0.340 C 
ATOM      3  O   UNL     1       4.609  -0.145  28.579  0.00  0.00    -0.331 OA
ATOM      4  C   UNL     1       3.532   0.334  29.389  0.00  0.00    +0.179 C 
ATOM      5  C   UNL     1       2.370  -0.663  29.423  0.00  0.00    +0.177 C 
ATOM      6  C   UNL     1       1.986  -1.135  28.015  0.00  0.00    +0.180 C 
ENDROOT
BRANCH   6   7
ATOM      7  O   UNL     1       0.914  -2.082  28.105  0.00  0.00    -0.386 OA
ATOM      8  H   UNL     1       0.672  -2.176  29.044  0.00  0.00    +0.210 HD
ENDBRANCH   6   7
BRANCH   5   9
ATOM      9  O   UNL     1       1.225  -0.092  30.080  0.00  0.00    -0.386 OA
ATOM     10  H   UNL     1       0.429  -0.354  29.575  0.00  0.00    +0.210 HD
ENDBRANCH   5   9
BRANCH   4  11
ATOM     11  C   UNL     1       3.083   1.765  29.042  0.00  0.00    +0.190 C 
BRANCH  11  12
ATOM     12  O   UNL     1       4.154   2.637  28.700  0.00  0.00    -0.392 OA
ATOM     13  H   UNL     1       4.235   3.281  29.433  0.00  0.00    +0.210 HD
ENDBRANCH  11  12
ENDBRANCH   4  11
BRANCH   2  14
ATOM     14  O   UNL     1       3.971   0.608  26.395  0.00  0.00    -0.453 OA
BRANCH  14  15
ATOM     15  C   UNL     1       4.985   0.992  25.490  0.00  0.00    +0.214 A 
ATOM     16  C   UNL     1       6.290   0.253  25.454  0.00  0.00    +0.238 A 
ATOM     17  O   UNL     1       6.373  -0.908  25.836  0.00  0.00    -0.283 OA
ATOM     18  C   UNL     1       7.456   0.973  24.915  0.00  0.00    +0.109 A 
ATOM     19  C   UNL     1       7.221   2.144  24.199  0.00  0.00    +0.147 A 
ATOM     20  C   UNL     1       8.293   2.870  23.654  0.00  0.00    +0.093 A 
ATOM     21  C   UNL     1       9.593   2.401  23.826  0.00  0.00    +0.131 A 
ATOM     22  C   UNL     1       9.827   1.209  24.509  0.00  0.00    +0.092 A 
ATOM     23  O   UNL     1       5.949   2.604  23.948  0.00  0.00    -0.451 OA
ATOM     24  C   UNL     1       8.767   0.506  25.070  0.00  0.00    +0.135 A 
ATOM     25  C   UNL     1       4.875   2.077  24.674  0.00  0.00    +0.181 A 
BRANCH  25  26
ATOM     26  C   UNL     1       3.641   2.924  24.553  0.00  0.00    +0.025 A 
ATOM     27  C   UNL     1       3.152   3.673  25.642  0.00  0.00    +0.015 A 
ATOM     28  C   UNL     1       2.080   4.563  25.499  0.00  0.00    +0.050 A 
ATOM     29  C   UNL     1       1.457   4.685  24.271  0.00  0.00    +0.158 A 
ATOM     30  C   UNL     1       1.858   3.898  23.198  0.00  0.00    +0.159 A 
ATOM     31  C   UNL     1       2.940   3.021  23.328  0.00  0.00    +0.060 A 
BRANCH  30  32
ATOM     32  O   UNL     1       1.160   4.035  22.028  0.00  0.00    -0.503 OA
ATOM     33  H   UNL     1       0.218   4.154  22.241  0.00  0.00    +0.292 HD
ENDBRANCH  30  32
BRANCH  29  34
ATOM     34  O   UNL     1       0.447   5.592  24.121  0.00  0.00    -0.503 OA
ATOM     35  H   UNL     1       0.161   5.494  23.191  0.00  0.00    +0.292 HD
ENDBRANCH  29  34
ENDBRANCH  25  26
BRANCH  24  36
ATOM     36  O   UNL     1       9.041  -0.637  25.764  0.00  0.00    -0.506 OA
ATOM     37  H   UNL     1       9.928  -0.963  25.544  0.00  0.00    +0.292 HD
ENDBRANCH  24  36
BRANCH  21  38
ATOM     38  O   UNL     1      10.703   2.939  23.263  0.00  0.00    -0.461 OA
BRANCH  38  39
ATOM     39  C   UNL     1      11.020   4.315  23.455  0.00  0.00    +0.339 C 
ATOM     40  O   UNL     1      10.662   4.782  24.760  0.00  0.00    -0.331 OA
ATOM     41  C   UNL     1      10.464   6.208  24.756  0.00  0.00    +0.179 C 
ATOM     42  C   UNL     1      11.790   6.910  24.404  0.00  0.00    +0.177 C 
ATOM     43  C   UNL     1      12.383   6.343  23.098  0.00  0.00    +0.180 C 
ATOM     44  C   UNL     1      12.443   4.797  23.099  0.00  0.00    +0.214 C 
BRANCH  44  45
ATOM     45  O   UNL     1      12.843   4.310  21.812  0.00  0.00    -0.383 OA
ATOM     46  H   UNL     1      13.789   4.516  21.696  0.00  0.00    +0.210 HD
ENDBRANCH  44  45
BRANCH  43  47
ATOM     47  O   UNL     1      13.687   6.885  22.858  0.00  0.00    -0.386 OA
ATOM     48  H   UNL     1      14.326   6.166  23.044  0.00  0.00    +0.210 HD
ENDBRANCH  43  47
BRANCH  42  49
ATOM     49  O   UNL     1      12.772   6.748  25.438  0.00  0.00    -0.386 OA
ATOM     50  H   UNL     1      12.485   6.011  26.015  0.00  0.00    +0.210 HD
ENDBRANCH  42  49
BRANCH  41  51
ATOM     51  C   UNL     1       9.916   6.623  26.127  0.00  0.00    +0.190 C 
BRANCH  51  52
ATOM     52  O   UNL     1       8.846   5.775  26.550  0.00  0.00    -0.392 OA
ATOM     53  H   UNL     1       9.156   4.855  26.566  0.00  0.00    +0.210 HD
ENDBRANCH  51  52
ENDBRANCH  41  51
ENDBRANCH  38  39
ENDBRANCH  21  38
ENDBRANCH  14  15
ENDBRANCH   2  14
BRANCH   1  54
ATOM     54  O   UNL     1       3.799  -2.866  27.770  0.00  0.00    -0.336 OA
BRANCH  54  56
ATOM     55  C   UNL     1       2.864  -4.769  26.544  0.00  0.00    +0.263 C 
ATOM     56  C   UNL     1       4.138  -3.936  26.877  0.00  0.00    +0.295 C 
ATOM     57  O   UNL     1       5.221  -4.760  27.315  0.00  0.00    -0.340 OA
ATOM     58  C   UNL     1       4.958  -5.727  28.343  0.00  0.00    +0.178 C 
ATOM     59  C   UNL     1       3.716  -6.582  28.062  0.00  0.00    +0.178 C 
ATOM     60  C   UNL     1       2.522  -5.688  27.719  0.00  0.00    +0.191 C 
BRANCH  60  61
ATOM     61  O   UNL     1       1.382  -6.518  27.449  0.00  0.00    -0.385 OA
ATOM     62  H   UNL     1       1.146  -6.415  26.509  0.00  0.00    +0.210 HD
ENDBRANCH  60  61
BRANCH  59  63
ATOM     63  O   UNL     1       3.421  -7.424  29.180  0.00  0.00    -0.386 OA
ATOM     64  H   UNL     1       3.812  -7.005  29.973  0.00  0.00    +0.210 HD
ENDBRANCH  59  63
BRANCH  58  65
ATOM     65  C   UNL     1       4.941  -5.101  29.751  0.00  0.00    +0.190 C 
BRANCH  65  66
ATOM     66  O   UNL     1       6.124  -5.423  30.485  0.00  0.00    -0.392 OA
ATOM     67  H   UNL     1       6.778  -4.722  30.317  0.00  0.00    +0.210 HD
ENDBRANCH  65  66
ENDBRANCH  58  65
BRANCH  55  68
ATOM     68  O   UNL     1       3.096  -5.612  25.360  0.00  0.00    -0.450 OA
BRANCH  68  69
ATOM     69  C   UNL     1       3.121  -4.965  24.174  0.00  0.00    +0.332 C 
ATOM     70  O   UNL     1       2.152  -4.530  23.568  0.00  0.00    -0.246 OA
BRANCH  69  72
ATOM     71  C   UNL     1       5.039  -3.604  23.502  0.00  0.00    +0.015 C 
ATOM     72  C   UNL     1       4.522  -4.837  23.681  0.00  0.00    +0.092 C 
BRANCH  71  75
ATOM     73  C   UNL     1       8.798  -3.536  23.834  0.00  0.00    +0.162 A 
ATOM     74  C   UNL     1       7.477  -3.991  23.886  0.00  0.00    +0.057 A 
ATOM     75  C   UNL     1       6.452  -3.297  23.226  0.00  0.00    -0.021 A 
ATOM     76  C   UNL     1       6.792  -2.182  22.441  0.00  0.00    +0.012 A 
ATOM     77  C   UNL     1       8.116  -1.755  22.338  0.00  0.00    +0.050 A 
ATOM     78  C   UNL     1       9.104  -2.415  23.049  0.00  0.00    +0.158 A 
BRANCH  78  79
ATOM     79  O   UNL     1      10.375  -1.917  23.019  0.00  0.00    -0.503 OA
ATOM     80  H   UNL     1      10.740  -2.069  23.911  0.00  0.00    +0.292 HD
ENDBRANCH  78  79
BRANCH  73  82
ATOM     81  C   UNL     1       9.484  -5.171  25.390  0.00  0.00    +0.277 C 
ATOM     82  O   UNL     1       9.845  -4.090  24.532  0.00  0.00    -0.491 OA
ENDBRANCH  73  82
ENDBRANCH  71  75
ENDBRANCH  69  72
ENDBRANCH  68  69
ENDBRANCH  55  68
ENDBRANCH  54  56
ENDBRANCH   1  54
TORSDOF 29
ENDMDL
MODEL 5
REMARK VINA RESULT:      -5.3      2.919      5.722
REMARK  Name = 
REMARK  30 active torsions:
REMARK  status: ('A' for Active; 'I' for Inactive)
REMARK    1  A    between atoms: C_1  and  O_2
REMARK    2  A    between atoms: O_2  and  C_3
REMARK    3  A    between atoms: C_4  and  O_68
REMARK    4  A    between atoms: C_7  and  C_9
REMARK    5  A    between atoms: C_10  and  C_11
REMARK    6  A    between atoms: C_11  and  O_13
REMARK    7  A    between atoms: O_13  and  C_14
REMARK    8  A    between atoms: C_15  and  O_67
REMARK    9  A    between atoms: C_16  and  O_66
REMARK   10  A    between atoms: C_17  and  C_64
REMARK   11  A    between atoms: C_19  and  O_20
REMARK   12  A    between atoms: O_20  and  C_21
REMARK   13  A    between atoms: C_22  and  O_63
REMARK   14  A    between atoms: C_23  and  O_62
REMARK   15  A    between atoms: C_24  and  C_60
REMARK   16  A    between atoms: C_26  and  O_27
REMARK   17  A    between atoms: O_27  and  C_28
REMARK   18  A    between atoms: C_29  and  C_52
REMARK   19  A    between atoms: C_33  and  O_40
REMARK   20  A    between atoms: C_35  and  O_39
REMARK   21  A    between atoms: O_40  and  C_41
REMARK   22  A    between atoms: C_42  and  O_51
REMARK   23  A    between atoms: C_43  and  O_50
REMARK   24  A    between atoms: C_44  and  O_49
REMARK   25  A    between atoms: C_45  and  C_47
REMARK   26  A    between atoms: C_47  and  O_48
REMARK   27  A    between atoms: C_54  and  O_59
REMARK   28  A    between atoms: C_55  and  O_58
REMARK   29  A    between atoms: C_60  and  O_61
REMARK   30  A    between atoms: C_64  and  O_65
REMARK                            x       y       z     vdW  Elec       q    Type
REMARK                         _______ _______ _______ _____ _____    ______ ____
ROOT
ATOM      1  C   UNL     1       5.594  -2.564  27.023  0.00  0.00    +0.221 C 
ATOM      2  C   UNL     1       6.566  -1.808  26.044  0.00  0.00    +0.340 C 
ATOM      3  O   UNL     1       6.914  -2.652  24.926  0.00  0.00    -0.331 OA
ATOM      4  C   UNL     1       7.532  -3.906  25.226  0.00  0.00    +0.179 C 
ATOM      5  C   UNL     1       6.695  -4.720  26.219  0.00  0.00    +0.177 C 
ATOM      6  C   UNL     1       6.274  -3.877  27.429  0.00  0.00    +0.180 C 
ENDROOT
BRANCH   6   7
ATOM      7  O   UNL     1       5.475  -4.676  28.312  0.00  0.00    -0.386 OA
ATOM      8  H   UNL     1       5.304  -5.529  27.875  0.00  0.00    +0.210 HD
ENDBRANCH   6   7
BRANCH   5   9
ATOM      9  O   UNL     1       7.411  -5.887  26.656  0.00  0.00    -0.386 OA
ATOM     10  H   UNL     1       7.791  -6.319  25.863  0.00  0.00    +0.210 HD
ENDBRANCH   5   9
BRANCH   4  11
ATOM     11  C   UNL     1       9.008  -3.788  25.645  0.00  0.00    +0.190 C 
BRANCH  11  12
ATOM     12  O   UNL     1       9.927  -4.000  24.579  0.00  0.00    -0.392 OA
ATOM     13  H   UNL     1       9.759  -4.903  24.241  0.00  0.00    +0.210 HD
ENDBRANCH  11  12
ENDBRANCH   4  11
BRANCH   2  14
ATOM     14  O   UNL     1       7.739  -1.250  26.686  0.00  0.00    -0.453 OA
BRANCH  14  15
ATOM     15  C   UNL     1       7.754   0.159  26.787  0.00  0.00    +0.214 A 
ATOM     16  C   UNL     1       7.460   0.828  28.097  0.00  0.00    +0.238 A 
ATOM     17  O   UNL     1       7.636   0.247  29.161  0.00  0.00    -0.283 OA
ATOM     18  C   UNL     1       6.978   2.219  28.048  0.00  0.00    +0.109 A 
ATOM     19  C   UNL     1       7.125   2.914  26.850  0.00  0.00    +0.147 A 
ATOM     20  C   UNL     1       6.691   4.246  26.745  0.00  0.00    +0.093 A 
ATOM     21  C   UNL     1       6.124   4.870  27.854  0.00  0.00    +0.131 A 
ATOM     22  C   UNL     1       6.013   4.188  29.065  0.00  0.00    +0.092 A 
ATOM     23  O   UNL     1       7.740   2.358  25.754  0.00  0.00    -0.451 OA
ATOM     24  C   UNL     1       6.418   2.862  29.159  0.00  0.00    +0.135 A 
ATOM     25  C   UNL     1       7.952   0.975  25.716  0.00  0.00    +0.181 A 
BRANCH  25  26
ATOM     26  C   UNL     1       8.283   0.491  24.333  0.00  0.00    +0.025 A 
ATOM     27  C   UNL     1       7.632   1.010  23.196  0.00  0.00    +0.015 A 
ATOM     28  C   UNL     1       8.027   0.658  21.899  0.00  0.00    +0.050 A 
ATOM     29  C   UNL     1       9.054  -0.252  21.724  0.00  0.00    +0.158 A 
ATOM     30  C   UNL     1       9.660  -0.847  22.824  0.00  0.00    +0.159 A 
ATOM     31  C   UNL     1       9.284  -0.486  24.122  0.00  0.00    +0.060 A 
BRANCH  30  32
ATOM     32  O   UNL     1      10.633  -1.777  22.572  0.00  0.00    -0.503 OA
ATOM     33  H   UNL     1      10.917  -2.164  23.418  0.00  0.00    +0.292 HD
ENDBRANCH  30  32
BRANCH  29  34
ATOM     34  O   UNL     1       9.472  -0.553  20.459  0.00  0.00    -0.503 OA
ATOM     35  H   UNL     1       9.076  -1.426  20.268  0.00  0.00    +0.292 HD
ENDBRANCH  29  34
ENDBRANCH  25  26
BRANCH  24  36
ATOM     36  O   UNL     1       6.257   2.217  30.352  0.00  0.00    -0.506 OA
ATOM     37  H   UNL     1       5.435   2.500  30.782  0.00  0.00    +0.292 HD
ENDBRANCH  24  36
BRANCH  21  38
ATOM     38  O   UNL     1       5.768   6.176  27.923  0.00  0.00    -0.461 OA
BRANCH  38  39
ATOM     39  C   UNL     1       4.435   6.582  27.626  0.00  0.00    +0.339 C 
ATOM     40  O   UNL     1       4.047   6.246  26.289  0.00  0.00    -0.331 OA
ATOM     41  C   UNL     1       2.987   7.107  25.833  0.00  0.00    +0.179 C 
ATOM     42  C   UNL     1       1.735   6.888  26.706  0.00  0.00    +0.177 C 
ATOM     43  C   UNL     1       2.077   7.032  28.203  0.00  0.00    +0.180 C 
ATOM     44  C   UNL     1       3.311   6.194  28.610  0.00  0.00    +0.214 C 
BRANCH  44  45
ATOM     45  O   UNL     1       3.690   6.483  29.961  0.00  0.00    -0.383 OA
ATOM     46  H   UNL     1       3.132   7.217  30.278  0.00  0.00    +0.210 HD
ENDBRANCH  44  45
BRANCH  43  47
ATOM     47  O   UNL     1       0.951   6.676  29.015  0.00  0.00    -0.386 OA
ATOM     48  H   UNL     1       1.283   6.605  29.934  0.00  0.00    +0.210 HD
ENDBRANCH  43  47
BRANCH  42  49
ATOM     49  O   UNL     1       1.167   5.586  26.509  0.00  0.00    -0.386 OA
ATOM     50  H   UNL     1       0.471   5.453  27.184  0.00  0.00    +0.210 HD
ENDBRANCH  42  49
BRANCH  41  51
ATOM     51  C   UNL     1       2.735   6.818  24.348  0.00  0.00    +0.190 C 
BRANCH  51  52
ATOM     52  O   UNL     1       3.934   6.920  23.576  0.00  0.00    -0.392 OA
ATOM     53  H   UNL     1       4.252   7.837  23.603  0.00  0.00    +0.210 HD
ENDBRANCH  51  52
ENDBRANCH  41  51
ENDBRANCH  38  39
ENDBRANCH  21  38
ENDBRANCH  14  15
ENDBRANCH   2  14
BRANCH   1  54
ATOM     54  O   UNL     1       4.320  -2.725  26.333  0.00  0.00    -0.336 OA
BRANCH  54  56
ATOM     55  C   UNL     1       3.187  -1.621  28.203  0.00  0.00    +0.263 C 
ATOM     56  C   UNL     1       3.240  -1.840  26.661  0.00  0.00    +0.295 C 
ATOM     57  O   UNL     1       1.970  -2.226  26.129  0.00  0.00    -0.340 OA
ATOM     58  C   UNL     1       1.265  -3.296  26.776  0.00  0.00    +0.178 C 
ATOM     59  C   UNL     1       1.177  -3.126  28.297  0.00  0.00    +0.178 C 
ATOM     60  C   UNL     1       2.563  -2.842  28.882  0.00  0.00    +0.191 C 
BRANCH  60  61
ATOM     61  O   UNL     1       2.443  -2.675  30.303  0.00  0.00    -0.385 OA
ATOM     62  H   UNL     1       3.209  -2.161  30.614  0.00  0.00    +0.210 HD
ENDBRANCH  60  61
BRANCH  59  63
ATOM     63  O   UNL     1       0.595  -4.285  28.900  0.00  0.00    -0.386 OA
ATOM     64  H   UNL     1       0.515  -4.108  29.858  0.00  0.00    +0.210 HD
ENDBRANCH  59  63
BRANCH  58  65
ATOM     65  C   UNL     1       1.794  -4.684  26.364  0.00  0.00    +0.190 C 
BRANCH  65  66
ATOM     66  O   UNL     1       2.812  -5.145  27.254  0.00  0.00    -0.392 OA
ATOM     67  H   UNL     1       3.671  -4.866  26.893  0.00  0.00    +0.210 HD
ENDBRANCH  65  66
ENDBRANCH  58  65
BRANCH  55  68
ATOM     68  O   UNL     1       2.360  -0.447  28.527  0.00  0.00    -0.450 OA
BRANCH  68  69
ATOM     69  C   UNL     1       2.990   0.747  28.482  0.00  0.00    +0.332 C 
ATOM     70  O   UNL     1       3.736   1.202  29.337  0.00  0.00    -0.246 OA
BRANCH  69  72
ATOM     71  C   UNL     1       3.663   1.883  26.424  0.00  0.00    +0.015 C 
ATOM     72  C   UNL     1       2.657   1.463  27.217  0.00  0.00    +0.092 C 
BRANCH  71  75
ATOM     73  C   UNL     1       4.543   3.385  23.074  0.00  0.00    +0.162 A 
ATOM     74  C   UNL     1       4.645   2.643  24.255  0.00  0.00    +0.057 A 
ATOM     75  C   UNL     1       3.516   2.414  25.058  0.00  0.00    -0.021 A 
ATOM     76  C   UNL     1       2.267   2.873  24.608  0.00  0.00    +0.012 A 
ATOM     77  C   UNL     1       2.149   3.564  23.402  0.00  0.00    +0.050 A 
ATOM     78  C   UNL     1       3.284   3.836  22.657  0.00  0.00    +0.158 A 
BRANCH  78  79
ATOM     79  O   UNL     1       3.160   4.605  21.536  0.00  0.00    -0.503 OA
ATOM     80  H   UNL     1       4.047   4.622  21.128  0.00  0.00    +0.292 HD
ENDBRANCH  78  79
BRANCH  73  82
ATOM     81  C   UNL     1       6.642   4.456  22.963  0.00  0.00    +0.277 C 
ATOM     82  O   UNL     1       5.608   3.746  22.283  0.00  0.00    -0.491 OA
ENDBRANCH  73  82
ENDBRANCH  71  75
ENDBRANCH  69  72
ENDBRANCH  68  69
ENDBRANCH  55  68
ENDBRANCH  54  56
ENDBRANCH   1  54
TORSDOF 29
ENDMDL
MODEL 6
REMARK VINA RESULT:      -4.7      2.639      9.520
REMARK  Name = 
REMARK  30 active torsions:
REMARK  status: ('A' for Active; 'I' for Inactive)
REMARK    1  A    between atoms: C_1  and  O_2
REMARK    2  A    between atoms: O_2  and  C_3
REMARK    3  A    between atoms: C_4  and  O_68
REMARK    4  A    between atoms: C_7  and  C_9
REMARK    5  A    between atoms: C_10  and  C_11
REMARK    6  A    between atoms: C_11  and  O_13
REMARK    7  A    between atoms: O_13  and  C_14
REMARK    8  A    between atoms: C_15  and  O_67
REMARK    9  A    between atoms: C_16  and  O_66
REMARK   10  A    between atoms: C_17  and  C_64
REMARK   11  A    between atoms: C_19  and  O_20
REMARK   12  A    between atoms: O_20  and  C_21
REMARK   13  A    between atoms: C_22  and  O_63
REMARK   14  A    between atoms: C_23  and  O_62
REMARK   15  A    between atoms: C_24  and  C_60
REMARK   16  A    between atoms: C_26  and  O_27
REMARK   17  A    between atoms: O_27  and  C_28
REMARK   18  A    between atoms: C_29  and  C_52
REMARK   19  A    between atoms: C_33  and  O_40
REMARK   20  A    between atoms: C_35  and  O_39
REMARK   21  A    between atoms: O_40  and  C_41
REMARK   22  A    between atoms: C_42  and  O_51
REMARK   23  A    between atoms: C_43  and  O_50
REMARK   24  A    between atoms: C_44  and  O_49
REMARK   25  A    between atoms: C_45  and  C_47
REMARK   26  A    between atoms: C_47  and  O_48
REMARK   27  A    between atoms: C_54  and  O_59
REMARK   28  A    between atoms: C_55  and  O_58
REMARK   29  A    between atoms: C_60  and  O_61
REMARK   30  A    between atoms: C_64  and  O_65
REMARK                            x       y       z     vdW  Elec       q    Type
REMARK                         _______ _______ _______ _____ _____    ______ ____
ROOT
ATOM      1  C   UNL     1       7.554   1.186  23.496  0.00  0.00    +0.221 C 
ATOM      2  C   UNL     1       7.131  -0.088  24.316  0.00  0.00    +0.340 C 
ATOM      3  O   UNL     1       8.294  -0.849  24.703  0.00  0.00    -0.331 OA
ATOM      4  C   UNL     1       9.150  -1.306  23.652  0.00  0.00    +0.179 C 
ATOM      5  C   UNL     1       9.593  -0.151  22.748  0.00  0.00    +0.177 C 
ATOM      6  C   UNL     1       8.405   0.713  22.311  0.00  0.00    +0.180 C 
ENDROOT
BRANCH   6   7
ATOM      7  O   UNL     1       8.875   1.790  21.490  0.00  0.00    -0.386 OA
ATOM      8  H   UNL     1       8.808   1.512  20.559  0.00  0.00    +0.210 HD
ENDBRANCH   6   7
BRANCH   5   9
ATOM      9  O   UNL     1      10.295  -0.646  21.594  0.00  0.00    -0.386 OA
ATOM     10  H   UNL     1      10.746  -1.476  21.852  0.00  0.00    +0.210 HD
ENDBRANCH   5   9
BRANCH   4  11
ATOM     11  C   UNL     1       8.584  -2.500  22.864  0.00  0.00    +0.190 C 
BRANCH  11  12
ATOM     12  O   UNL     1       8.072  -3.542  23.687  0.00  0.00    -0.392 OA
ATOM     13  H   UNL     1       8.356  -3.341  24.602  0.00  0.00    +0.210 HD
ENDBRANCH  11  12
ENDBRANCH   4  11
BRANCH   2  14
ATOM     14  O   UNL     1       6.138  -0.913  23.659  0.00  0.00    -0.453 OA
BRANCH  14  15
ATOM     15  C   UNL     1       5.500  -1.861  24.489  0.00  0.00    +0.214 A 
ATOM     16  C   UNL     1       4.949  -3.130  23.909  0.00  0.00    +0.238 A 
ATOM     17  O   UNL     1       5.390  -3.595  22.865  0.00  0.00    -0.283 OA
ATOM     18  C   UNL     1       3.878  -3.803  24.661  0.00  0.00    +0.109 A 
ATOM     19  C   UNL     1       3.668  -3.412  25.982  0.00  0.00    +0.147 A 
ATOM     20  C   UNL     1       2.665  -4.023  26.753  0.00  0.00    +0.093 A 
ATOM     21  C   UNL     1       1.891  -5.034  26.188  0.00  0.00    +0.131 A 
ATOM     22  C   UNL     1       2.126  -5.454  24.880  0.00  0.00    +0.092 A 
ATOM     23  O   UNL     1       4.454  -2.467  26.597  0.00  0.00    -0.451 OA
ATOM     24  C   UNL     1       3.100  -4.829  24.111  0.00  0.00    +0.135 A 
ATOM     25  C   UNL     1       5.282  -1.651  25.817  0.00  0.00    +0.181 A 
BRANCH  25  26
ATOM     26  C   UNL     1       5.778  -0.456  26.578  0.00  0.00    +0.025 A 
ATOM     27  C   UNL     1       5.001   0.713  26.703  0.00  0.00    +0.015 A 
ATOM     28  C   UNL     1       5.402   1.779  27.519  0.00  0.00    +0.050 A 
ATOM     29  C   UNL     1       6.609   1.705  28.188  0.00  0.00    +0.158 A 
ATOM     30  C   UNL     1       7.440   0.604  28.020  0.00  0.00    +0.159 A 
ATOM     31  C   UNL     1       7.037  -0.472  27.223  0.00  0.00    +0.060 A 
BRANCH  30  32
ATOM     32  O   UNL     1       8.643   0.624  28.674  0.00  0.00    -0.503 OA
ATOM     33  H   UNL     1       9.280   1.124  28.135  0.00  0.00    +0.292 HD
ENDBRANCH  30  32
BRANCH  29  34
ATOM     34  O   UNL     1       6.974   2.722  29.024  0.00  0.00    -0.503 OA
ATOM     35  H   UNL     1       6.140   3.007  29.447  0.00  0.00    +0.292 HD
ENDBRANCH  29  34
ENDBRANCH  25  26
BRANCH  24  36
ATOM     36  O   UNL     1       3.275  -5.244  22.821  0.00  0.00    -0.506 OA
ATOM     37  H   UNL     1       2.825  -6.091  22.674  0.00  0.00    +0.292 HD
ENDBRANCH  24  36
BRANCH  21  38
ATOM     38  O   UNL     1       0.971  -5.781  26.848  0.00  0.00    -0.461 OA
BRANCH  38  39
ATOM     39  C   UNL     1       0.713  -7.126  26.458  0.00  0.00    +0.339 C 
ATOM     40  O   UNL     1       1.169  -7.407  25.131  0.00  0.00    -0.331 OA
ATOM     41  C   UNL     1       0.444  -8.515  24.565  0.00  0.00    +0.179 C 
ATOM     42  C   UNL     1       0.724  -9.788  25.388  0.00  0.00    +0.177 C 
ATOM     43  C   UNL     1       0.453  -9.545  26.887  0.00  0.00    +0.180 C 
ATOM     44  C   UNL     1       1.142  -8.263  27.410  0.00  0.00    +0.214 C 
BRANCH  44  45
ATOM     45  O   UNL     1       0.733  -7.987  28.756  0.00  0.00    -0.383 OA
ATOM     46  H   UNL     1       0.463  -7.051  28.801  0.00  0.00    +0.210 HD
ENDBRANCH  44  45
BRANCH  43  47
ATOM     47  O   UNL     1       0.862 -10.676  27.665  0.00  0.00    -0.386 OA
ATOM     48  H   UNL     1       0.099 -11.292  27.682  0.00  0.00    +0.210 HD
ENDBRANCH  43  47
BRANCH  42  49
ATOM     49  O   UNL     1       2.085 -10.223  25.253  0.00  0.00    -0.386 OA
ATOM     50  H   UNL     1       2.593  -9.501  24.831  0.00  0.00    +0.210 HD
ENDBRANCH  42  49
BRANCH  41  51
ATOM     51  C   UNL     1       0.850  -8.657  23.092  0.00  0.00    +0.190 C 
BRANCH  51  52
ATOM     52  O   UNL     1       2.210  -8.274  22.877  0.00  0.00    -0.392 OA
ATOM     53  H   UNL     1       2.620  -8.062  23.732  0.00  0.00    +0.210 HD
ENDBRANCH  51  52
ENDBRANCH  41  51
ENDBRANCH  38  39
ENDBRANCH  21  38
ENDBRANCH  14  15
ENDBRANCH   2  14
BRANCH   1  54
ATOM     54  O   UNL     1       8.238   2.088  24.415  0.00  0.00    -0.336 OA
BRANCH  54  56
ATOM     55  C   UNL     1       6.568   3.790  23.855  0.00  0.00    +0.263 C 
ATOM     56  C   UNL     1       7.519   3.210  24.945  0.00  0.00    +0.295 C 
ATOM     57  O   UNL     1       8.341   4.221  25.536  0.00  0.00    -0.340 OA
ATOM     58  C   UNL     1       9.047   5.111  24.659  0.00  0.00    +0.178 C 
ATOM     59  C   UNL     1       8.155   5.718  23.569  0.00  0.00    +0.178 C 
ATOM     60  C   UNL     1       7.372   4.617  22.850  0.00  0.00    +0.191 C 
BRANCH  60  61
ATOM     61  O   UNL     1       6.537   5.219  21.847  0.00  0.00    -0.385 OA
ATOM     62  H   UNL     1       7.103   5.756  21.264  0.00  0.00    +0.210 HD
ENDBRANCH  60  61
BRANCH  59  63
ATOM     63  O   UNL     1       8.936   6.479  22.644  0.00  0.00    -0.386 OA
ATOM     64  H   UNL     1       8.560   6.333  21.754  0.00  0.00    +0.210 HD
ENDBRANCH  59  63
BRANCH  58  65
ATOM     65  C   UNL     1      10.333   4.481  24.089  0.00  0.00    +0.190 C 
BRANCH  65  66
ATOM     66  O   UNL     1      11.226   5.474  23.582  0.00  0.00    -0.392 OA
ATOM     67  H   UNL     1      10.802   6.342  23.697  0.00  0.00    +0.210 HD
ENDBRANCH  65  66
ENDBRANCH  58  65
BRANCH  55  68
ATOM     68  O   UNL     1       5.561   4.672  24.468  0.00  0.00    -0.450 OA
BRANCH  68  69
ATOM     69  C   UNL     1       4.291   4.211  24.458  0.00  0.00    +0.332 C 
ATOM     70  O   UNL     1       3.857   3.276  25.115  0.00  0.00    -0.246 OA
BRANCH  69  72
ATOM     71  C   UNL     1       3.371   4.628  22.230  0.00  0.00    +0.015 C 
ATOM     72  C   UNL     1       3.455   5.013  23.520  0.00  0.00    +0.092 C 
BRANCH  71  75
ATOM     73  C   UNL     1       1.214   4.887  19.144  0.00  0.00    +0.162 A 
ATOM     74  C   UNL     1       1.880   4.342  20.246  0.00  0.00    +0.057 A 
ATOM     75  C   UNL     1       2.440   5.174  21.229  0.00  0.00    -0.021 A 
ATOM     76  C   UNL     1       2.245   6.561  21.126  0.00  0.00    +0.012 A 
ATOM     77  C   UNL     1       1.533   7.108  20.058  0.00  0.00    +0.050 A 
ATOM     78  C   UNL     1       1.044   6.276  19.066  0.00  0.00    +0.158 A 
BRANCH  78  79
ATOM     79  O   UNL     1       0.443   6.839  17.977  0.00  0.00    -0.503 OA
ATOM     80  H   UNL     1      -0.071   6.123  17.558  0.00  0.00    +0.292 HD
ENDBRANCH  78  79
BRANCH  73  82
ATOM     81  C   UNL     1       1.536   4.200  16.910  0.00  0.00    +0.277 C 
ATOM     82  O   UNL     1       0.728   4.157  18.084  0.00  0.00    -0.491 OA
ENDBRANCH  73  82
ENDBRANCH  71  75
ENDBRANCH  69  72
ENDBRANCH  68  69
ENDBRANCH  55  68
ENDBRANCH  54  56
ENDBRANCH   1  54
TORSDOF 29
ENDMDL
MODEL 7
REMARK VINA RESULT:      -4.7      2.427      6.756
REMARK  Name = 
REMARK  30 active torsions:
REMARK  status: ('A' for Active; 'I' for Inactive)
REMARK    1  A    between atoms: C_1  and  O_2
REMARK    2  A    between atoms: O_2  and  C_3
REMARK    3  A    between atoms: C_4  and  O_68
REMARK    4  A    between atoms: C_7  and  C_9
REMARK    5  A    between atoms: C_10  and  C_11
REMARK    6  A    between atoms: C_11  and  O_13
REMARK    7  A    between atoms: O_13  and  C_14
REMARK    8  A    between atoms: C_15  and  O_67
REMARK    9  A    between atoms: C_16  and  O_66
REMARK   10  A    between atoms: C_17  and  C_64
REMARK   11  A    between atoms: C_19  and  O_20
REMARK   12  A    between atoms: O_20  and  C_21
REMARK   13  A    between atoms: C_22  and  O_63
REMARK   14  A    between atoms: C_23  and  O_62
REMARK   15  A    between atoms: C_24  and  C_60
REMARK   16  A    between atoms: C_26  and  O_27
REMARK   17  A    between atoms: O_27  and  C_28
REMARK   18  A    between atoms: C_29  and  C_52
REMARK   19  A    between atoms: C_33  and  O_40
REMARK   20  A    between atoms: C_35  and  O_39
REMARK   21  A    between atoms: O_40  and  C_41
REMARK   22  A    between atoms: C_42  and  O_51
REMARK   23  A    between atoms: C_43  and  O_50
REMARK   24  A    between atoms: C_44  and  O_49
REMARK   25  A    between atoms: C_45  and  C_47
REMARK   26  A    between atoms: C_47  and  O_48
REMARK   27  A    between atoms: C_54  and  O_59
REMARK   28  A    between atoms: C_55  and  O_58
REMARK   29  A    between atoms: C_60  and  O_61
REMARK   30  A    between atoms: C_64  and  O_65
REMARK                            x       y       z     vdW  Elec       q    Type
REMARK                         _______ _______ _______ _____ _____    ______ ____
ROOT
ATOM      1  C   UNL     1       5.696  -2.435  22.599  0.00  0.00    +0.221 C 
ATOM      2  C   UNL     1       5.800  -3.177  23.983  0.00  0.00    +0.340 C 
ATOM      3  O   UNL     1       6.810  -4.207  23.930  0.00  0.00    -0.331 OA
ATOM      4  C   UNL     1       6.650  -5.221  22.935  0.00  0.00    +0.179 C 
ATOM      5  C   UNL     1       6.488  -4.615  21.537  0.00  0.00    +0.177 C 
ATOM      6  C   UNL     1       5.439  -3.497  21.523  0.00  0.00    +0.180 C 
ENDROOT
BRANCH   6   7
ATOM      7  O   UNL     1       5.344  -2.949  20.202  0.00  0.00    -0.386 OA
ATOM      8  H   UNL     1       5.844  -3.527  19.598  0.00  0.00    +0.210 HD
ENDBRANCH   6   7
BRANCH   5   9
ATOM      9  O   UNL     1       6.142  -5.628  20.577  0.00  0.00    -0.386 OA
ATOM     10  H   UNL     1       5.344  -6.092  20.906  0.00  0.00    +0.210 HD
ENDBRANCH   5   9
BRANCH   4  11
ATOM     11  C   UNL     1       5.559  -6.254  23.269  0.00  0.00    +0.190 C 
BRANCH  11  12
ATOM     12  O   UNL     1       4.263  -5.892  22.804  0.00  0.00    -0.392 OA
ATOM     13  H   UNL     1       3.877  -6.696  22.400  0.00  0.00    +0.210 HD
ENDBRANCH  11  12
ENDBRANCH   4  11
BRANCH   2  14
ATOM     14  O   UNL     1       4.537  -3.681  24.482  0.00  0.00    -0.453 OA
BRANCH  14  15
ATOM     15  C   UNL     1       4.146  -3.179  25.742  0.00  0.00    +0.214 A 
ATOM     16  C   UNL     1       2.772  -2.610  25.939  0.00  0.00    +0.238 A 
ATOM     17  O   UNL     1       1.837  -2.943  25.221  0.00  0.00    -0.283 OA
ATOM     18  C   UNL     1       2.591  -1.657  27.047  0.00  0.00    +0.109 A 
ATOM     19  C   UNL     1       3.593  -1.588  28.013  0.00  0.00    +0.147 A 
ATOM     20  C   UNL     1       3.474  -0.703  29.098  0.00  0.00    +0.093 A 
ATOM     21  C   UNL     1       2.337   0.095  29.207  0.00  0.00    +0.131 A 
ATOM     22  C   UNL     1       1.316  -0.003  28.262  0.00  0.00    +0.092 A 
ATOM     23  O   UNL     1       4.698  -2.406  27.979  0.00  0.00    -0.451 OA
ATOM     24  C   UNL     1       1.449  -0.859  27.176  0.00  0.00    +0.135 A 
ATOM     25  C   UNL     1       4.994  -3.108  26.805  0.00  0.00    +0.181 A 
BRANCH  25  26
ATOM     26  C   UNL     1       6.396  -3.646  26.807  0.00  0.00    +0.025 A 
ATOM     27  C   UNL     1       6.683  -4.955  27.243  0.00  0.00    +0.015 A 
ATOM     28  C   UNL     1       7.965  -5.505  27.125  0.00  0.00    +0.050 A 
ATOM     29  C   UNL     1       8.990  -4.735  26.605  0.00  0.00    +0.158 A 
ATOM     30  C   UNL     1       8.762  -3.413  26.245  0.00  0.00    +0.159 A 
ATOM     31  C   UNL     1       7.479  -2.863  26.342  0.00  0.00    +0.060 A 
BRANCH  30  32
ATOM     32  O   UNL     1       9.835  -2.697  25.787  0.00  0.00    -0.503 OA
ATOM     33  H   UNL     1      10.532  -3.321  25.519  0.00  0.00    +0.292 HD
ENDBRANCH  30  32
BRANCH  29  34
ATOM     34  O   UNL     1      10.227  -5.291  26.442  0.00  0.00    -0.503 OA
ATOM     35  H   UNL     1      10.786  -4.560  26.113  0.00  0.00    +0.292 HD
ENDBRANCH  29  34
ENDBRANCH  25  26
BRANCH  24  36
ATOM     36  O   UNL     1       0.443  -0.897  26.253  0.00  0.00    -0.506 OA
ATOM     37  H   UNL     1      -0.414  -0.738  26.679  0.00  0.00    +0.292 HD
ENDBRANCH  24  36
BRANCH  21  38
ATOM     38  O   UNL     1       2.043   0.904  30.254  0.00  0.00    -0.461 OA
BRANCH  38  39
ATOM     39  C   UNL     1       2.610   2.208  30.344  0.00  0.00    +0.339 C 
ATOM     40  O   UNL     1       3.951   2.257  29.844  0.00  0.00    -0.331 OA
ATOM     41  C   UNL     1       4.674   3.358  30.426  0.00  0.00    +0.179 C 
ATOM     42  C   UNL     1       4.015   4.686  30.004  0.00  0.00    +0.177 C 
ATOM     43  C   UNL     1       2.505   4.675  30.319  0.00  0.00    +0.180 C 
ATOM     44  C   UNL     1       1.802   3.402  29.794  0.00  0.00    +0.214 C 
BRANCH  44  45
ATOM     45  O   UNL     1       0.443   3.355  30.248  0.00  0.00    -0.383 OA
ATOM     46  H   UNL     1       0.448   3.041  31.171  0.00  0.00    +0.210 HD
ENDBRANCH  44  45
BRANCH  43  47
ATOM     47  O   UNL     1       1.868   5.843  29.787  0.00  0.00    -0.386 OA
ATOM     48  H   UNL     1       2.425   6.606  30.047  0.00  0.00    +0.210 HD
ENDBRANCH  43  47
BRANCH  42  49
ATOM     49  O   UNL     1       4.168   4.938  28.600  0.00  0.00    -0.386 OA
ATOM     50  H   UNL     1       3.403   4.541  28.136  0.00  0.00    +0.210 HD
ENDBRANCH  42  49
BRANCH  41  51
ATOM     51  C   UNL     1       6.141   3.257  29.989  0.00  0.00    +0.190 C 
BRANCH  51  52
ATOM     52  O   UNL     1       6.703   4.541  29.712  0.00  0.00    -0.392 OA
ATOM     53  H   UNL     1       7.597   4.586  30.089  0.00  0.00    +0.210 HD
ENDBRANCH  51  52
ENDBRANCH  41  51
ENDBRANCH  38  39
ENDBRANCH  21  38
ENDBRANCH  14  15
ENDBRANCH   2  14
BRANCH   1  54
ATOM     54  O   UNL     1       6.926  -1.672  22.420  0.00  0.00    -0.336 OA
BRANCH  54  56
ATOM     55  C   UNL     1       6.774   0.631  23.239  0.00  0.00    +0.263 C 
ATOM     56  C   UNL     1       7.355  -0.797  23.472  0.00  0.00    +0.295 C 
ATOM     57  O   UNL     1       8.768  -0.774  23.691  0.00  0.00    -0.340 OA
ATOM     58  C   UNL     1       9.580  -0.034  22.768  0.00  0.00    +0.178 C 
ATOM     59  C   UNL     1       9.057   1.384  22.508  0.00  0.00    +0.178 C 
ATOM     60  C   UNL     1       7.571   1.345  22.146  0.00  0.00    +0.191 C 
BRANCH  60  61
ATOM     61  O   UNL     1       7.110   2.687  21.923  0.00  0.00    -0.385 OA
ATOM     62  H   UNL     1       7.827   3.186  21.491  0.00  0.00    +0.210 HD
ENDBRANCH  60  61
BRANCH  59  63
ATOM     63  O   UNL     1       9.819   2.021  21.478  0.00  0.00    -0.386 OA
ATOM     64  H   UNL     1       9.870   1.399  20.726  0.00  0.00    +0.210 HD
ENDBRANCH  59  63
BRANCH  58  65
ATOM     65  C   UNL     1       9.853  -0.812  21.466  0.00  0.00    +0.190 C 
BRANCH  65  66
ATOM     66  O   UNL     1       9.777  -2.224  21.671  0.00  0.00    -0.392 OA
ATOM     67  H   UNL     1       9.454  -2.628  20.847  0.00  0.00    +0.210 HD
ENDBRANCH  65  66
ENDBRANCH  58  65
BRANCH  55  68
ATOM     68  O   UNL     1       6.872   1.432  24.471  0.00  0.00    -0.450 OA
BRANCH  68  69
ATOM     69  C   UNL     1       5.830   1.328  25.324  0.00  0.00    +0.332 C 
ATOM     70  O   UNL     1       5.659   0.441  26.149  0.00  0.00    -0.246 OA
BRANCH  69  72
ATOM     71  C   UNL     1       4.302   2.635  23.933  0.00  0.00    +0.015 C 
ATOM     72  C   UNL     1       4.887   2.467  25.135  0.00  0.00    +0.092 C 
BRANCH  71  75
ATOM     73  C   UNL     1       1.748   4.621  21.989  0.00  0.00    +0.162 A 
ATOM     74  C   UNL     1       2.598   3.577  22.367  0.00  0.00    +0.057 A 
ATOM     75  C   UNL     1       3.203   3.567  23.634  0.00  0.00    -0.021 A 
ATOM     76  C   UNL     1       2.871   4.584  24.545  0.00  0.00    +0.012 A 
ATOM     77  C   UNL     1       1.979   5.598  24.194  0.00  0.00    +0.050 A 
ATOM     78  C   UNL     1       1.443   5.625  22.918  0.00  0.00    +0.158 A 
BRANCH  78  79
ATOM     79  O   UNL     1       0.657   6.683  22.561  0.00  0.00    -0.503 OA
ATOM     80  H   UNL     1       0.359   6.496  21.651  0.00  0.00    +0.292 HD
ENDBRANCH  78  79
BRANCH  73  82
ATOM     81  C   UNL     1       1.821   3.989  19.717  0.00  0.00    +0.277 C 
ATOM     82  O   UNL     1       1.196   4.766  20.737  0.00  0.00    -0.491 OA
ENDBRANCH  73  82
ENDBRANCH  71  75
ENDBRANCH  69  72
ENDBRANCH  68  69
ENDBRANCH  55  68
ENDBRANCH  54  56
ENDBRANCH   1  54
TORSDOF 29
ENDMDL
MODEL 8
REMARK VINA RESULT:      -4.3      2.387      6.566
REMARK  Name = 
REMARK  30 active torsions:
REMARK  status: ('A' for Active; 'I' for Inactive)
REMARK    1  A    between atoms: C_1  and  O_2
REMARK    2  A    between atoms: O_2  and  C_3
REMARK    3  A    between atoms: C_4  and  O_68
REMARK    4  A    between atoms: C_7  and  C_9
REMARK    5  A    between atoms: C_10  and  C_11
REMARK    6  A    between atoms: C_11  and  O_13
REMARK    7  A    between atoms: O_13  and  C_14
REMARK    8  A    between atoms: C_15  and  O_67
REMARK    9  A    between atoms: C_16  and  O_66
REMARK   10  A    between atoms: C_17  and  C_64
REMARK   11  A    between atoms: C_19  and  O_20
REMARK   12  A    between atoms: O_20  and  C_21
REMARK   13  A    between atoms: C_22  and  O_63
REMARK   14  A    between atoms: C_23  and  O_62
REMARK   15  A    between atoms: C_24  and  C_60
REMARK   16  A    between atoms: C_26  and  O_27
REMARK   17  A    between atoms: O_27  and  C_28
REMARK   18  A    between atoms: C_29  and  C_52
REMARK   19  A    between atoms: C_33  and  O_40
REMARK   20  A    between atoms: C_35  and  O_39
REMARK   21  A    between atoms: O_40  and  C_41
REMARK   22  A    between atoms: C_42  and  O_51
REMARK   23  A    between atoms: C_43  and  O_50
REMARK   24  A    between atoms: C_44  and  O_49
REMARK   25  A    between atoms: C_45  and  C_47
REMARK   26  A    between atoms: C_47  and  O_48
REMARK   27  A    between atoms: C_54  and  O_59
REMARK   28  A    between atoms: C_55  and  O_58
REMARK   29  A    between atoms: C_60  and  O_61
REMARK   30  A    between atoms: C_64  and  O_65
REMARK                            x       y       z     vdW  Elec       q    Type
REMARK                         _______ _______ _______ _____ _____    ______ ____
ROOT
ATOM      1  C   UNL     1       3.576  -1.681  27.479  0.00  0.00    +0.221 C 
ATOM      2  C   UNL     1       4.493  -0.893  28.486  0.00  0.00    +0.340 C 
ATOM      3  O   UNL     1       4.143  -1.217  29.848  0.00  0.00    -0.331 OA
ATOM      4  C   UNL     1       2.793  -0.969  30.248  0.00  0.00    +0.179 C 
ATOM      5  C   UNL     1       1.796  -1.651  29.306  0.00  0.00    +0.177 C 
ATOM      6  C   UNL     1       2.118  -1.363  27.835  0.00  0.00    +0.180 C 
ENDROOT
BRANCH   6   7
ATOM      7  O   UNL     1       1.173  -2.041  26.998  0.00  0.00    -0.386 OA
ATOM      8  H   UNL     1       1.513  -2.938  26.824  0.00  0.00    +0.210 HD
ENDBRANCH   6   7
BRANCH   5   9
ATOM      9  O   UNL     1       0.449  -1.243  29.604  0.00  0.00    -0.386 OA
ATOM     10  H   UNL     1       0.093  -0.788  28.814  0.00  0.00    +0.210 HD
ENDBRANCH   5   9
BRANCH   4  11
ATOM     11  C   UNL     1       2.476   0.519  30.480  0.00  0.00    +0.190 C 
BRANCH  11  12
ATOM     12  O   UNL     1       1.792   1.137  29.395  0.00  0.00    -0.392 OA
ATOM     13  H   UNL     1       0.923   1.427  29.742  0.00  0.00    +0.210 HD
ENDBRANCH  11  12
ENDBRANCH   4  11
BRANCH   2  14
ATOM     14  O   UNL     1       4.528   0.538  28.261  0.00  0.00    -0.453 OA
BRANCH  14  15
ATOM     15  C   UNL     1       5.332   0.956  27.178  0.00  0.00    +0.214 A 
ATOM     16  C   UNL     1       6.509   0.133  26.744  0.00  0.00    +0.238 A 
ATOM     17  O   UNL     1       6.561  -1.070  26.972  0.00  0.00    -0.283 OA
ATOM     18  C   UNL     1       7.580   0.826  26.011  0.00  0.00    +0.109 A 
ATOM     19  C   UNL     1       7.302   2.091  25.499  0.00  0.00    +0.147 A 
ATOM     20  C   UNL     1       8.283   2.799  24.783  0.00  0.00    +0.093 A 
ATOM     21  C   UNL     1       9.532   2.218  24.579  0.00  0.00    +0.131 A 
ATOM     22  C   UNL     1       9.799   0.935  25.057  0.00  0.00    +0.092 A 
ATOM     23  O   UNL     1       6.062   2.672  25.619  0.00  0.00    -0.451 OA
ATOM     24  C   UNL     1       8.836   0.249  25.787  0.00  0.00    +0.135 A 
ATOM     25  C   UNL     1       5.142   2.139  26.531  0.00  0.00    +0.181 A 
BRANCH  25  26
ATOM     26  C   UNL     1       4.008   3.083  26.807  0.00  0.00    +0.025 A 
ATOM     27  C   UNL     1       3.094   3.451  25.799  0.00  0.00    +0.015 A 
ATOM     28  C   UNL     1       1.962   4.226  26.082  0.00  0.00    +0.050 A 
ATOM     29  C   UNL     1       1.752   4.678  27.372  0.00  0.00    +0.158 A 
ATOM     30  C   UNL     1       2.678   4.405  28.371  0.00  0.00    +0.159 A 
ATOM     31  C   UNL     1       3.800   3.616  28.101  0.00  0.00    +0.060 A 
BRANCH  30  32
ATOM     32  O   UNL     1       2.430   4.930  29.611  0.00  0.00    -0.503 OA
ATOM     33  H   UNL     1       2.353   5.896  29.530  0.00  0.00    +0.292 HD
ENDBRANCH  30  32
BRANCH  29  34
ATOM     34  O   UNL     1       0.621   5.389  27.655  0.00  0.00    -0.503 OA
ATOM     35  H   UNL     1       0.420   5.174  28.587  0.00  0.00    +0.292 HD
ENDBRANCH  29  34
ENDBRANCH  25  26
BRANCH  24  36
ATOM     36  O   UNL     1       9.149  -0.990  26.270  0.00  0.00    -0.506 OA
ATOM     37  H   UNL     1      10.094  -1.172  26.148  0.00  0.00    +0.292 HD
ENDBRANCH  24  36
BRANCH  21  38
ATOM     38  O   UNL     1      10.525   2.738  23.817  0.00  0.00    -0.461 OA
BRANCH  38  39
ATOM     39  C   UNL     1      10.809   4.134  23.848  0.00  0.00    +0.339 C 
ATOM     40  O   UNL     1      10.550   4.716  25.130  0.00  0.00    -0.331 OA
ATOM     41  C   UNL     1      10.301   6.129  25.010  0.00  0.00    +0.179 C 
ATOM     42  C   UNL     1      11.565   6.830  24.473  0.00  0.00    +0.177 C 
ATOM     43  C   UNL     1      12.060   6.155  23.178  0.00  0.00    +0.180 C 
ATOM     44  C   UNL     1      12.175   4.619  23.319  0.00  0.00    +0.214 C 
BRANCH  44  45
ATOM     45  O   UNL     1      12.478   4.020  22.053  0.00  0.00    -0.383 OA
ATOM     46  H   UNL     1      12.201   4.641  21.355  0.00  0.00    +0.210 HD
ENDBRANCH  44  45
BRANCH  43  47
ATOM     47  O   UNL     1      13.318   6.706  22.769  0.00  0.00    -0.386 OA
ATOM     48  H   UNL     1      13.352   6.626  21.793  0.00  0.00    +0.210 HD
ENDBRANCH  43  47
BRANCH  42  49
ATOM     49  O   UNL     1      12.640   6.796  25.424  0.00  0.00    -0.386 OA
ATOM     50  H   UNL     1      12.578   7.599  25.979  0.00  0.00    +0.210 HD
ENDBRANCH  42  49
BRANCH  41  51
ATOM     51  C   UNL     1       9.862   6.660  26.380  0.00  0.00    +0.190 C 
BRANCH  51  52
ATOM     52  O   UNL     1       8.720   5.962  26.879  0.00  0.00    -0.392 OA
ATOM     53  H   UNL     1       8.632   5.117  26.408  0.00  0.00    +0.210 HD
ENDBRANCH  51  52
ENDBRANCH  41  51
ENDBRANCH  38  39
ENDBRANCH  21  38
ENDBRANCH  14  15
ENDBRANCH   2  14
BRANCH   1  54
ATOM     54  O   UNL     1       3.933  -3.091  27.577  0.00  0.00    -0.336 OA
BRANCH  54  56
ATOM     55  C   UNL     1       4.713  -4.632  25.841  0.00  0.00    +0.263 C 
ATOM     56  C   UNL     1       5.107  -3.555  26.896  0.00  0.00    +0.295 C 
ATOM     57  O   UNL     1       6.158  -4.003  27.756  0.00  0.00    -0.340 OA
ATOM     58  C   UNL     1       6.023  -5.295  28.367  0.00  0.00    +0.178 C 
ATOM     59  C   UNL     1       5.643  -6.396  27.369  0.00  0.00    +0.178 C 
ATOM     60  C   UNL     1       4.434  -5.965  26.537  0.00  0.00    +0.191 C 
BRANCH  60  61
ATOM     61  O   UNL     1       4.113  -7.011  25.606  0.00  0.00    -0.385 OA
ATOM     62  H   UNL     1       4.617  -6.853  24.787  0.00  0.00    +0.210 HD
ENDBRANCH  60  61
BRANCH  59  63
ATOM     63  O   UNL     1       5.384  -7.626  28.052  0.00  0.00    -0.386 OA
ATOM     64  H   UNL     1       5.517  -8.351  27.410  0.00  0.00    +0.210 HD
ENDBRANCH  59  63
BRANCH  58  65
ATOM     65  C   UNL     1       5.102  -5.271  29.602  0.00  0.00    +0.190 C 
BRANCH  65  66
ATOM     66  O   UNL     1       4.174  -4.186  29.545  0.00  0.00    -0.392 OA
ATOM     67  H   UNL     1       3.662  -4.189  30.372  0.00  0.00    +0.210 HD
ENDBRANCH  65  66
ENDBRANCH  58  65
BRANCH  55  68
ATOM     68  O   UNL     1       5.812  -4.840  24.884  0.00  0.00    -0.450 OA
BRANCH  68  69
ATOM     69  C   UNL     1       5.503  -4.650  23.583  0.00  0.00    +0.332 C 
ATOM     70  O   UNL     1       4.607  -5.207  22.966  0.00  0.00    -0.246 OA
BRANCH  69  72
ATOM     71  C   UNL     1       6.153  -2.332  23.155  0.00  0.00    +0.015 C 
ATOM     72  C   UNL     1       6.416  -3.641  22.973  0.00  0.00    +0.092 C 
BRANCH  71  75
ATOM     73  C   UNL     1       7.328   1.085  22.062  0.00  0.00    +0.162 A 
ATOM     74  C   UNL     1       6.547   0.082  22.646  0.00  0.00    +0.057 A 
ATOM     75  C   UNL     1       7.051  -1.218  22.806  0.00  0.00    -0.021 A 
ATOM     76  C   UNL     1       8.385  -1.470  22.446  0.00  0.00    +0.012 A 
ATOM     77  C   UNL     1       9.188  -0.461  21.917  0.00  0.00    +0.050 A 
ATOM     78  C   UNL     1       8.653   0.798  21.706  0.00  0.00    +0.158 A 
BRANCH  78  79
ATOM     79  O   UNL     1       9.423   1.741  21.089  0.00  0.00    -0.503 OA
ATOM     80  H   UNL     1       9.370   2.537  21.653  0.00  0.00    +0.292 HD
ENDBRANCH  78  79
BRANCH  73  82
ATOM     81  C   UNL     1       5.579   2.656  22.263  0.00  0.00    +0.277 C 
ATOM     82  O   UNL     1       6.883   2.353  21.771  0.00  0.00    -0.491 OA
ENDBRANCH  73  82
ENDBRANCH  71  75
ENDBRANCH  69  72
ENDBRANCH  68  69
ENDBRANCH  55  68
ENDBRANCH  54  56
ENDBRANCH   1  54
TORSDOF 29
ENDMDL
MODEL 9
REMARK VINA RESULT:      -3.5      2.624      9.430
REMARK  Name = 
REMARK  30 active torsions:
REMARK  status: ('A' for Active; 'I' for Inactive)
REMARK    1  A    between atoms: C_1  and  O_2
REMARK    2  A    between atoms: O_2  and  C_3
REMARK    3  A    between atoms: C_4  and  O_68
REMARK    4  A    between atoms: C_7  and  C_9
REMARK    5  A    between atoms: C_10  and  C_11
REMARK    6  A    between atoms: C_11  and  O_13
REMARK    7  A    between atoms: O_13  and  C_14
REMARK    8  A    between atoms: C_15  and  O_67
REMARK    9  A    between atoms: C_16  and  O_66
REMARK   10  A    between atoms: C_17  and  C_64
REMARK   11  A    between atoms: C_19  and  O_20
REMARK   12  A    between atoms: O_20  and  C_21
REMARK   13  A    between atoms: C_22  and  O_63
REMARK   14  A    between atoms: C_23  and  O_62
REMARK   15  A    between atoms: C_24  and  C_60
REMARK   16  A    between atoms: C_26  and  O_27
REMARK   17  A    between atoms: O_27  and  C_28
REMARK   18  A    between atoms: C_29  and  C_52
REMARK   19  A    between atoms: C_33  and  O_40
REMARK   20  A    between atoms: C_35  and  O_39
REMARK   21  A    between atoms: O_40  and  C_41
REMARK   22  A    between atoms: C_42  and  O_51
REMARK   23  A    between atoms: C_43  and  O_50
REMARK   24  A    between atoms: C_44  and  O_49
REMARK   25  A    between atoms: C_45  and  C_47
REMARK   26  A    between atoms: C_47  and  O_48
REMARK   27  A    between atoms: C_54  and  O_59
REMARK   28  A    between atoms: C_55  and  O_58
REMARK   29  A    between atoms: C_60  and  O_61
REMARK   30  A    between atoms: C_64  and  O_65
REMARK                            x       y       z     vdW  Elec       q    Type
REMARK                         _______ _______ _______ _____ _____    ______ ____
ROOT
ATOM      1  C   UNL     1       5.288   2.714  23.493  0.00  0.00    +0.221 C 
ATOM      2  C   UNL     1       5.623   2.519  25.017  0.00  0.00    +0.340 C 
ATOM      3  O   UNL     1       6.229   3.712  25.558  0.00  0.00    -0.331 OA
ATOM      4  C   UNL     1       7.430   4.171  24.932  0.00  0.00    +0.179 C 
ATOM      5  C   UNL     1       7.242   4.352  23.422  0.00  0.00    +0.177 C 
ATOM      6  C   UNL     1       6.584   3.124  22.783  0.00  0.00    +0.180 C 
ENDROOT
BRANCH   6   7
ATOM      7  O   UNL     1       6.408   3.354  21.378  0.00  0.00    -0.386 OA
ATOM      8  H   UNL     1       6.986   2.737  20.896  0.00  0.00    +0.210 HD
ENDBRANCH   6   7
BRANCH   5   9
ATOM      9  O   UNL     1       8.498   4.629  22.780  0.00  0.00    -0.386 OA
ATOM     10  H   UNL     1       8.485   4.199  21.901  0.00  0.00    +0.210 HD
ENDBRANCH   5   9
BRANCH   4  11
ATOM     11  C   UNL     1       8.673   3.334  25.283  0.00  0.00    +0.190 C 
BRANCH  11  12
ATOM     12  O   UNL     1       9.100   2.470  24.235  0.00  0.00    -0.392 OA
ATOM     13  H   UNL     1       9.277   3.040  23.459  0.00  0.00    +0.210 HD
ENDBRANCH  11  12
ENDBRANCH   4  11
BRANCH   2  14
ATOM     14  O   UNL     1       6.406   1.335  25.307  0.00  0.00    -0.453 OA
BRANCH  14  15
ATOM     15  C   UNL     1       5.666   0.137  25.413  0.00  0.00    +0.214 A 
ATOM     16  C   UNL     1       4.365   0.112  26.160  0.00  0.00    +0.238 A 
ATOM     17  O   UNL     1       3.697   1.128  26.307  0.00  0.00    -0.283 OA
ATOM     18  C   UNL     1       3.916  -1.188  26.684  0.00  0.00    +0.109 A 
ATOM     19  C   UNL     1       4.540  -2.335  26.196  0.00  0.00    +0.147 A 
ATOM     20  C   UNL     1       4.149  -3.605  26.653  0.00  0.00    +0.093 A 
ATOM     21  C   UNL     1       3.122  -3.708  27.589  0.00  0.00    +0.131 A 
ATOM     22  C   UNL     1       2.471  -2.564  28.048  0.00  0.00    +0.092 A 
ATOM     23  O   UNL     1       5.509  -2.281  25.223  0.00  0.00    -0.451 OA
ATOM     24  C   UNL     1       2.877  -1.308  27.615  0.00  0.00    +0.135 A 
ATOM     25  C   UNL     1       6.113  -1.053  24.925  0.00  0.00    +0.181 A 
BRANCH  25  26
ATOM     26  C   UNL     1       7.376  -1.222  24.131  0.00  0.00    +0.025 A 
ATOM     27  C   UNL     1       8.146  -2.399  24.213  0.00  0.00    +0.015 A 
ATOM     28  C   UNL     1       9.251  -2.614  23.379  0.00  0.00    +0.050 A 
ATOM     29  C   UNL     1       9.624  -1.634  22.479  0.00  0.00    +0.158 A 
ATOM     30  C   UNL     1       8.939  -0.426  22.431  0.00  0.00    +0.159 A 
ATOM     31  C   UNL     1       7.823  -0.212  23.247  0.00  0.00    +0.060 A 
BRANCH  30  32
ATOM     32  O   UNL     1       9.398   0.517  21.551  0.00  0.00    -0.503 OA
ATOM     33  H   UNL     1       9.998   0.086  20.919  0.00  0.00    +0.292 HD
ENDBRANCH  30  32
BRANCH  29  34
ATOM     34  O   UNL     1      10.669  -1.867  21.631  0.00  0.00    -0.503 OA
ATOM     35  H   UNL     1      11.461  -1.580  22.127  0.00  0.00    +0.292 HD
ENDBRANCH  29  34
ENDBRANCH  25  26
BRANCH  24  36
ATOM     36  O   UNL     1       2.239  -0.210  28.117  0.00  0.00    -0.506 OA
ATOM     37  H   UNL     1       1.331  -0.161  27.779  0.00  0.00    +0.292 HD
ENDBRANCH  24  36
BRANCH  21  38
ATOM     38  O   UNL     1       2.574  -4.867  28.028  0.00  0.00    -0.461 OA
BRANCH  38  39
ATOM     39  C   UNL     1       2.130  -5.856  27.103  0.00  0.00    +0.339 C 
ATOM     40  O   UNL     1       2.862  -5.822  25.873  0.00  0.00    -0.331 OA
ATOM     41  C   UNL     1       2.087  -6.392  24.801  0.00  0.00    +0.179 C 
ATOM     42  C   UNL     1       1.820  -7.881  25.095  0.00  0.00    +0.177 C 
ATOM     43  C   UNL     1       1.203  -8.064  26.497  0.00  0.00    +0.180 C 
ATOM     44  C   UNL     1       1.997  -7.314  27.593  0.00  0.00    +0.214 C 
BRANCH  44  45
ATOM     45  O   UNL     1       1.301  -7.373  28.845  0.00  0.00    -0.383 OA
ATOM     46  H   UNL     1       0.405  -7.017  28.706  0.00  0.00    +0.210 HD
ENDBRANCH  44  45
BRANCH  43  47
ATOM     47  O   UNL     1       1.101  -9.454  26.828  0.00  0.00    -0.386 OA
ATOM     48  H   UNL     1       0.259  -9.771  26.441  0.00  0.00    +0.210 HD
ENDBRANCH  43  47
BRANCH  42  49
ATOM     49  O   UNL     1       3.023  -8.661  25.040  0.00  0.00    -0.386 OA
ATOM     50  H   UNL     1       3.208  -8.867  24.102  0.00  0.00    +0.210 HD
ENDBRANCH  42  49
BRANCH  41  51
ATOM     51  C   UNL     1       2.846  -6.171  23.487  0.00  0.00    +0.190 C 
BRANCH  51  52
ATOM     52  O   UNL     1       2.485  -7.135  22.496  0.00  0.00    -0.392 OA
ATOM     53  H   UNL     1       3.289  -7.570  22.167  0.00  0.00    +0.210 HD
ENDBRANCH  51  52
ENDBRANCH  41  51
ENDBRANCH  38  39
ENDBRANCH  21  38
ENDBRANCH  14  15
ENDBRANCH   2  14
BRANCH   1  54
ATOM     54  O   UNL     1       4.209   3.691  23.405  0.00  0.00    -0.336 OA
BRANCH  54  56
ATOM     55  C   UNL     1       3.539   5.530  24.878  0.00  0.00    +0.263 C 
ATOM     56  C   UNL     1       4.488   5.059  23.734  0.00  0.00    +0.295 C 
ATOM     57  O   UNL     1       4.475   5.956  22.620  0.00  0.00    -0.340 OA
ATOM     58  C   UNL     1       3.202   6.361  22.097  0.00  0.00    +0.178 C 
ATOM     59  C   UNL     1       2.230   6.842  23.181  0.00  0.00    +0.178 C 
ATOM     60  C   UNL     1       2.146   5.815  24.313  0.00  0.00    +0.191 C 
BRANCH  60  61
ATOM     61  O   UNL     1       1.240   6.302  25.316  0.00  0.00    -0.385 OA
ATOM     62  H   UNL     1       1.398   7.256  25.431  0.00  0.00    +0.210 HD
ENDBRANCH  60  61
BRANCH  59  63
ATOM     63  O   UNL     1       0.937   7.094  22.622  0.00  0.00    -0.386 OA
ATOM     64  H   UNL     1       0.539   6.228  22.402  0.00  0.00    +0.210 HD
ENDBRANCH  59  63
BRANCH  58  65
ATOM     65  C   UNL     1       2.579   5.296  21.172  0.00  0.00    +0.190 C 
BRANCH  65  66
ATOM     66  O   UNL     1       1.999   5.885  20.007  0.00  0.00    -0.392 OA
ATOM     67  H   UNL     1       2.712   6.032  19.362  0.00  0.00    +0.210 HD
ENDBRANCH  65  66
ENDBRANCH  58  65
BRANCH  55  68
ATOM     68  O   UNL     1       4.046   6.770  25.488  0.00  0.00    -0.450 OA
BRANCH  68  69
ATOM     69  C   UNL     1       5.003   6.613  26.429  0.00  0.00    +0.332 C 
ATOM     70  O   UNL     1       6.121   7.108  26.411  0.00  0.00    -0.246 OA
BRANCH  69  72
ATOM     71  C   UNL     1       3.179   5.593  27.700  0.00  0.00    +0.015 C 
ATOM     72  C   UNL     1       4.509   5.741  27.533  0.00  0.00    +0.092 C 
BRANCH  71  75
ATOM     73  C   UNL     1       2.648   2.543  29.859  0.00  0.00    +0.162 A 
ATOM     74  C   UNL     1       3.279   3.620  29.229  0.00  0.00    +0.057 A 
ATOM     75  C   UNL     1       2.528   4.621  28.593  0.00  0.00    -0.021 A 
ATOM     76  C   UNL     1       1.127   4.563  28.676  0.00  0.00    +0.012 A 
ATOM     77  C   UNL     1       0.490   3.523  29.351  0.00  0.00    +0.050 A 
ATOM     78  C   UNL     1       1.247   2.511  29.916  0.00  0.00    +0.158 A 
BRANCH  78  79
ATOM     79  O   UNL     1       0.602   1.448  30.479  0.00  0.00    -0.503 OA
ATOM     80  H   UNL     1       0.220   0.945  29.735  0.00  0.00    +0.292 HD
ENDBRANCH  78  79
BRANCH  73  82
ATOM     81  C   UNL     1       4.715   1.467  30.224  0.00  0.00    +0.277 C 
ATOM     82  O   UNL     1       3.301   1.468  30.414  0.00  0.00    -0.491 OA
ENDBRANCH  73  82
ENDBRANCH  71  75
ENDBRANCH  69  72
ENDBRANCH  68  69
ENDBRANCH  55  68
ENDBRANCH  54  56
ENDBRANCH   1  54
TORSDOF 29
ENDMDL
