MODEL 1
REMARK VINA RESULT:      -7.9      0.000      0.000
REMARK  Name = 
REMARK  10 active torsions:
REMARK  status: ('A' for Active; 'I' for Inactive)
REMARK    1  A    between atoms: C_2  and  O_33
REMARK    2  A    between atoms: C_4  and  O_32
REMARK    3  A    between atoms: C_5  and  O_31
REMARK    4  A    between atoms: C_6  and  O_9
REMARK    5  A    between atoms: O_9  and  C_10
REMARK    6  A    between atoms: C_11  and  O_30
REMARK    7  A    between atoms: C_14  and  C_16
REMARK    8  A    between atoms: C_17  and  O_29
REMARK    9  A    between atoms: C_21  and  O_28
REMARK   10  A    between atoms: C_23  and  O_27
REMARK                            x       y       z     vdW  Elec       q    Type
REMARK                         _______ _______ _______ _____ _____    ______ ____
ROOT
ATOM      1  C   UNL     1       9.128  -0.347  24.810  0.00  0.00    +0.166 A 
ATOM      2  C   UNL     1       8.399  -1.472  25.209  0.00  0.00    +0.061 A 
ATOM      3  C   UNL     1       8.613  -2.733  24.638  0.00  0.00    +0.025 A 
ATOM      4  C   UNL     1       9.579  -2.878  23.637  0.00  0.00    +0.015 A 
ATOM      5  C   UNL     1      10.322  -1.769  23.234  0.00  0.00    +0.050 A 
ATOM      6  C   UNL     1      10.097  -0.518  23.817  0.00  0.00    +0.159 A 
ENDROOT
BRANCH   3   7
ATOM      7  C   UNL     1       7.818  -3.860  25.138  0.00  0.00    +0.181 A 
ATOM      8  O   UNL     1       6.757  -4.187  24.310  0.00  0.00    -0.451 OA
ATOM      9  C   UNL     1       5.886  -5.163  24.722  0.00  0.00    +0.147 A 
ATOM     10  C   UNL     1       5.984  -5.789  25.961  0.00  0.00    +0.109 A 
ATOM     11  C   UNL     1       5.053  -6.769  26.326  0.00  0.00    +0.135 A 
ATOM     12  C   UNL     1       4.038  -7.137  25.448  0.00  0.00    +0.091 A 
ATOM     13  C   UNL     1       3.956  -6.511  24.206  0.00  0.00    +0.124 A 
ATOM     14  C   UNL     1       7.084  -5.409  26.855  0.00  0.00    +0.238 A 
ATOM     15  O   UNL     1       7.167  -5.916  27.970  0.00  0.00    -0.283 OA
ATOM     16  C   UNL     1       4.866  -5.521  23.839  0.00  0.00    +0.092 A 
ATOM     17  C   UNL     1       8.056  -4.404  26.346  0.00  0.00    +0.208 A 
BRANCH  11  18
ATOM     18  O   UNL     1       5.082  -7.413  27.534  0.00  0.00    -0.506 OA
ATOM     19  H   UNL     1       6.007  -7.710  27.702  0.00  0.00    +0.292 HD
ENDBRANCH  11  18
BRANCH  13  20
ATOM     20  O   UNL     1       2.985  -6.846  23.310  0.00  0.00    -0.507 OA
ATOM     21  H   UNL     1       3.395  -7.321  22.566  0.00  0.00    +0.292 HD
ENDBRANCH  13  20
BRANCH  17  22
ATOM     22  O   UNL     1       9.113  -4.063  27.170  0.00  0.00    -0.501 OA
ATOM     23  H   UNL     1       9.301  -3.113  27.072  0.00  0.00    +0.292 HD
ENDBRANCH  17  22
ENDBRANCH   3   7
BRANCH   6  24
ATOM     24  O   UNL     1      10.859   0.525  23.379  0.00  0.00    -0.503 OA
ATOM     25  H   UNL     1      11.259   0.924  24.173  0.00  0.00    +0.292 HD
ENDBRANCH   6  24
BRANCH   1  26
ATOM     26  O   UNL     1       8.959   0.928  25.318  0.00  0.00    -0.457 OA
BRANCH  26  29
ATOM     27  C   UNL     1       6.791   1.903  22.579  0.00  0.00    +0.198 C 
ATOM     28  O   UNL     1       7.847   1.230  23.259  0.00  0.00    -0.337 OA
ATOM     29  C   UNL     1       8.047   1.761  24.580  0.00  0.00    +0.339 C 
ATOM     30  C   UNL     1       8.592   3.196  24.418  0.00  0.00    +0.214 C 
ATOM     31  C   UNL     1       7.543   4.039  23.660  0.00  0.00    +0.180 C 
ATOM     32  C   UNL     1       7.148   3.366  22.328  0.00  0.00    +0.171 C 
BRANCH  30  33
ATOM     33  O   UNL     1       9.814   3.218  23.648  0.00  0.00    -0.383 OA
ATOM     34  H   UNL     1      10.004   2.292  23.394  0.00  0.00    +0.210 HD
ENDBRANCH  30  33
BRANCH  31  35
ATOM     35  O   UNL     1       8.074   5.349  23.417  0.00  0.00    -0.386 OA
ATOM     36  H   UNL     1       8.206   5.412  22.453  0.00  0.00    +0.210 HD
ENDBRANCH  31  35
BRANCH  32  37
ATOM     37  O   UNL     1       6.026   4.023  21.739  0.00  0.00    -0.387 OA
ATOM     38  H   UNL     1       5.986   4.923  22.107  0.00  0.00    +0.210 HD
ENDBRANCH  32  37
ENDBRANCH  26  29
ENDBRANCH   1  26
TORSDOF 10
ENDMDL
MODEL 2
REMARK VINA RESULT:      -7.6      1.908      2.232
REMARK  Name = 
REMARK  10 active torsions:
REMARK  status: ('A' for Active; 'I' for Inactive)
REMARK    1  A    between atoms: C_2  and  O_33
REMARK    2  A    between atoms: C_4  and  O_32
REMARK    3  A    between atoms: C_5  and  O_31
REMARK    4  A    between atoms: C_6  and  O_9
REMARK    5  A    between atoms: O_9  and  C_10
REMARK    6  A    between atoms: C_11  and  O_30
REMARK    7  A    between atoms: C_14  and  C_16
REMARK    8  A    between atoms: C_17  and  O_29
REMARK    9  A    between atoms: C_21  and  O_28
REMARK   10  A    between atoms: C_23  and  O_27
REMARK                            x       y       z     vdW  Elec       q    Type
REMARK                         _______ _______ _______ _____ _____    ______ ____
ROOT
ATOM      1  C   UNL     1       9.324   1.158  23.514  0.00  0.00    +0.166 A 
ATOM      2  C   UNL     1       8.696  -0.001  23.982  0.00  0.00    +0.061 A 
ATOM      3  C   UNL     1       8.598  -1.158  23.199  0.00  0.00    +0.025 A 
ATOM      4  C   UNL     1       9.138  -1.161  21.908  0.00  0.00    +0.015 A 
ATOM      5  C   UNL     1       9.776  -0.017  21.428  0.00  0.00    +0.050 A 
ATOM      6  C   UNL     1       9.867   1.128  22.226  0.00  0.00    +0.159 A 
ENDROOT
BRANCH   3   7
ATOM      7  C   UNL     1       7.943  -2.333  23.784  0.00  0.00    +0.181 A 
ATOM      8  O   UNL     1       6.568  -2.202  23.870  0.00  0.00    -0.451 OA
ATOM      9  C   UNL     1       5.856  -3.199  24.488  0.00  0.00    +0.147 A 
ATOM     10  C   UNL     1       6.462  -4.299  25.088  0.00  0.00    +0.109 A 
ATOM     11  C   UNL     1       5.678  -5.274  25.715  0.00  0.00    +0.135 A 
ATOM     12  C   UNL     1       4.291  -5.163  25.726  0.00  0.00    +0.091 A 
ATOM     13  C   UNL     1       3.695  -4.064  25.112  0.00  0.00    +0.124 A 
ATOM     14  C   UNL     1       7.924  -4.412  25.034  0.00  0.00    +0.238 A 
ATOM     15  O   UNL     1       8.485  -5.351  25.593  0.00  0.00    -0.283 OA
ATOM     16  C   UNL     1       4.466  -3.076  24.501  0.00  0.00    +0.092 A 
ATOM     17  C   UNL     1       8.659  -3.355  24.288  0.00  0.00    +0.208 A 
BRANCH  11  18
ATOM     18  O   UNL     1       6.209  -6.373  26.338  0.00  0.00    -0.506 OA
ATOM     19  H   UNL     1       5.466  -6.926  26.673  0.00  0.00    +0.292 HD
ENDBRANCH  11  18
BRANCH  13  20
ATOM     20  O   UNL     1       2.340  -3.918  25.088  0.00  0.00    -0.507 OA
ATOM     21  H   UNL     1       2.014  -3.859  26.003  0.00  0.00    +0.292 HD
ENDBRANCH  13  20
BRANCH  17  22
ATOM     22  O   UNL     1      10.035  -3.470  24.205  0.00  0.00    -0.501 OA
ATOM     23  H   UNL     1      10.287  -4.399  24.346  0.00  0.00    +0.292 HD
ENDBRANCH  17  22
ENDBRANCH   3   7
BRANCH   6  24
ATOM     24  O   UNL     1      10.506   2.212  21.699  0.00  0.00    -0.503 OA
ATOM     25  H   UNL     1      11.292   1.868  21.236  0.00  0.00    +0.292 HD
ENDBRANCH   6  24
BRANCH   1  26
ATOM     26  O   UNL     1       9.443   2.337  24.226  0.00  0.00    -0.457 OA
BRANCH  26  29
ATOM     27  C   UNL     1       6.872   4.005  22.285  0.00  0.00    +0.198 C 
ATOM     28  O   UNL     1       7.993   3.170  22.560  0.00  0.00    -0.337 OA
ATOM     29  C   UNL     1       8.461   3.341  23.909  0.00  0.00    +0.339 C 
ATOM     30  C   UNL     1       9.050   4.764  24.012  0.00  0.00    +0.214 C 
ATOM     31  C   UNL     1       7.931   5.783  23.705  0.00  0.00    +0.180 C 
ATOM     32  C   UNL     1       7.261   5.480  22.346  0.00  0.00    +0.171 C 
BRANCH  30  33
ATOM     33  O   UNL     1      10.110   4.974  23.053  0.00  0.00    -0.383 OA
ATOM     34  H   UNL     1       9.955   4.345  22.320  0.00  0.00    +0.210 HD
ENDBRANCH  30  33
BRANCH  31  35
ATOM     35  O   UNL     1       8.483   7.107  23.702  0.00  0.00    -0.386 OA
ATOM     36  H   UNL     1       9.074   7.154  24.476  0.00  0.00    +0.210 HD
ENDBRANCH  31  35
BRANCH  32  37
ATOM     37  O   UNL     1       6.091   6.277  22.167  0.00  0.00    -0.387 OA
ATOM     38  H   UNL     1       6.375   7.147  21.837  0.00  0.00    +0.210 HD
ENDBRANCH  32  37
ENDBRANCH  26  29
ENDBRANCH   1  26
TORSDOF 10
ENDMDL
MODEL 3
REMARK VINA RESULT:      -7.5      1.788      3.056
REMARK  Name = 
REMARK  10 active torsions:
REMARK  status: ('A' for Active; 'I' for Inactive)
REMARK    1  A    between atoms: C_2  and  O_33
REMARK    2  A    between atoms: C_4  and  O_32
REMARK    3  A    between atoms: C_5  and  O_31
REMARK    4  A    between atoms: C_6  and  O_9
REMARK    5  A    between atoms: O_9  and  C_10
REMARK    6  A    between atoms: C_11  and  O_30
REMARK    7  A    between atoms: C_14  and  C_16
REMARK    8  A    between atoms: C_17  and  O_29
REMARK    9  A    between atoms: C_21  and  O_28
REMARK   10  A    between atoms: C_23  and  O_27
REMARK                            x       y       z     vdW  Elec       q    Type
REMARK                         _______ _______ _______ _____ _____    ______ ____
ROOT
ATOM      1  C   UNL     1       8.915   0.976  23.517  0.00  0.00    +0.166 A 
ATOM      2  C   UNL     1       8.116  -0.111  23.884  0.00  0.00    +0.061 A 
ATOM      3  C   UNL     1       7.995  -1.248  23.077  0.00  0.00    +0.025 A 
ATOM      4  C   UNL     1       8.690  -1.305  21.864  0.00  0.00    +0.015 A 
ATOM      5  C   UNL     1       9.499  -0.234  21.485  0.00  0.00    +0.050 A 
ATOM      6  C   UNL     1       9.609   0.892  22.306  0.00  0.00    +0.159 A 
ENDROOT
BRANCH   3   7
ATOM      7  C   UNL     1       7.153  -2.350  23.557  0.00  0.00    +0.181 A 
ATOM      8  O   UNL     1       7.606  -2.903  24.742  0.00  0.00    -0.451 OA
ATOM      9  C   UNL     1       6.954  -4.002  25.239  0.00  0.00    +0.147 A 
ATOM     10  C   UNL     1       5.902  -4.623  24.570  0.00  0.00    +0.109 A 
ATOM     11  C   UNL     1       5.288  -5.752  25.126  0.00  0.00    +0.135 A 
ATOM     12  C   UNL     1       5.709  -6.248  26.356  0.00  0.00    +0.091 A 
ATOM     13  C   UNL     1       6.754  -5.612  27.022  0.00  0.00    +0.124 A 
ATOM     14  C   UNL     1       5.453  -4.060  23.291  0.00  0.00    +0.238 A 
ATOM     15  O   UNL     1       4.557  -4.614  22.662  0.00  0.00    -0.283 OA
ATOM     16  C   UNL     1       7.386  -4.499  26.470  0.00  0.00    +0.092 A 
ATOM     17  C   UNL     1       6.130  -2.822  22.820  0.00  0.00    +0.208 A 
BRANCH  11  18
ATOM     18  O   UNL     1       4.260  -6.419  24.515  0.00  0.00    -0.506 OA
ATOM     19  H   UNL     1       3.432  -5.904  24.656  0.00  0.00    +0.292 HD
ENDBRANCH  11  18
BRANCH  13  20
ATOM     20  O   UNL     1       7.193  -6.056  28.233  0.00  0.00    -0.507 OA
ATOM     21  H   UNL     1       6.565  -5.769  28.919  0.00  0.00    +0.292 HD
ENDBRANCH  13  20
BRANCH  17  22
ATOM     22  O   UNL     1       5.693  -2.267  21.631  0.00  0.00    -0.501 OA
ATOM     23  H   UNL     1       4.726  -2.167  21.661  0.00  0.00    +0.292 HD
ENDBRANCH  17  22
ENDBRANCH   3   7
BRANCH   6  24
ATOM     24  O   UNL     1      10.419   1.904  21.880  0.00  0.00    -0.503 OA
ATOM     25  H   UNL     1      11.306   1.515  21.767  0.00  0.00    +0.292 HD
ENDBRANCH   6  24
BRANCH   1  26
ATOM     26  O   UNL     1       9.067   2.134  24.257  0.00  0.00    -0.457 OA
BRANCH  26  29
ATOM     27  C   UNL     1       6.670   3.951  22.230  0.00  0.00    +0.198 C 
ATOM     28  O   UNL     1       7.708   3.028  22.547  0.00  0.00    -0.337 OA
ATOM     29  C   UNL     1       8.184   3.210  23.892  0.00  0.00    +0.339 C 
ATOM     30  C   UNL     1       8.900   4.576  23.943  0.00  0.00    +0.214 C 
ATOM     31  C   UNL     1       7.881   5.680  23.585  0.00  0.00    +0.180 C 
ATOM     32  C   UNL     1       7.193   5.385  22.235  0.00  0.00    +0.171 C 
BRANCH  30  33
ATOM     33  O   UNL     1       9.980   4.648  22.985  0.00  0.00    -0.383 OA
ATOM     34  H   UNL     1      10.803   4.439  23.472  0.00  0.00    +0.210 HD
ENDBRANCH  30  33
BRANCH  31  35
ATOM     35  O   UNL     1       8.553   6.946  23.534  0.00  0.00    -0.386 OA
ATOM     36  H   UNL     1       7.935   7.595  23.918  0.00  0.00    +0.210 HD
ENDBRANCH  31  35
BRANCH  32  37
ATOM     37  O   UNL     1       6.102   6.278  22.014  0.00  0.00    -0.387 OA
ATOM     38  H   UNL     1       5.477   5.836  21.413  0.00  0.00    +0.210 HD
ENDBRANCH  32  37
ENDBRANCH  26  29
ENDBRANCH   1  26
TORSDOF 10
ENDMDL
MODEL 4
REMARK VINA RESULT:      -7.5      1.617      2.219
REMARK  Name = 
REMARK  10 active torsions:
REMARK  status: ('A' for Active; 'I' for Inactive)
REMARK    1  A    between atoms: C_2  and  O_33
REMARK    2  A    between atoms: C_4  and  O_32
REMARK    3  A    between atoms: C_5  and  O_31
REMARK    4  A    between atoms: C_6  and  O_9
REMARK    5  A    between atoms: O_9  and  C_10
REMARK    6  A    between atoms: C_11  and  O_30
REMARK    7  A    between atoms: C_14  and  C_16
REMARK    8  A    between atoms: C_17  and  O_29
REMARK    9  A    between atoms: C_21  and  O_28
REMARK   10  A    between atoms: C_23  and  O_27
REMARK                            x       y       z     vdW  Elec       q    Type
REMARK                         _______ _______ _______ _____ _____    ______ ____
ROOT
ATOM      1  C   UNL     1       7.799   0.528  22.742  0.00  0.00    +0.166 A 
ATOM      2  C   UNL     1       7.391  -0.610  23.445  0.00  0.00    +0.061 A 
ATOM      3  C   UNL     1       8.004  -1.855  23.260  0.00  0.00    +0.025 A 
ATOM      4  C   UNL     1       9.055  -1.973  22.344  0.00  0.00    +0.015 A 
ATOM      5  C   UNL     1       9.482  -0.847  21.640  0.00  0.00    +0.050 A 
ATOM      6  C   UNL     1       8.859   0.389  21.841  0.00  0.00    +0.159 A 
ENDROOT
BRANCH   3   7
ATOM      7  C   UNL     1       7.524  -2.986  24.061  0.00  0.00    +0.181 A 
ATOM      8  O   UNL     1       6.529  -3.714  23.432  0.00  0.00    -0.451 OA
ATOM      9  C   UNL     1       5.934  -4.739  24.123  0.00  0.00    +0.147 A 
ATOM     10  C   UNL     1       6.242  -5.034  25.448  0.00  0.00    +0.109 A 
ATOM     11  C   UNL     1       5.588  -6.085  26.101  0.00  0.00    +0.135 A 
ATOM     12  C   UNL     1       4.644  -6.854  25.427  0.00  0.00    +0.091 A 
ATOM     13  C   UNL     1       4.352  -6.557  24.098  0.00  0.00    +0.124 A 
ATOM     14  C   UNL     1       7.266  -4.231  26.128  0.00  0.00    +0.238 A 
ATOM     15  O   UNL     1       7.524  -4.444  27.309  0.00  0.00    -0.283 OA
ATOM     16  C   UNL     1       4.983  -5.501  23.443  0.00  0.00    +0.092 A 
ATOM     17  C   UNL     1       7.946  -3.179  25.325  0.00  0.00    +0.208 A 
BRANCH  11  18
ATOM     18  O   UNL     1       5.830  -6.419  27.407  0.00  0.00    -0.506 OA
ATOM     19  H   UNL     1       5.025  -6.205  27.934  0.00  0.00    +0.292 HD
ENDBRANCH  11  18
BRANCH  13  20
ATOM     20  O   UNL     1       3.443  -7.289  23.394  0.00  0.00    -0.507 OA
ATOM     21  H   UNL     1       2.805  -6.682  22.980  0.00  0.00    +0.292 HD
ENDBRANCH  13  20
BRANCH  17  22
ATOM     22  O   UNL     1       8.934  -2.439  25.948  0.00  0.00    -0.501 OA
ATOM     23  H   UNL     1       8.522  -1.807  26.561  0.00  0.00    +0.292 HD
ENDBRANCH  17  22
ENDBRANCH   3   7
BRANCH   6  24
ATOM     24  O   UNL     1       9.325   1.452  21.123  0.00  0.00    -0.503 OA
ATOM     25  H   UNL     1       9.137   2.246  21.656  0.00  0.00    +0.292 HD
ENDBRANCH   6  24
BRANCH   1  26
ATOM     26  O   UNL     1       7.230   1.782  22.864  0.00  0.00    -0.457 OA
BRANCH  26  29
ATOM     27  C   UNL     1       7.625   3.986  25.717  0.00  0.00    +0.198 C 
ATOM     28  O   UNL     1       6.966   3.269  24.677  0.00  0.00    -0.337 OA
ATOM     29  C   UNL     1       7.908   2.673  23.768  0.00  0.00    +0.339 C 
ATOM     30  C   UNL     1       8.606   3.824  23.013  0.00  0.00    +0.214 C 
ATOM     31  C   UNL     1       9.346   4.708  24.041  0.00  0.00    +0.180 C 
ATOM     32  C   UNL     1       8.390   5.182  25.157  0.00  0.00    +0.171 C 
BRANCH  30  33
ATOM     33  O   UNL     1       7.656   4.661  22.318  0.00  0.00    -0.383 OA
ATOM     34  H   UNL     1       6.831   4.141  22.235  0.00  0.00    +0.210 HD
ENDBRANCH  30  33
BRANCH  31  35
ATOM     35  O   UNL     1       9.922   5.837  23.368  0.00  0.00    -0.386 OA
ATOM     36  H   UNL     1       9.762   6.606  23.946  0.00  0.00    +0.210 HD
ENDBRANCH  31  35
BRANCH  32  37
ATOM     37  O   UNL     1       9.115   5.807  26.216  0.00  0.00    -0.387 OA
ATOM     38  H   UNL     1       9.911   6.211  25.830  0.00  0.00    +0.210 HD
ENDBRANCH  32  37
ENDBRANCH  26  29
ENDBRANCH   1  26
TORSDOF 10
ENDMDL
MODEL 5
REMARK VINA RESULT:      -7.5      2.386      9.266
REMARK  Name = 
REMARK  10 active torsions:
REMARK  status: ('A' for Active; 'I' for Inactive)
REMARK    1  A    between atoms: C_2  and  O_33
REMARK    2  A    between atoms: C_4  and  O_32
REMARK    3  A    between atoms: C_5  and  O_31
REMARK    4  A    between atoms: C_6  and  O_9
REMARK    5  A    between atoms: O_9  and  C_10
REMARK    6  A    between atoms: C_11  and  O_30
REMARK    7  A    between atoms: C_14  and  C_16
REMARK    8  A    between atoms: C_17  and  O_29
REMARK    9  A    between atoms: C_21  and  O_28
REMARK   10  A    between atoms: C_23  and  O_27
REMARK                            x       y       z     vdW  Elec       q    Type
REMARK                         _______ _______ _______ _____ _____    ______ ____
ROOT
ATOM      1  C   UNL     1       8.790  -1.883  23.620  0.00  0.00    +0.166 A 
ATOM      2  C   UNL     1       8.918  -0.502  23.443  0.00  0.00    +0.061 A 
ATOM      3  C   UNL     1       9.075   0.372  24.525  0.00  0.00    +0.025 A 
ATOM      4  C   UNL     1       9.105  -0.144  25.825  0.00  0.00    +0.015 A 
ATOM      5  C   UNL     1       8.989  -1.520  26.020  0.00  0.00    +0.050 A 
ATOM      6  C   UNL     1       8.834  -2.378  24.926  0.00  0.00    +0.159 A 
ENDROOT
BRANCH   3   7
ATOM      7  C   UNL     1       9.226   1.804  24.240  0.00  0.00    +0.181 A 
ATOM      8  O   UNL     1      10.527   2.162  23.930  0.00  0.00    -0.451 OA
ATOM      9  C   UNL     1      10.809   3.490  23.737  0.00  0.00    +0.147 A 
ATOM     10  C   UNL     1       9.861   4.495  23.906  0.00  0.00    +0.109 A 
ATOM     11  C   UNL     1      10.218   5.834  23.708  0.00  0.00    +0.135 A 
ATOM     12  C   UNL     1      11.512   6.168  23.323  0.00  0.00    +0.091 A 
ATOM     13  C   UNL     1      12.450   5.154  23.147  0.00  0.00    +0.124 A 
ATOM     14  C   UNL     1       8.493   4.116  24.279  0.00  0.00    +0.238 A 
ATOM     15  O   UNL     1       7.649   4.987  24.474  0.00  0.00    -0.283 OA
ATOM     16  C   UNL     1      12.111   3.818  23.359  0.00  0.00    +0.092 A 
ATOM     17  C   UNL     1       8.202   2.662  24.402  0.00  0.00    +0.208 A 
BRANCH  11  18
ATOM     18  O   UNL     1       9.339   6.873  23.871  0.00  0.00    -0.506 OA
ATOM     19  H   UNL     1       9.191   7.291  22.992  0.00  0.00    +0.292 HD
ENDBRANCH  11  18
BRANCH  13  20
ATOM     20  O   UNL     1      13.727   5.432  22.760  0.00  0.00    -0.507 OA
ATOM     21  H   UNL     1      14.267   4.629  22.858  0.00  0.00    +0.292 HD
ENDBRANCH  13  20
BRANCH  17  22
ATOM     22  O   UNL     1       6.908   2.293  24.722  0.00  0.00    -0.501 OA
ATOM     23  H   UNL     1       6.432   3.067  25.072  0.00  0.00    +0.292 HD
ENDBRANCH  17  22
ENDBRANCH   3   7
BRANCH   6  24
ATOM     24  O   UNL     1       8.729  -3.713  25.185  0.00  0.00    -0.503 OA
ATOM     25  H   UNL     1       7.775  -3.906  25.243  0.00  0.00    +0.292 HD
ENDBRANCH   6  24
BRANCH   1  26
ATOM     26  O   UNL     1       8.616  -2.800  22.600  0.00  0.00    -0.457 OA
BRANCH  26  29
ATOM     27  C   UNL     1       5.116  -3.293  23.413  0.00  0.00    +0.198 C 
ATOM     28  O   UNL     1       6.504  -3.046  23.622  0.00  0.00    -0.337 OA
ATOM     29  C   UNL     1       7.266  -3.265  22.422  0.00  0.00    +0.339 C 
ATOM     30  C   UNL     1       7.220  -4.778  22.121  0.00  0.00    +0.214 C 
ATOM     31  C   UNL     1       5.749  -5.191  21.899  0.00  0.00    +0.180 C 
ATOM     32  C   UNL     1       4.865  -4.764  23.092  0.00  0.00    +0.171 C 
BRANCH  30  33
ATOM     33  O   UNL     1       7.734  -5.557  23.225  0.00  0.00    -0.383 OA
ATOM     34  H   UNL     1       8.574  -5.956  22.920  0.00  0.00    +0.210 HD
ENDBRANCH  30  33
BRANCH  31  35
ATOM     35  O   UNL     1       5.678  -6.612  21.713  0.00  0.00    -0.386 OA
ATOM     36  H   UNL     1       5.724  -7.003  22.605  0.00  0.00    +0.210 HD
ENDBRANCH  31  35
BRANCH  32  37
ATOM     37  O   UNL     1       3.482  -4.944  22.790  0.00  0.00    -0.387 OA
ATOM     38  H   UNL     1       3.414  -5.186  21.850  0.00  0.00    +0.210 HD
ENDBRANCH  32  37
ENDBRANCH  26  29
ENDBRANCH   1  26
TORSDOF 10
ENDMDL
MODEL 6
REMARK VINA RESULT:      -7.4      1.270      2.821
REMARK  Name = 
REMARK  10 active torsions:
REMARK  status: ('A' for Active; 'I' for Inactive)
REMARK    1  A    between atoms: C_2  and  O_33
REMARK    2  A    between atoms: C_4  and  O_32
REMARK    3  A    between atoms: C_5  and  O_31
REMARK    4  A    between atoms: C_6  and  O_9
REMARK    5  A    between atoms: O_9  and  C_10
REMARK    6  A    between atoms: C_11  and  O_30
REMARK    7  A    between atoms: C_14  and  C_16
REMARK    8  A    between atoms: C_17  and  O_29
REMARK    9  A    between atoms: C_21  and  O_28
REMARK   10  A    between atoms: C_23  and  O_27
REMARK                            x       y       z     vdW  Elec       q    Type
REMARK                         _______ _______ _______ _____ _____    ______ ____
ROOT
ATOM      1  C   UNL     1       8.598  -0.083  24.605  0.00  0.00    +0.166 A 
ATOM      2  C   UNL     1       7.678  -1.136  24.594  0.00  0.00    +0.061 A 
ATOM      3  C   UNL     1       8.020  -2.414  24.136  0.00  0.00    +0.025 A 
ATOM      4  C   UNL     1       9.318  -2.651  23.671  0.00  0.00    +0.015 A 
ATOM      5  C   UNL     1      10.252  -1.615  23.684  0.00  0.00    +0.050 A 
ATOM      6  C   UNL     1       9.892  -0.346  24.148  0.00  0.00    +0.159 A 
ENDROOT
BRANCH   3   7
ATOM      7  C   UNL     1       6.995  -3.462  24.185  0.00  0.00    +0.181 A 
ATOM      8  O   UNL     1       6.945  -4.116  25.404  0.00  0.00    -0.451 OA
ATOM      9  C   UNL     1       6.090  -5.180  25.538  0.00  0.00    +0.147 A 
ATOM     10  C   UNL     1       5.324  -5.670  24.485  0.00  0.00    +0.109 A 
ATOM     11  C   UNL     1       4.481  -6.770  24.685  0.00  0.00    +0.135 A 
ATOM     12  C   UNL     1       4.387  -7.367  25.938  0.00  0.00    +0.091 A 
ATOM     13  C   UNL     1       5.151  -6.861  26.988  0.00  0.00    +0.124 A 
ATOM     14  C   UNL     1       5.412  -5.003  23.181  0.00  0.00    +0.238 A 
ATOM     15  O   UNL     1       4.779  -5.442  22.225  0.00  0.00    -0.283 OA
ATOM     16  C   UNL     1       6.007  -5.778  26.797  0.00  0.00    +0.092 A 
ATOM     17  C   UNL     1       6.289  -3.804  23.091  0.00  0.00    +0.208 A 
BRANCH  11  18
ATOM     18  O   UNL     1       3.711  -7.312  23.689  0.00  0.00    -0.506 OA
ATOM     19  H   UNL     1       4.309  -7.596  22.959  0.00  0.00    +0.292 HD
ENDBRANCH  11  18
BRANCH  13  20
ATOM     20  O   UNL     1       5.084  -7.407  28.235  0.00  0.00    -0.507 OA
ATOM     21  H   UNL     1       5.848  -7.098  28.754  0.00  0.00    +0.292 HD
ENDBRANCH  13  20
BRANCH  17  22
ATOM     22  O   UNL     1       6.355  -3.150  21.874  0.00  0.00    -0.501 OA
ATOM     23  H   UNL     1       6.828  -3.710  21.235  0.00  0.00    +0.292 HD
ENDBRANCH  17  22
ENDBRANCH   3   7
BRANCH   6  24
ATOM     24  O   UNL     1      10.853   0.623  24.136  0.00  0.00    -0.503 OA
ATOM     25  H   UNL     1      10.399   1.455  23.908  0.00  0.00    +0.292 HD
ENDBRANCH   6  24
BRANCH   1  26
ATOM     26  O   UNL     1       8.324   1.204  25.029  0.00  0.00    -0.457 OA
BRANCH  26  29
ATOM     27  C   UNL     1       8.675   4.409  23.367  0.00  0.00    +0.198 C 
ATOM     28  O   UNL     1       8.596   3.473  24.438  0.00  0.00    -0.337 OA
ATOM     29  C   UNL     1       8.185   2.175  23.975  0.00  0.00    +0.339 C 
ATOM     30  C   UNL     1       6.719   2.300  23.507  0.00  0.00    +0.214 C 
ATOM     31  C   UNL     1       6.657   3.321  22.351  0.00  0.00    +0.180 C 
ATOM     32  C   UNL     1       7.298   4.664  22.760  0.00  0.00    +0.171 C 
BRANCH  30  33
ATOM     33  O   UNL     1       5.860   2.781  24.565  0.00  0.00    -0.383 OA
ATOM     34  H   UNL     1       6.439   3.222  25.219  0.00  0.00    +0.210 HD
ENDBRANCH  30  33
BRANCH  31  35
ATOM     35  O   UNL     1       5.288   3.520  21.968  0.00  0.00    -0.386 OA
ATOM     36  H   UNL     1       4.823   2.692  22.189  0.00  0.00    +0.210 HD
ENDBRANCH  31  35
BRANCH  32  37
ATOM     37  O   UNL     1       7.441   5.525  21.631  0.00  0.00    -0.387 OA
ATOM     38  H   UNL     1       6.625   5.458  21.104  0.00  0.00    +0.210 HD
ENDBRANCH  32  37
ENDBRANCH  26  29
ENDBRANCH   1  26
TORSDOF 10
ENDMDL
MODEL 7
REMARK VINA RESULT:      -7.4      1.779      8.681
REMARK  Name = 
REMARK  10 active torsions:
REMARK  status: ('A' for Active; 'I' for Inactive)
REMARK    1  A    between atoms: C_2  and  O_33
REMARK    2  A    between atoms: C_4  and  O_32
REMARK    3  A    between atoms: C_5  and  O_31
REMARK    4  A    between atoms: C_6  and  O_9
REMARK    5  A    between atoms: O_9  and  C_10
REMARK    6  A    between atoms: C_11  and  O_30
REMARK    7  A    between atoms: C_14  and  C_16
REMARK    8  A    between atoms: C_17  and  O_29
REMARK    9  A    between atoms: C_21  and  O_28
REMARK   10  A    between atoms: C_23  and  O_27
REMARK                            x       y       z     vdW  Elec       q    Type
REMARK                         _______ _______ _______ _____ _____    ______ ____
ROOT
ATOM      1  C   UNL     1       5.360  -4.545  24.136  0.00  0.00    +0.166 A 
ATOM      2  C   UNL     1       6.036  -3.322  24.195  0.00  0.00    +0.061 A 
ATOM      3  C   UNL     1       7.048  -2.990  23.287  0.00  0.00    +0.025 A 
ATOM      4  C   UNL     1       7.402  -3.905  22.289  0.00  0.00    +0.015 A 
ATOM      5  C   UNL     1       6.733  -5.126  22.209  0.00  0.00    +0.050 A 
ATOM      6  C   UNL     1       5.722  -5.439  23.124  0.00  0.00    +0.159 A 
ENDROOT
BRANCH   3   7
ATOM      7  C   UNL     1       7.683  -1.673  23.412  0.00  0.00    +0.181 A 
ATOM      8  O   UNL     1       6.924  -0.650  22.871  0.00  0.00    -0.451 OA
ATOM      9  C   UNL     1       7.457   0.613  22.844  0.00  0.00    +0.147 A 
ATOM     10  C   UNL     1       8.750   0.896  23.274  0.00  0.00    +0.109 A 
ATOM     11  C   UNL     1       9.240   2.206  23.206  0.00  0.00    +0.135 A 
ATOM     12  C   UNL     1       8.434   3.235  22.729  0.00  0.00    +0.091 A 
ATOM     13  C   UNL     1       7.138   2.942  22.311  0.00  0.00    +0.124 A 
ATOM     14  C   UNL     1       9.569  -0.199  23.806  0.00  0.00    +0.238 A 
ATOM     15  O   UNL     1      10.727   0.017  24.153  0.00  0.00    -0.283 OA
ATOM     16  C   UNL     1       6.645   1.639  22.356  0.00  0.00    +0.092 A 
ATOM     17  C   UNL     1       8.933  -1.541  23.895  0.00  0.00    +0.208 A 
BRANCH  11  18
ATOM     18  O   UNL     1      10.506   2.551  23.598  0.00  0.00    -0.506 OA
ATOM     19  H   UNL     1      10.812   1.892  24.264  0.00  0.00    +0.292 HD
ENDBRANCH  11  18
BRANCH  13  20
ATOM     20  O   UNL     1       6.309   3.919  21.846  0.00  0.00    -0.507 OA
ATOM     21  H   UNL     1       6.560   4.135  20.931  0.00  0.00    +0.292 HD
ENDBRANCH  13  20
BRANCH  17  22
ATOM     22  O   UNL     1       9.687  -2.573  24.424  0.00  0.00    -0.501 OA
ATOM     23  H   UNL     1      10.477  -2.204  24.853  0.00  0.00    +0.292 HD
ENDBRANCH  17  22
ENDBRANCH   3   7
BRANCH   6  24
ATOM     24  O   UNL     1       5.105  -6.648  22.989  0.00  0.00    -0.503 OA
ATOM     25  H   UNL     1       5.587  -7.124  22.287  0.00  0.00    +0.292 HD
ENDBRANCH   6  24
BRANCH   1  26
ATOM     26  O   UNL     1       4.364  -4.944  25.008  0.00  0.00    -0.457 OA
BRANCH  26  29
ATOM     27  C   UNL     1       6.685  -5.475  27.744  0.00  0.00    +0.198 C 
ATOM     28  O   UNL     1       6.181  -5.490  26.411  0.00  0.00    -0.337 OA
ATOM     29  C   UNL     1       4.788  -5.134  26.370  0.00  0.00    +0.339 C 
ATOM     30  C   UNL     1       4.005  -6.275  27.054  0.00  0.00    +0.214 C 
ATOM     31  C   UNL     1       4.481  -6.389  28.519  0.00  0.00    +0.180 C 
ATOM     32  C   UNL     1       6.015  -6.551  28.594  0.00  0.00    +0.171 C 
BRANCH  30  33
ATOM     33  O   UNL     1       4.246  -7.547  26.413  0.00  0.00    -0.383 OA
ATOM     34  H   UNL     1       4.983  -7.972  26.898  0.00  0.00    +0.210 HD
ENDBRANCH  30  33
BRANCH  31  35
ATOM     35  O   UNL     1       3.832  -7.507  29.142  0.00  0.00    -0.386 OA
ATOM     36  H   UNL     1       4.199  -7.563  30.044  0.00  0.00    +0.210 HD
ENDBRANCH  31  35
BRANCH  32  37
ATOM     37  O   UNL     1       6.474  -6.433  29.940  0.00  0.00    -0.387 OA
ATOM     38  H   UNL     1       5.813  -6.856  30.515  0.00  0.00    +0.210 HD
ENDBRANCH  32  37
ENDBRANCH  26  29
ENDBRANCH   1  26
TORSDOF 10
ENDMDL
MODEL 8
REMARK VINA RESULT:      -7.4      1.808      8.720
REMARK  Name = 
REMARK  10 active torsions:
REMARK  status: ('A' for Active; 'I' for Inactive)
REMARK    1  A    between atoms: C_2  and  O_33
REMARK    2  A    between atoms: C_4  and  O_32
REMARK    3  A    between atoms: C_5  and  O_31
REMARK    4  A    between atoms: C_6  and  O_9
REMARK    5  A    between atoms: O_9  and  C_10
REMARK    6  A    between atoms: C_11  and  O_30
REMARK    7  A    between atoms: C_14  and  C_16
REMARK    8  A    between atoms: C_17  and  O_29
REMARK    9  A    between atoms: C_21  and  O_28
REMARK   10  A    between atoms: C_23  and  O_27
REMARK                            x       y       z     vdW  Elec       q    Type
REMARK                         _______ _______ _______ _____ _____    ______ ____
ROOT
ATOM      1  C   UNL     1       6.419  -4.159  26.135  0.00  0.00    +0.166 A 
ATOM      2  C   UNL     1       6.913  -3.036  25.464  0.00  0.00    +0.061 A 
ATOM      3  C   UNL     1       8.284  -2.759  25.393  0.00  0.00    +0.025 A 
ATOM      4  C   UNL     1       9.191  -3.626  26.011  0.00  0.00    +0.015 A 
ATOM      5  C   UNL     1       8.717  -4.756  26.677  0.00  0.00    +0.050 A 
ATOM      6  C   UNL     1       7.345  -5.017  26.735  0.00  0.00    +0.159 A 
ENDROOT
BRANCH   3   7
ATOM      7  C   UNL     1       8.710  -1.570  24.646  0.00  0.00    +0.181 A 
ATOM      8  O   UNL     1       8.370  -0.384  25.273  0.00  0.00    -0.451 OA
ATOM      9  C   UNL     1       8.632   0.795  24.623  0.00  0.00    +0.147 A 
ATOM     10  C   UNL     1       9.162   0.846  23.337  0.00  0.00    +0.109 A 
ATOM     11  C   UNL     1       9.392   2.084  22.723  0.00  0.00    +0.135 A 
ATOM     12  C   UNL     1       9.113   3.267  23.400  0.00  0.00    +0.091 A 
ATOM     13  C   UNL     1       8.593   3.204  24.690  0.00  0.00    +0.124 A 
ATOM     14  C   UNL     1       9.481  -0.415  22.657  0.00  0.00    +0.238 A 
ATOM     15  O   UNL     1       9.910  -0.397  21.506  0.00  0.00    -0.283 OA
ATOM     16  C   UNL     1       8.342   1.978  25.304  0.00  0.00    +0.092 A 
ATOM     17  C   UNL     1       9.258  -1.672  23.421  0.00  0.00    +0.208 A 
BRANCH  11  18
ATOM     18  O   UNL     1       9.897   2.206  21.456  0.00  0.00    -0.506 OA
ATOM     19  H   UNL     1      10.392   3.056  21.403  0.00  0.00    +0.292 HD
ENDBRANCH  11  18
BRANCH  13  20
ATOM     20  O   UNL     1       8.314   4.337  25.395  0.00  0.00    -0.507 OA
ATOM     21  H   UNL     1       7.953   4.086  26.263  0.00  0.00    +0.292 HD
ENDBRANCH  13  20
BRANCH  17  22
ATOM     22  O   UNL     1       9.585  -2.864  22.800  0.00  0.00    -0.501 OA
ATOM     23  H   UNL     1       8.987  -3.563  23.115  0.00  0.00    +0.292 HD
ENDBRANCH  17  22
ENDBRANCH   3   7
BRANCH   6  24
ATOM     24  O   UNL     1       6.947  -6.141  27.399  0.00  0.00    -0.503 OA
ATOM     25  H   UNL     1       7.652  -6.343  28.041  0.00  0.00    +0.292 HD
ENDBRANCH   6  24
BRANCH   1  26
ATOM     26  O   UNL     1       5.080  -4.484  26.257  0.00  0.00    -0.457 OA
BRANCH  26  29
ATOM     27  C   UNL     1       3.076  -5.324  23.353  0.00  0.00    +0.198 C 
ATOM     28  O   UNL     1       3.475  -4.634  24.533  0.00  0.00    -0.337 OA
ATOM     29  C   UNL     1       4.556  -5.309  25.201  0.00  0.00    +0.339 C 
ATOM     30  C   UNL     1       3.996  -6.641  25.744  0.00  0.00    +0.214 C 
ATOM     31  C   UNL     1       3.495  -7.487  24.554  0.00  0.00    +0.180 C 
ATOM     32  C   UNL     1       2.490  -6.692  23.691  0.00  0.00    +0.171 C 
BRANCH  30  33
ATOM     33  O   UNL     1       2.877  -6.426  26.633  0.00  0.00    -0.383 OA
ATOM     34  H   UNL     1       2.710  -7.277  27.087  0.00  0.00    +0.210 HD
ENDBRANCH  30  33
BRANCH  31  35
ATOM     35  O   UNL     1       2.885  -8.687  25.049  0.00  0.00    -0.386 OA
ATOM     36  H   UNL     1       2.078  -8.818  24.517  0.00  0.00    +0.210 HD
ENDBRANCH  31  35
BRANCH  32  37
ATOM     37  O   UNL     1       2.201  -7.387  22.478  0.00  0.00    -0.387 OA
ATOM     38  H   UNL     1       2.368  -8.333  22.633  0.00  0.00    +0.210 HD
ENDBRANCH  32  37
ENDBRANCH  26  29
ENDBRANCH   1  26
TORSDOF 10
ENDMDL
MODEL 9
REMARK VINA RESULT:      -7.4      1.776      2.388
REMARK  Name = 
REMARK  10 active torsions:
REMARK  status: ('A' for Active; 'I' for Inactive)
REMARK    1  A    between atoms: C_2  and  O_33
REMARK    2  A    between atoms: C_4  and  O_32
REMARK    3  A    between atoms: C_5  and  O_31
REMARK    4  A    between atoms: C_6  and  O_9
REMARK    5  A    between atoms: O_9  and  C_10
REMARK    6  A    between atoms: C_11  and  O_30
REMARK    7  A    between atoms: C_14  and  C_16
REMARK    8  A    between atoms: C_17  and  O_29
REMARK    9  A    between atoms: C_21  and  O_28
REMARK   10  A    between atoms: C_23  and  O_27
REMARK                            x       y       z     vdW  Elec       q    Type
REMARK                         _______ _______ _______ _____ _____    ______ ____
ROOT
ATOM      1  C   UNL     1       8.497   0.916  23.178  0.00  0.00    +0.166 A 
ATOM      2  C   UNL     1       8.002  -0.278  23.713  0.00  0.00    +0.061 A 
ATOM      3  C   UNL     1       8.277  -1.521  23.131  0.00  0.00    +0.025 A 
ATOM      4  C   UNL     1       9.068  -1.579  21.979  0.00  0.00    +0.015 A 
ATOM      5  C   UNL     1       9.578  -0.400  21.436  0.00  0.00    +0.050 A 
ATOM      6  C   UNL     1       9.295   0.833  22.033  0.00  0.00    +0.159 A 
ENDROOT
BRANCH   3   7
ATOM      7  C   UNL     1       7.734  -2.721  23.778  0.00  0.00    +0.181 A 
ATOM      8  O   UNL     1       6.671  -3.276  23.087  0.00  0.00    -0.451 OA
ATOM      9  C   UNL     1       6.019  -4.347  23.644  0.00  0.00    +0.147 A 
ATOM     10  C   UNL     1       6.338  -4.853  24.901  0.00  0.00    +0.109 A 
ATOM     11  C   UNL     1       5.623  -5.941  25.419  0.00  0.00    +0.135 A 
ATOM     12  C   UNL     1       4.607  -6.534  24.676  0.00  0.00    +0.091 A 
ATOM     13  C   UNL     1       4.305  -6.026  23.415  0.00  0.00    +0.124 A 
ATOM     14  C   UNL     1       7.436  -4.233  25.651  0.00  0.00    +0.238 A 
ATOM     15  O   UNL     1       7.708  -4.635  26.779  0.00  0.00    -0.283 OA
ATOM     16  C   UNL     1       4.997  -4.932  22.896  0.00  0.00    +0.092 A 
ATOM     17  C   UNL     1       8.172  -3.126  24.984  0.00  0.00    +0.208 A 
BRANCH  11  18
ATOM     18  O   UNL     1       5.874  -6.478  26.654  0.00  0.00    -0.506 OA
ATOM     19  H   UNL     1       6.772  -6.188  26.938  0.00  0.00    +0.292 HD
ENDBRANCH  11  18
BRANCH  13  20
ATOM     20  O   UNL     1       3.325  -6.581  22.647  0.00  0.00    -0.507 OA
ATOM     21  H   UNL     1       2.669  -7.000  23.230  0.00  0.00    +0.292 HD
ENDBRANCH  13  20
BRANCH  17  22
ATOM     22  O   UNL     1       9.229  -2.556  25.671  0.00  0.00    -0.501 OA
ATOM     23  H   UNL     1       8.893  -1.845  26.243  0.00  0.00    +0.292 HD
ENDBRANCH  17  22
ENDBRANCH   3   7
BRANCH   6  24
ATOM     24  O   UNL     1       9.827   1.948  21.455  0.00  0.00    -0.503 OA
ATOM     25  H   UNL     1       9.611   1.894  20.506  0.00  0.00    +0.292 HD
ENDBRANCH   6  24
BRANCH   1  26
ATOM     26  O   UNL     1       8.253   2.176  23.691  0.00  0.00    -0.457 OA
BRANCH  26  29
ATOM     27  C   UNL     1       6.363   5.082  22.622  0.00  0.00    +0.198 C 
ATOM     28  O   UNL     1       7.249   4.294  23.413  0.00  0.00    -0.337 OA
ATOM     29  C   UNL     1       7.200   2.907  23.036  0.00  0.00    +0.339 C 
ATOM     30  C   UNL     1       5.806   2.374  23.432  0.00  0.00    +0.214 C 
ATOM     31  C   UNL     1       4.736   3.173  22.658  0.00  0.00    +0.180 C 
ATOM     32  C   UNL     1       4.909   4.692  22.876  0.00  0.00    +0.171 C 
BRANCH  30  33
ATOM     33  O   UNL     1       5.550   2.548  24.844  0.00  0.00    -0.383 OA
ATOM     34  H   UNL     1       6.121   1.908  25.315  0.00  0.00    +0.210 HD
ENDBRANCH  30  33
BRANCH  31  35
ATOM     35  O   UNL     1       3.431   2.756  23.086  0.00  0.00    -0.386 OA
ATOM     36  H   UNL     1       3.561   2.294  23.935  0.00  0.00    +0.210 HD
ENDBRANCH  31  35
BRANCH  32  37
ATOM     37  O   UNL     1       4.069   5.432  21.992  0.00  0.00    -0.387 OA
ATOM     38  H   UNL     1       3.171   5.430  22.368  0.00  0.00    +0.210 HD
ENDBRANCH  32  37
ENDBRANCH  26  29
ENDBRANCH   1  26
TORSDOF 10
ENDMDL
