MODEL 1
REMARK VINA RESULT:      -7.1      0.000      0.000
REMARK  Name = 
REMARK  21 active torsions:
REMARK  status: ('A' for Active; 'I' for Inactive)
REMARK    1  A    between atoms: C_1  and  C_2
REMARK    2  A    between atoms: C_3  and  O_35
REMARK    3  A    between atoms: C_5  and  O_34
REMARK    4  A    between atoms: C_6  and  O_33
REMARK    5  A    between atoms: C_8  and  O_11
REMARK    6  A    between atoms: O_11  and  C_12
REMARK    7  A    between atoms: C_13  and  C_25
REMARK    8  A    between atoms: C_17  and  O_24
REMARK    9  A    between atoms: C_19  and  O_23
REMARK   10  A    between atoms: C_27  and  O_32
REMARK   11  A    between atoms: C_28  and  O_31
REMARK   12  A    between atoms: O_35  and  C_36
REMARK   13  A    between atoms: C_38  and  O_61
REMARK   14  A    between atoms: C_39  and  O_60
REMARK   15  A    between atoms: C_41  and  O_45
REMARK   16  A    between atoms: O_45  and  C_46
REMARK   17  A    between atoms: C_48  and  O_59
REMARK   18  A    between atoms: C_49  and  O_58
REMARK   19  A    between atoms: C_51  and  O_57
REMARK   20  A    between atoms: C_53  and  C_55
REMARK   21  A    between atoms: C_55  and  O_56
REMARK                            x       y       z     vdW  Elec       q    Type
REMARK                         _______ _______ _______ _____ _____    ______ ____
ROOT
ATOM      1  C   UNL     1       9.388   0.075  21.485  0.00  0.00    +0.041 C 
ATOM      2  C   UNL     1       8.322  -0.656  22.295  0.00  0.00    +0.151 C 
ATOM      3  O   UNL     1       7.904   0.106  23.449  0.00  0.00    -0.334 OA
ATOM      4  C   UNL     1       8.866   0.131  24.510  0.00  0.00    +0.339 C 
ATOM      5  C   UNL     1       9.212  -1.301  25.005  0.00  0.00    +0.214 C 
ATOM      6  C   UNL     1       9.738  -2.089  23.803  0.00  0.00    +0.180 C 
ATOM      7  C   UNL     1       8.695  -2.117  22.659  0.00  0.00    +0.181 C 
ENDROOT
BRANCH   6   8
ATOM      8  O   UNL     1      10.113  -3.411  24.214  0.00  0.00    -0.386 OA
ATOM      9  H   UNL     1       9.459  -4.014  23.818  0.00  0.00    +0.210 HD
ENDBRANCH   6   8
BRANCH   5  10
ATOM     10  O   UNL     1       8.096  -1.974  25.635  0.00  0.00    -0.383 OA
ATOM     11  H   UNL     1       7.639  -2.456  24.920  0.00  0.00    +0.210 HD
ENDBRANCH   5  10
BRANCH   7  12
ATOM     12  O   UNL     1       7.571  -2.885  23.144  0.00  0.00    -0.340 OA
BRANCH  12  13
ATOM     13  C   UNL     1       7.061  -3.920  22.287  0.00  0.00    +0.282 C 
ATOM     14  O   UNL     1       5.676  -3.763  21.981  0.00  0.00    -0.346 OA
ATOM     15  C   UNL     1       4.853  -3.650  23.145  0.00  0.00    +0.197 C 
ATOM     16  C   UNL     1       4.984  -4.795  24.152  0.00  0.00    +0.178 C 
ATOM     17  C   UNL     1       6.445  -5.236  24.320  0.00  0.00    +0.179 C 
ATOM     18  C   UNL     1       7.188  -5.284  22.977  0.00  0.00    +0.201 C 
BRANCH  17  19
ATOM     19  O   UNL     1       7.156  -4.414  25.258  0.00  0.00    -0.386 OA
ATOM     20  H   UNL     1       6.649  -3.574  25.370  0.00  0.00    +0.210 HD
ENDBRANCH  17  19
BRANCH  18  21
ATOM     21  O   UNL     1       8.548  -5.673  23.185  0.00  0.00    -0.384 OA
ATOM     22  H   UNL     1       8.522  -6.617  23.433  0.00  0.00    +0.210 HD
ENDBRANCH  18  21
BRANCH  16  23
ATOM     23  O   UNL     1       4.137  -5.870  23.701  0.00  0.00    -0.341 OA
BRANCH  23  24
ATOM     24  C   UNL     1       2.762  -5.562  23.968  0.00  0.00    +0.282 C 
ATOM     25  O   UNL     1       2.603  -5.043  25.281  0.00  0.00    -0.341 OA
ATOM     26  C   UNL     1       2.833  -6.042  26.298  0.00  0.00    +0.178 C 
ATOM     27  C   UNL     1       1.735  -7.109  26.190  0.00  0.00    +0.177 C 
ATOM     28  C   UNL     1       1.872  -7.814  24.831  0.00  0.00    +0.179 C 
ATOM     29  C   UNL     1       1.860  -6.783  23.687  0.00  0.00    +0.201 C 
BRANCH  28  30
ATOM     30  O   UNL     1       3.048  -8.632  24.853  0.00  0.00    -0.386 OA
ATOM     31  H   UNL     1       3.278  -8.807  25.785  0.00  0.00    +0.210 HD
ENDBRANCH  28  30
BRANCH  27  32
ATOM     32  O   UNL     1       0.443  -6.497  26.263  0.00  0.00    -0.386 OA
ATOM     33  H   UNL     1       0.139  -6.567  27.184  0.00  0.00    +0.210 HD
ENDBRANCH  27  32
BRANCH  29  34
ATOM     34  O   UNL     1       2.169  -7.426  22.443  0.00  0.00    -0.384 OA
ATOM     35  H   UNL     1       2.261  -6.741  21.757  0.00  0.00    +0.210 HD
ENDBRANCH  29  34
BRANCH  26  36
ATOM     36  C   UNL     1       2.897  -5.326  27.656  0.00  0.00    +0.190 C 
BRANCH  36  37
ATOM     37  O   UNL     1       2.029  -4.201  27.726  0.00  0.00    -0.392 OA
ATOM     38  H   UNL     1       1.255  -4.433  27.179  0.00  0.00    +0.210 HD
ENDBRANCH  36  37
ENDBRANCH  26  36
ENDBRANCH  23  24
ENDBRANCH  16  23
ENDBRANCH  12  13
ENDBRANCH   7  12
BRANCH   4  39
ATOM     39  O   UNL     1       8.415   0.937  25.615  0.00  0.00    -0.453 OA
BRANCH  39  40
ATOM     40  C   UNL     1       7.541   1.976  25.278  0.00  0.00    +0.214 A 
ATOM     41  C   UNL     1       8.031   3.204  24.579  0.00  0.00    +0.238 A 
ATOM     42  O   UNL     1       9.192   3.590  24.629  0.00  0.00    -0.283 OA
ATOM     43  C   UNL     1       7.060   4.034  23.897  0.00  0.00    +0.109 A 
ATOM     44  C   UNL     1       5.756   3.953  24.346  0.00  0.00    +0.147 A 
ATOM     45  C   UNL     1       4.844   4.914  23.906  0.00  0.00    +0.092 A 
ATOM     46  C   UNL     1       5.282   5.937  23.047  0.00  0.00    +0.124 A 
ATOM     47  C   UNL     1       6.583   5.977  22.559  0.00  0.00    +0.091 A 
ATOM     48  O   UNL     1       5.328   2.980  25.224  0.00  0.00    -0.451 OA
ATOM     49  C   UNL     1       7.474   5.012  22.980  0.00  0.00    +0.135 A 
ATOM     50  C   UNL     1       6.222   1.961  25.597  0.00  0.00    +0.181 A 
BRANCH  50  51
ATOM     51  C   UNL     1       5.582   0.875  26.408  0.00  0.00    +0.025 A 
ATOM     52  C   UNL     1       5.667   0.885  27.816  0.00  0.00    +0.015 A 
ATOM     53  C   UNL     1       5.067  -0.118  28.594  0.00  0.00    +0.050 A 
ATOM     54  C   UNL     1       4.379  -1.144  27.971  0.00  0.00    +0.158 A 
ATOM     55  C   UNL     1       4.307  -1.198  26.584  0.00  0.00    +0.159 A 
ATOM     56  C   UNL     1       4.913  -0.210  25.805  0.00  0.00    +0.060 A 
BRANCH  55  57
ATOM     57  O   UNL     1       3.623  -2.243  26.023  0.00  0.00    -0.503 OA
ATOM     58  H   UNL     1       3.326  -2.829  26.741  0.00  0.00    +0.292 HD
ENDBRANCH  55  57
BRANCH  54  59
ATOM     59  O   UNL     1       3.775  -2.108  28.727  0.00  0.00    -0.503 OA
ATOM     60  H   UNL     1       3.747  -2.898  28.150  0.00  0.00    +0.292 HD
ENDBRANCH  54  59
ENDBRANCH  50  51
BRANCH  49  61
ATOM     61  O   UNL     1       8.748   5.004  22.479  0.00  0.00    -0.506 OA
ATOM     62  H   UNL     1       9.393   5.083  23.200  0.00  0.00    +0.292 HD
ENDBRANCH  49  61
BRANCH  46  63
ATOM     63  O   UNL     1       4.448   6.927  22.622  0.00  0.00    -0.507 OA
ATOM     64  H   UNL     1       4.866   7.408  21.893  0.00  0.00    +0.292 HD
ENDBRANCH  46  63
ENDBRANCH  39  40
ENDBRANCH   4  39
TORSDOF 20
ENDMDL
MODEL 2
REMARK VINA RESULT:      -7.1      2.381      5.748
REMARK  Name = 
REMARK  21 active torsions:
REMARK  status: ('A' for Active; 'I' for Inactive)
REMARK    1  A    between atoms: C_1  and  C_2
REMARK    2  A    between atoms: C_3  and  O_35
REMARK    3  A    between atoms: C_5  and  O_34
REMARK    4  A    between atoms: C_6  and  O_33
REMARK    5  A    between atoms: C_8  and  O_11
REMARK    6  A    between atoms: O_11  and  C_12
REMARK    7  A    between atoms: C_13  and  C_25
REMARK    8  A    between atoms: C_17  and  O_24
REMARK    9  A    between atoms: C_19  and  O_23
REMARK   10  A    between atoms: C_27  and  O_32
REMARK   11  A    between atoms: C_28  and  O_31
REMARK   12  A    between atoms: O_35  and  C_36
REMARK   13  A    between atoms: C_38  and  O_61
REMARK   14  A    between atoms: C_39  and  O_60
REMARK   15  A    between atoms: C_41  and  O_45
REMARK   16  A    between atoms: O_45  and  C_46
REMARK   17  A    between atoms: C_48  and  O_59
REMARK   18  A    between atoms: C_49  and  O_58
REMARK   19  A    between atoms: C_51  and  O_57
REMARK   20  A    between atoms: C_53  and  C_55
REMARK   21  A    between atoms: C_55  and  O_56
REMARK                            x       y       z     vdW  Elec       q    Type
REMARK                         _______ _______ _______ _____ _____    ______ ____
ROOT
ATOM      1  C   UNL     1       7.039   4.183  27.627  0.00  0.00    +0.041 C 
ATOM      2  C   UNL     1       6.639   2.772  27.207  0.00  0.00    +0.151 C 
ATOM      3  O   UNL     1       7.066   2.469  25.860  0.00  0.00    -0.334 OA
ATOM      4  C   UNL     1       6.296   3.122  24.844  0.00  0.00    +0.339 C 
ATOM      5  C   UNL     1       4.789   2.755  24.942  0.00  0.00    +0.214 C 
ATOM      6  C   UNL     1       4.308   3.155  26.339  0.00  0.00    +0.180 C 
ATOM      7  C   UNL     1       5.140   2.445  27.435  0.00  0.00    +0.181 C 
ENDROOT
BRANCH   6   8
ATOM      8  O   UNL     1       2.908   2.876  26.470  0.00  0.00    -0.386 OA
ATOM      9  H   UNL     1       2.764   2.005  26.058  0.00  0.00    +0.210 HD
ENDBRANCH   6   8
BRANCH   5  10
ATOM     10  O   UNL     1       4.519   1.360  24.665  0.00  0.00    -0.383 OA
ATOM     11  H   UNL     1       4.838   0.869  25.446  0.00  0.00    +0.210 HD
ENDBRANCH   5  10
BRANCH   7  12
ATOM     12  O   UNL     1       4.845   1.034  27.329  0.00  0.00    -0.340 OA
BRANCH  12  13
ATOM     13  C   UNL     1       5.458   0.159  28.290  0.00  0.00    +0.282 C 
ATOM     14  O   UNL     1       6.720  -0.351  27.860  0.00  0.00    -0.346 OA
ATOM     15  C   UNL     1       6.657  -0.999  26.587  0.00  0.00    +0.197 C 
ATOM     16  C   UNL     1       5.632  -2.129  26.477  0.00  0.00    +0.178 C 
ATOM     17  C   UNL     1       4.320  -1.773  27.188  0.00  0.00    +0.179 C 
ATOM     18  C   UNL     1       4.567  -1.066  28.529  0.00  0.00    +0.201 C 
BRANCH  17  19
ATOM     19  O   UNL     1       3.449  -0.988  26.360  0.00  0.00    -0.386 OA
ATOM     20  H   UNL     1       2.670  -1.548  26.122  0.00  0.00    +0.210 HD
ENDBRANCH  17  19
BRANCH  18  21
ATOM     21  O   UNL     1       3.319  -0.731  29.142  0.00  0.00    -0.384 OA
ATOM     22  H   UNL     1       3.537  -0.426  30.044  0.00  0.00    +0.210 HD
ENDBRANCH  18  21
BRANCH  16  23
ATOM     23  O   UNL     1       6.239  -3.321  27.014  0.00  0.00    -0.341 OA
BRANCH  23  24
ATOM     24  C   UNL     1       6.769  -4.128  25.953  0.00  0.00    +0.282 C 
ATOM     25  O   UNL     1       5.980  -4.006  24.778  0.00  0.00    -0.341 OA
ATOM     26  C   UNL     1       4.678  -4.616  24.926  0.00  0.00    +0.178 C 
ATOM     27  C   UNL     1       4.867  -6.132  25.085  0.00  0.00    +0.177 C 
ATOM     28  C   UNL     1       5.633  -6.392  26.391  0.00  0.00    +0.179 C 
ATOM     29  C   UNL     1       6.949  -5.592  26.412  0.00  0.00    +0.201 C 
BRANCH  28  30
ATOM     30  O   UNL     1       4.770  -6.104  27.498  0.00  0.00    -0.386 OA
ATOM     31  H   UNL     1       4.683  -6.915  28.033  0.00  0.00    +0.210 HD
ENDBRANCH  28  30
BRANCH  27  32
ATOM     32  O   UNL     1       5.630  -6.651  23.992  0.00  0.00    -0.386 OA
ATOM     33  H   UNL     1       5.144  -6.446  23.174  0.00  0.00    +0.210 HD
ENDBRANCH  27  32
BRANCH  29  34
ATOM     34  O   UNL     1       7.568  -5.696  27.702  0.00  0.00    -0.384 OA
ATOM     35  H   UNL     1       7.922  -4.822  27.945  0.00  0.00    +0.210 HD
ENDBRANCH  29  34
BRANCH  26  36
ATOM     36  C   UNL     1       3.826  -4.202  23.717  0.00  0.00    +0.190 C 
BRANCH  36  37
ATOM     37  O   UNL     1       4.568  -4.167  22.504  0.00  0.00    -0.392 OA
ATOM     38  H   UNL     1       4.409  -3.282  22.125  0.00  0.00    +0.210 HD
ENDBRANCH  36  37
ENDBRANCH  26  36
ENDBRANCH  23  24
ENDBRANCH  16  23
ENDBRANCH  12  13
ENDBRANCH   7  12
BRANCH   4  39
ATOM     39  O   UNL     1       6.791   2.817  23.526  0.00  0.00    -0.453 OA
BRANCH  39  40
ATOM     40  C   UNL     1       8.157   3.049  23.334  0.00  0.00    +0.214 A 
ATOM     41  C   UNL     1       8.720   4.434  23.370  0.00  0.00    +0.238 A 
ATOM     42  O   UNL     1       8.056   5.438  23.144  0.00  0.00    -0.283 OA
ATOM     43  C   UNL     1      10.144   4.586  23.581  0.00  0.00    +0.109 A 
ATOM     44  C   UNL     1      10.938   3.513  23.223  0.00  0.00    +0.147 A 
ATOM     45  C   UNL     1      12.319   3.705  23.158  0.00  0.00    +0.092 A 
ATOM     46  C   UNL     1      12.852   4.977  23.433  0.00  0.00    +0.124 A 
ATOM     47  C   UNL     1      12.049   6.034  23.844  0.00  0.00    +0.091 A 
ATOM     48  O   UNL     1      10.421   2.274  22.908  0.00  0.00    -0.451 OA
ATOM     49  C   UNL     1      10.687   5.832  23.928  0.00  0.00    +0.135 A 
ATOM     50  C   UNL     1       9.040   2.056  23.059  0.00  0.00    +0.181 A 
BRANCH  50  51
ATOM     51  C   UNL     1       8.639   0.626  22.856  0.00  0.00    +0.025 A 
ATOM     52  C   UNL     1       9.578  -0.327  22.411  0.00  0.00    +0.015 A 
ATOM     53  C   UNL     1       9.225  -1.672  22.222  0.00  0.00    +0.050 A 
ATOM     54  C   UNL     1       7.925  -2.077  22.473  0.00  0.00    +0.158 A 
ATOM     55  C   UNL     1       6.971  -1.154  22.882  0.00  0.00    +0.159 A 
ATOM     56  C   UNL     1       7.314   0.188  23.058  0.00  0.00    +0.060 A 
BRANCH  55  57
ATOM     57  O   UNL     1       5.699  -1.610  23.104  0.00  0.00    -0.503 OA
ATOM     58  H   UNL     1       5.098  -1.130  22.508  0.00  0.00    +0.292 HD
ENDBRANCH  55  57
BRANCH  54  59
ATOM     59  O   UNL     1       7.586  -3.391  22.314  0.00  0.00    -0.503 OA
ATOM     60  H   UNL     1       6.939  -3.570  23.026  0.00  0.00    +0.292 HD
ENDBRANCH  54  59
ENDBRANCH  50  51
BRANCH  49  61
ATOM     61  O   UNL     1       9.880   6.845  24.374  0.00  0.00    -0.506 OA
ATOM     62  H   UNL     1       9.309   6.527  25.092  0.00  0.00    +0.292 HD
ENDBRANCH  49  61
BRANCH  46  63
ATOM     63  O   UNL     1      14.187   5.233  23.341  0.00  0.00    -0.507 OA
ATOM     64  H   UNL     1      14.332   6.190  23.375  0.00  0.00    +0.292 HD
ENDBRANCH  46  63
ENDBRANCH  39  40
ENDBRANCH   4  39
TORSDOF 20
ENDMDL
MODEL 3
REMARK VINA RESULT:      -6.9      1.339      4.305
REMARK  Name = 
REMARK  21 active torsions:
REMARK  status: ('A' for Active; 'I' for Inactive)
REMARK    1  A    between atoms: C_1  and  C_2
REMARK    2  A    between atoms: C_3  and  O_35
REMARK    3  A    between atoms: C_5  and  O_34
REMARK    4  A    between atoms: C_6  and  O_33
REMARK    5  A    between atoms: C_8  and  O_11
REMARK    6  A    between atoms: O_11  and  C_12
REMARK    7  A    between atoms: C_13  and  C_25
REMARK    8  A    between atoms: C_17  and  O_24
REMARK    9  A    between atoms: C_19  and  O_23
REMARK   10  A    between atoms: C_27  and  O_32
REMARK   11  A    between atoms: C_28  and  O_31
REMARK   12  A    between atoms: O_35  and  C_36
REMARK   13  A    between atoms: C_38  and  O_61
REMARK   14  A    between atoms: C_39  and  O_60
REMARK   15  A    between atoms: C_41  and  O_45
REMARK   16  A    between atoms: O_45  and  C_46
REMARK   17  A    between atoms: C_48  and  O_59
REMARK   18  A    between atoms: C_49  and  O_58
REMARK   19  A    between atoms: C_51  and  O_57
REMARK   20  A    between atoms: C_53  and  C_55
REMARK   21  A    between atoms: C_55  and  O_56
REMARK                            x       y       z     vdW  Elec       q    Type
REMARK                         _______ _______ _______ _____ _____    ______ ____
ROOT
ATOM      1  C   UNL     1       8.780   0.551  21.568  0.00  0.00    +0.041 C 
ATOM      2  C   UNL     1       7.999  -0.453  22.411  0.00  0.00    +0.151 C 
ATOM      3  O   UNL     1       7.616   0.101  23.689  0.00  0.00    -0.334 OA
ATOM      4  C   UNL     1       8.698   0.225  24.619  0.00  0.00    +0.339 C 
ATOM      5  C   UNL     1       9.377  -1.145  24.896  0.00  0.00    +0.214 C 
ATOM      6  C   UNL     1       9.864  -1.697  23.554  0.00  0.00    +0.180 C 
ATOM      7  C   UNL     1       8.691  -1.834  22.552  0.00  0.00    +0.181 C 
ENDROOT
BRANCH   6   8
ATOM      8  O   UNL     1      10.538  -2.946  23.757  0.00  0.00    -0.386 OA
ATOM      9  H   UNL     1      10.259  -3.528  23.027  0.00  0.00    +0.210 HD
ENDBRANCH   6   8
BRANCH   5  10
ATOM     10  O   UNL     1       8.512  -2.086  25.576  0.00  0.00    -0.383 OA
ATOM     11  H   UNL     1       8.049  -2.577  24.871  0.00  0.00    +0.210 HD
ENDBRANCH   5  10
BRANCH   7  12
ATOM     12  O   UNL     1       7.815  -2.855  23.079  0.00  0.00    -0.340 OA
BRANCH  12  13
ATOM     13  C   UNL     1       7.437  -3.920  22.191  0.00  0.00    +0.282 C 
ATOM     14  O   UNL     1       6.213  -3.668  21.502  0.00  0.00    -0.346 OA
ATOM     15  C   UNL     1       5.127  -3.362  22.381  0.00  0.00    +0.197 C 
ATOM     16  C   UNL     1       4.848  -4.406  23.465  0.00  0.00    +0.178 C 
ATOM     17  C   UNL     1       6.149  -4.960  24.063  0.00  0.00    +0.179 C 
ATOM     18  C   UNL     1       7.214  -5.213  22.986  0.00  0.00    +0.201 C 
BRANCH  17  19
ATOM     19  O   UNL     1       6.673  -4.117  25.099  0.00  0.00    -0.386 OA
ATOM     20  H   UNL     1       6.246  -3.230  25.014  0.00  0.00    +0.210 HD
ENDBRANCH  17  19
BRANCH  18  21
ATOM     21  O   UNL     1       8.414  -5.703  23.591  0.00  0.00    -0.384 OA
ATOM     22  H   UNL     1       9.138  -5.466  22.980  0.00  0.00    +0.210 HD
ENDBRANCH  18  21
BRANCH  16  23
ATOM     23  O   UNL     1       4.034  -5.438  22.875  0.00  0.00    -0.341 OA
BRANCH  23  24
ATOM     24  C   UNL     1       2.666  -5.279  23.275  0.00  0.00    +0.282 C 
ATOM     25  O   UNL     1       2.575  -4.607  24.523  0.00  0.00    -0.341 OA
ATOM     26  C   UNL     1       3.058  -5.417  25.618  0.00  0.00    +0.178 C 
ATOM     27  C   UNL     1       2.121  -6.623  25.780  0.00  0.00    +0.177 C 
ATOM     28  C   UNL     1       2.213  -7.485  24.512  0.00  0.00    +0.179 C 
ATOM     29  C   UNL     1       1.926  -6.634  23.261  0.00  0.00    +0.201 C 
BRANCH  28  30
ATOM     30  O   UNL     1       3.491  -8.132  24.485  0.00  0.00    -0.386 OA
ATOM     31  H   UNL     1       4.160  -7.469  24.230  0.00  0.00    +0.210 HD
ENDBRANCH  28  30
BRANCH  27  32
ATOM     32  O   UNL     1       0.770  -6.179  25.940  0.00  0.00    -0.386 OA
ATOM     33  H   UNL     1       0.771  -5.481  26.617  0.00  0.00    +0.210 HD
ENDBRANCH  27  32
BRANCH  29  34
ATOM     34  O   UNL     1       2.190  -7.398  22.076  0.00  0.00    -0.384 OA
ATOM     35  H   UNL     1       1.618  -8.186  22.084  0.00  0.00    +0.210 HD
ENDBRANCH  29  34
BRANCH  26  36
ATOM     36  C   UNL     1       3.163  -4.517  26.858  0.00  0.00    +0.190 C 
BRANCH  36  37
ATOM     37  O   UNL     1       4.405  -3.829  26.937  0.00  0.00    -0.392 OA
ATOM     38  H   UNL     1       4.564  -3.470  26.043  0.00  0.00    +0.210 HD
ENDBRANCH  36  37
ENDBRANCH  26  36
ENDBRANCH  23  24
ENDBRANCH  16  23
ENDBRANCH  12  13
ENDBRANCH   7  12
BRANCH   4  39
ATOM     39  O   UNL     1       8.266   0.819  25.858  0.00  0.00    -0.453 OA
BRANCH  39  40
ATOM     40  C   UNL     1       6.898   1.096  25.942  0.00  0.00    +0.214 A 
ATOM     41  C   UNL     1       5.934   0.084  26.474  0.00  0.00    +0.238 A 
ATOM     42  O   UNL     1       6.151  -1.122  26.467  0.00  0.00    -0.283 OA
ATOM     43  C   UNL     1       4.637   0.546  26.922  0.00  0.00    +0.109 A 
ATOM     44  C   UNL     1       4.183   1.731  26.375  0.00  0.00    +0.147 A 
ATOM     45  C   UNL     1       2.845   2.078  26.569  0.00  0.00    +0.092 A 
ATOM     46  C   UNL     1       2.004   1.209  27.286  0.00  0.00    +0.124 A 
ATOM     47  C   UNL     1       2.485   0.047  27.878  0.00  0.00    +0.091 A 
ATOM     48  O   UNL     1       4.988   2.567  25.631  0.00  0.00    -0.451 OA
ATOM     49  C   UNL     1       3.814  -0.280  27.701  0.00  0.00    +0.135 A 
ATOM     50  C   UNL     1       6.356   2.263  25.511  0.00  0.00    +0.181 A 
BRANCH  50  51
ATOM     51  C   UNL     1       7.147   3.339  24.832  0.00  0.00    +0.025 A 
ATOM     52  C   UNL     1       8.157   4.034  25.529  0.00  0.00    +0.015 A 
ATOM     53  C   UNL     1       8.915   5.042  24.909  0.00  0.00    +0.050 A 
ATOM     54  C   UNL     1       8.666   5.366  23.587  0.00  0.00    +0.158 A 
ATOM     55  C   UNL     1       7.655   4.720  22.886  0.00  0.00    +0.159 A 
ATOM     56  C   UNL     1       6.889   3.728  23.502  0.00  0.00    +0.060 A 
BRANCH  55  57
ATOM     57  O   UNL     1       7.447   5.091  21.585  0.00  0.00    -0.503 OA
ATOM     58  H   UNL     1       7.877   4.433  21.011  0.00  0.00    +0.292 HD
ENDBRANCH  55  57
BRANCH  54  59
ATOM     59  O   UNL     1       9.419   6.328  22.976  0.00  0.00    -0.503 OA
ATOM     60  H   UNL     1       9.919   6.753  23.702  0.00  0.00    +0.292 HD
ENDBRANCH  54  59
ENDBRANCH  50  51
BRANCH  49  61
ATOM     61  O   UNL     1       4.321  -1.396  28.311  0.00  0.00    -0.506 OA
ATOM     62  H   UNL     1       4.055  -2.194  27.826  0.00  0.00    +0.292 HD
ENDBRANCH  49  61
BRANCH  46  63
ATOM     63  O   UNL     1       0.680   1.475  27.468  0.00  0.00    -0.507 OA
ATOM     64  H   UNL     1       0.571   2.406  27.711  0.00  0.00    +0.292 HD
ENDBRANCH  46  63
ENDBRANCH  39  40
ENDBRANCH   4  39
TORSDOF 20
ENDMDL
MODEL 4
REMARK VINA RESULT:      -6.7      2.262      4.582
REMARK  Name = 
REMARK  21 active torsions:
REMARK  status: ('A' for Active; 'I' for Inactive)
REMARK    1  A    between atoms: C_1  and  C_2
REMARK    2  A    between atoms: C_3  and  O_35
REMARK    3  A    between atoms: C_5  and  O_34
REMARK    4  A    between atoms: C_6  and  O_33
REMARK    5  A    between atoms: C_8  and  O_11
REMARK    6  A    between atoms: O_11  and  C_12
REMARK    7  A    between atoms: C_13  and  C_25
REMARK    8  A    between atoms: C_17  and  O_24
REMARK    9  A    between atoms: C_19  and  O_23
REMARK   10  A    between atoms: C_27  and  O_32
REMARK   11  A    between atoms: C_28  and  O_31
REMARK   12  A    between atoms: O_35  and  C_36
REMARK   13  A    between atoms: C_38  and  O_61
REMARK   14  A    between atoms: C_39  and  O_60
REMARK   15  A    between atoms: C_41  and  O_45
REMARK   16  A    between atoms: O_45  and  C_46
REMARK   17  A    between atoms: C_48  and  O_59
REMARK   18  A    between atoms: C_49  and  O_58
REMARK   19  A    between atoms: C_51  and  O_57
REMARK   20  A    between atoms: C_53  and  C_55
REMARK   21  A    between atoms: C_55  and  O_56
REMARK                            x       y       z     vdW  Elec       q    Type
REMARK                         _______ _______ _______ _____ _____    ______ ____
ROOT
ATOM      1  C   UNL     1       8.368   1.880  21.470  0.00  0.00    +0.041 C 
ATOM      2  C   UNL     1       7.965   0.821  22.492  0.00  0.00    +0.151 C 
ATOM      3  O   UNL     1       7.085   1.356  23.505  0.00  0.00    -0.334 OA
ATOM      4  C   UNL     1       7.740   2.201  24.458  0.00  0.00    +0.339 C 
ATOM      5  C   UNL     1       8.888   1.455  25.193  0.00  0.00    +0.214 C 
ATOM      6  C   UNL     1       9.870   0.959  24.129  0.00  0.00    +0.180 C 
ATOM      7  C   UNL     1       9.160   0.043  23.103  0.00  0.00    +0.181 C 
ENDROOT
BRANCH   6   8
ATOM      8  O   UNL     1      10.976   0.297  24.758  0.00  0.00    -0.386 OA
ATOM      9  H   UNL     1      11.763   0.835  24.562  0.00  0.00    +0.210 HD
ENDBRANCH   6   8
BRANCH   5  10
ATOM     10  O   UNL     1       8.421   0.371  26.032  0.00  0.00    -0.383 OA
ATOM     11  H   UNL     1       8.880  -0.428  25.711  0.00  0.00    +0.210 HD
ENDBRANCH   5  10
BRANCH   7  12
ATOM     12  O   UNL     1       8.757  -1.145  23.818  0.00  0.00    -0.340 OA
BRANCH  12  13
ATOM     13  C   UNL     1       8.467  -2.317  23.040  0.00  0.00    +0.282 C 
ATOM     14  O   UNL     1       7.145  -2.319  22.500  0.00  0.00    -0.346 OA
ATOM     15  C   UNL     1       6.134  -2.137  23.495  0.00  0.00    +0.197 C 
ATOM     16  C   UNL     1       6.169  -3.135  24.655  0.00  0.00    +0.178 C 
ATOM     17  C   UNL     1       7.606  -3.423  25.108  0.00  0.00    +0.179 C 
ATOM     18  C   UNL     1       8.566  -3.570  23.918  0.00  0.00    +0.201 C 
BRANCH  17  19
ATOM     19  O   UNL     1       8.095  -2.434  26.027  0.00  0.00    -0.386 OA
ATOM     20  H   UNL     1       8.113  -1.566  25.557  0.00  0.00    +0.210 HD
ENDBRANCH  17  19
BRANCH  18  21
ATOM     21  O   UNL     1       9.894  -3.812  24.388  0.00  0.00    -0.384 OA
ATOM     22  H   UNL     1       9.924  -3.463  25.300  0.00  0.00    +0.210 HD
ENDBRANCH  18  21
BRANCH  16  23
ATOM     23  O   UNL     1       5.482  -4.326  24.224  0.00  0.00    -0.341 OA
BRANCH  23  24
ATOM     24  C   UNL     1       4.289  -4.517  24.999  0.00  0.00    +0.282 C 
ATOM     25  O   UNL     1       4.604  -4.876  26.337  0.00  0.00    -0.341 OA
ATOM     26  C   UNL     1       5.173  -6.200  26.430  0.00  0.00    +0.178 C 
ATOM     27  C   UNL     1       4.101  -7.220  26.019  0.00  0.00    +0.177 C 
ATOM     28  C   UNL     1       3.749  -6.988  24.541  0.00  0.00    +0.179 C 
ATOM     29  C   UNL     1       3.340  -5.521  24.309  0.00  0.00    +0.201 C 
BRANCH  28  30
ATOM     30  O   UNL     1       4.854  -7.409  23.732  0.00  0.00    -0.386 OA
ATOM     31  H   UNL     1       5.306  -6.611  23.399  0.00  0.00    +0.210 HD
ENDBRANCH  28  30
BRANCH  27  32
ATOM     32  O   UNL     1       2.920  -7.040  26.807  0.00  0.00    -0.386 OA
ATOM     33  H   UNL     1       3.203  -6.765  27.697  0.00  0.00    +0.210 HD
ENDBRANCH  27  32
BRANCH  29  34
ATOM     34  O   UNL     1       3.190  -5.268  22.906  0.00  0.00    -0.384 OA
ATOM     35  H   UNL     1       3.582  -6.012  22.415  0.00  0.00    +0.210 HD
ENDBRANCH  29  34
BRANCH  26  36
ATOM     36  C   UNL     1       5.712  -6.381  27.857  0.00  0.00    +0.190 C 
BRANCH  36  37
ATOM     37  O   UNL     1       5.352  -7.632  28.429  0.00  0.00    -0.392 OA
ATOM     38  H   UNL     1       6.107  -8.227  28.255  0.00  0.00    +0.210 HD
ENDBRANCH  36  37
ENDBRANCH  26  36
ENDBRANCH  23  24
ENDBRANCH  16  23
ENDBRANCH  12  13
ENDBRANCH   7  12
BRANCH   4  39
ATOM     39  O   UNL     1       6.809   2.738  25.417  0.00  0.00    -0.453 OA
BRANCH  39  40
ATOM     40  C   UNL     1       5.895   3.666  24.907  0.00  0.00    +0.214 A 
ATOM     41  C   UNL     1       4.492   3.269  24.574  0.00  0.00    +0.238 A 
ATOM     42  O   UNL     1       4.162   2.118  24.313  0.00  0.00    -0.283 OA
ATOM     43  C   UNL     1       3.498   4.314  24.453  0.00  0.00    +0.109 A 
ATOM     44  C   UNL     1       3.966   5.576  24.138  0.00  0.00    +0.147 A 
ATOM     45  C   UNL     1       3.040   6.546  23.754  0.00  0.00    +0.092 A 
ATOM     46  C   UNL     1       1.677   6.207  23.677  0.00  0.00    +0.124 A 
ATOM     47  C   UNL     1       1.213   4.951  24.048  0.00  0.00    +0.091 A 
ATOM     48  O   UNL     1       5.304   5.904  24.167  0.00  0.00    -0.451 OA
ATOM     49  C   UNL     1       2.130   4.002  24.448  0.00  0.00    +0.135 A 
ATOM     50  C   UNL     1       6.227   4.954  24.639  0.00  0.00    +0.181 A 
BRANCH  50  51
ATOM     51  C   UNL     1       7.616   5.497  24.787  0.00  0.00    +0.025 A 
ATOM     52  C   UNL     1       8.030   6.088  25.999  0.00  0.00    +0.015 A 
ATOM     53  C   UNL     1       9.330   6.596  26.160  0.00  0.00    +0.050 A 
ATOM     54  C   UNL     1      10.226   6.521  25.109  0.00  0.00    +0.158 A 
ATOM     55  C   UNL     1       9.835   5.973  23.893  0.00  0.00    +0.159 A 
ATOM     56  C   UNL     1       8.540   5.480  23.722  0.00  0.00    +0.060 A 
BRANCH  55  57
ATOM     57  O   UNL     1      10.762   5.936  22.885  0.00  0.00    -0.503 OA
ATOM     58  H   UNL     1      11.212   5.074  22.921  0.00  0.00    +0.292 HD
ENDBRANCH  55  57
BRANCH  54  59
ATOM     59  O   UNL     1      11.498   6.992  25.272  0.00  0.00    -0.503 OA
ATOM     60  H   UNL     1      11.489   7.882  24.864  0.00  0.00    +0.292 HD
ENDBRANCH  54  59
ENDBRANCH  50  51
BRANCH  49  61
ATOM     61  O   UNL     1       1.693   2.772  24.861  0.00  0.00    -0.506 OA
ATOM     62  H   UNL     1       2.018   2.081  24.260  0.00  0.00    +0.292 HD
ENDBRANCH  49  61
BRANCH  46  63
ATOM     63  O   UNL     1       0.735   7.102  23.265  0.00  0.00    -0.507 OA
ATOM     64  H   UNL     1       0.638   7.044  22.303  0.00  0.00    +0.292 HD
ENDBRANCH  46  63
ENDBRANCH  39  40
ENDBRANCH   4  39
TORSDOF 20
ENDMDL
MODEL 5
REMARK VINA RESULT:      -6.6      1.820      4.225
REMARK  Name = 
REMARK  21 active torsions:
REMARK  status: ('A' for Active; 'I' for Inactive)
REMARK    1  A    between atoms: C_1  and  C_2
REMARK    2  A    between atoms: C_3  and  O_35
REMARK    3  A    between atoms: C_5  and  O_34
REMARK    4  A    between atoms: C_6  and  O_33
REMARK    5  A    between atoms: C_8  and  O_11
REMARK    6  A    between atoms: O_11  and  C_12
REMARK    7  A    between atoms: C_13  and  C_25
REMARK    8  A    between atoms: C_17  and  O_24
REMARK    9  A    between atoms: C_19  and  O_23
REMARK   10  A    between atoms: C_27  and  O_32
REMARK   11  A    between atoms: C_28  and  O_31
REMARK   12  A    between atoms: O_35  and  C_36
REMARK   13  A    between atoms: C_38  and  O_61
REMARK   14  A    between atoms: C_39  and  O_60
REMARK   15  A    between atoms: C_41  and  O_45
REMARK   16  A    between atoms: O_45  and  C_46
REMARK   17  A    between atoms: C_48  and  O_59
REMARK   18  A    between atoms: C_49  and  O_58
REMARK   19  A    between atoms: C_51  and  O_57
REMARK   20  A    between atoms: C_53  and  C_55
REMARK   21  A    between atoms: C_55  and  O_56
REMARK                            x       y       z     vdW  Elec       q    Type
REMARK                         _______ _______ _______ _____ _____    ______ ____
ROOT
ATOM      1  C   UNL     1       9.793  -0.151  21.491  0.00  0.00    +0.041 C 
ATOM      2  C   UNL     1       8.570  -0.619  22.274  0.00  0.00    +0.151 C 
ATOM      3  O   UNL     1       8.132   0.371  23.231  0.00  0.00    -0.334 OA
ATOM      4  C   UNL     1       8.977   0.484  24.382  0.00  0.00    +0.339 C 
ATOM      5  C   UNL     1       9.097  -0.868  25.140  0.00  0.00    +0.214 C 
ATOM      6  C   UNL     1       9.645  -1.902  24.153  0.00  0.00    +0.180 C 
ATOM      7  C   UNL     1       8.727  -2.024  22.912  0.00  0.00    +0.181 C 
ENDROOT
BRANCH   6   8
ATOM      8  O   UNL     1       9.815  -3.163  24.815  0.00  0.00    -0.386 OA
ATOM      9  H   UNL     1       9.305  -3.107  25.643  0.00  0.00    +0.210 HD
ENDBRANCH   6   8
BRANCH   5  10
ATOM     10  O   UNL     1       7.851  -1.305  25.732  0.00  0.00    -0.383 OA
ATOM     11  H   UNL     1       7.154  -0.773  25.304  0.00  0.00    +0.210 HD
ENDBRANCH   5  10
BRANCH   7  12
ATOM     12  O   UNL     1       7.476  -2.578  23.377  0.00  0.00    -0.340 OA
BRANCH  12  13
ATOM     13  C   UNL     1       6.906  -3.652  22.611  0.00  0.00    +0.282 C 
ATOM     14  O   UNL     1       5.498  -3.517  22.416  0.00  0.00    -0.346 OA
ATOM     15  C   UNL     1       4.776  -3.360  23.640  0.00  0.00    +0.197 C 
ATOM     16  C   UNL     1       5.002  -4.459  24.680  0.00  0.00    +0.178 C 
ATOM     17  C   UNL     1       6.476  -4.883  24.742  0.00  0.00    +0.179 C 
ATOM     18  C   UNL     1       7.104  -4.984  23.345  0.00  0.00    +0.201 C 
BRANCH  17  19
ATOM     19  O   UNL     1       7.255  -4.017  25.581  0.00  0.00    -0.386 OA
ATOM     20  H   UNL     1       6.893  -3.102  25.492  0.00  0.00    +0.210 HD
ENDBRANCH  17  19
BRANCH  18  21
ATOM     21  O   UNL     1       8.481  -5.356  23.453  0.00  0.00    -0.384 OA
ATOM     22  H   UNL     1       8.808  -4.938  24.273  0.00  0.00    +0.210 HD
ENDBRANCH  18  21
BRANCH  16  23
ATOM     23  O   UNL     1       4.131  -5.558  24.348  0.00  0.00    -0.341 OA
BRANCH  23  24
ATOM     24  C   UNL     1       2.813  -5.318  24.862  0.00  0.00    +0.282 C 
ATOM     25  O   UNL     1       2.795  -5.413  26.279  0.00  0.00    -0.341 OA
ATOM     26  C   UNL     1       2.996  -6.767  26.740  0.00  0.00    +0.178 C 
ATOM     27  C   UNL     1       1.794  -7.615  26.300  0.00  0.00    +0.177 C 
ATOM     28  C   UNL     1       1.770  -7.665  24.765  0.00  0.00    +0.179 C 
ATOM     29  C   UNL     1       1.779  -6.240  24.179  0.00  0.00    +0.201 C 
BRANCH  28  30
ATOM     30  O   UNL     1       2.860  -8.478  24.312  0.00  0.00    -0.386 OA
ATOM     31  H   UNL     1       2.901  -9.271  24.878  0.00  0.00    +0.210 HD
ENDBRANCH  28  30
BRANCH  27  32
ATOM     32  O   UNL     1       0.577  -7.021  26.761  0.00  0.00    -0.386 OA
ATOM     33  H   UNL     1      -0.130  -7.291  26.149  0.00  0.00    +0.210 HD
ENDBRANCH  27  32
BRANCH  29  34
ATOM     34  O   UNL     1       1.940  -6.295  22.755  0.00  0.00    -0.384 OA
ATOM     35  H   UNL     1       2.562  -7.013  22.543  0.00  0.00    +0.210 HD
ENDBRANCH  29  34
BRANCH  26  36
ATOM     36  C   UNL     1       3.222  -6.718  28.259  0.00  0.00    +0.190 C 
BRANCH  36  37
ATOM     37  O   UNL     1       4.299  -7.543  28.684  0.00  0.00    -0.392 OA
ATOM     38  H   UNL     1       4.127  -7.735  29.626  0.00  0.00    +0.210 HD
ENDBRANCH  36  37
ENDBRANCH  26  36
ENDBRANCH  23  24
ENDBRANCH  16  23
ENDBRANCH  12  13
ENDBRANCH   7  12
BRANCH   4  39
ATOM     39  O   UNL     1       8.516   1.512  25.279  0.00  0.00    -0.453 OA
BRANCH  39  40
ATOM     40  C   UNL     1       7.561   2.384  24.747  0.00  0.00    +0.214 A 
ATOM     41  C   UNL     1       6.113   2.013  24.704  0.00  0.00    +0.238 A 
ATOM     42  O   UNL     1       5.713   0.855  24.712  0.00  0.00    -0.283 OA
ATOM     43  C   UNL     1       5.141   3.074  24.541  0.00  0.00    +0.109 A 
ATOM     44  C   UNL     1       5.590   4.231  23.933  0.00  0.00    +0.147 A 
ATOM     45  C   UNL     1       4.643   5.169  23.518  0.00  0.00    +0.092 A 
ATOM     46  C   UNL     1       3.276   4.898  23.707  0.00  0.00    +0.124 A 
ATOM     47  C   UNL     1       2.840   3.757  24.368  0.00  0.00    +0.091 A 
ATOM     48  O   UNL     1       6.925   4.484  23.703  0.00  0.00    -0.451 OA
ATOM     49  C   UNL     1       3.781   2.843  24.796  0.00  0.00    +0.135 A 
ATOM     50  C   UNL     1       7.883   3.583  24.200  0.00  0.00    +0.181 A 
BRANCH  50  51
ATOM     51  C   UNL     1       9.293   4.064  24.038  0.00  0.00    +0.025 A 
ATOM     52  C   UNL     1      10.245   3.279  23.356  0.00  0.00    +0.015 A 
ATOM     53  C   UNL     1      11.570   3.715  23.187  0.00  0.00    +0.050 A 
ATOM     54  C   UNL     1      11.955   4.940  23.702  0.00  0.00    +0.158 A 
ATOM     55  C   UNL     1      11.046   5.720  24.407  0.00  0.00    +0.159 A 
ATOM     56  C   UNL     1       9.732   5.285  24.590  0.00  0.00    +0.060 A 
BRANCH  55  57
ATOM     57  O   UNL     1      11.487   6.918  24.903  0.00  0.00    -0.503 OA
ATOM     58  H   UNL     1      12.460   6.906  24.899  0.00  0.00    +0.292 HD
ENDBRANCH  55  57
BRANCH  54  59
ATOM     59  O   UNL     1      13.236   5.377  23.517  0.00  0.00    -0.503 OA
ATOM     60  H   UNL     1      13.788   4.573  23.601  0.00  0.00    +0.292 HD
ENDBRANCH  54  59
ENDBRANCH  50  51
BRANCH  49  61
ATOM     61  O   UNL     1       3.379   1.733  25.488  0.00  0.00    -0.506 OA
ATOM     62  H   UNL     1       2.419   1.612  25.402  0.00  0.00    +0.292 HD
ENDBRANCH  49  61
BRANCH  46  63
ATOM     63  O   UNL     1       2.307   5.756  23.281  0.00  0.00    -0.507 OA
ATOM     64  H   UNL     1       1.479   5.558  23.741  0.00  0.00    +0.292 HD
ENDBRANCH  46  63
ENDBRANCH  39  40
ENDBRANCH   4  39
TORSDOF 20
ENDMDL
MODEL 6
REMARK VINA RESULT:      -6.6      0.821      2.068
REMARK  Name = 
REMARK  21 active torsions:
REMARK  status: ('A' for Active; 'I' for Inactive)
REMARK    1  A    between atoms: C_1  and  C_2
REMARK    2  A    between atoms: C_3  and  O_35
REMARK    3  A    between atoms: C_5  and  O_34
REMARK    4  A    between atoms: C_6  and  O_33
REMARK    5  A    between atoms: C_8  and  O_11
REMARK    6  A    between atoms: O_11  and  C_12
REMARK    7  A    between atoms: C_13  and  C_25
REMARK    8  A    between atoms: C_17  and  O_24
REMARK    9  A    between atoms: C_19  and  O_23
REMARK   10  A    between atoms: C_27  and  O_32
REMARK   11  A    between atoms: C_28  and  O_31
REMARK   12  A    between atoms: O_35  and  C_36
REMARK   13  A    between atoms: C_38  and  O_61
REMARK   14  A    between atoms: C_39  and  O_60
REMARK   15  A    between atoms: C_41  and  O_45
REMARK   16  A    between atoms: O_45  and  C_46
REMARK   17  A    between atoms: C_48  and  O_59
REMARK   18  A    between atoms: C_49  and  O_58
REMARK   19  A    between atoms: C_51  and  O_57
REMARK   20  A    between atoms: C_53  and  C_55
REMARK   21  A    between atoms: C_55  and  O_56
REMARK                            x       y       z     vdW  Elec       q    Type
REMARK                         _______ _______ _______ _____ _____    ______ ____
ROOT
ATOM      1  C   UNL     1       9.435  -0.104  21.468  0.00  0.00    +0.041 C 
ATOM      2  C   UNL     1       8.338  -0.799  22.268  0.00  0.00    +0.151 C 
ATOM      3  O   UNL     1       7.934  -0.020  23.417  0.00  0.00    -0.334 OA
ATOM      4  C   UNL     1       8.885  -0.023  24.487  0.00  0.00    +0.339 C 
ATOM      5  C   UNL     1       9.181  -1.464  24.988  0.00  0.00    +0.214 C 
ATOM      6  C   UNL     1       9.693  -2.272  23.793  0.00  0.00    +0.180 C 
ATOM      7  C   UNL     1       8.660  -2.270  22.640  0.00  0.00    +0.181 C 
ENDROOT
BRANCH   6   8
ATOM      8  O   UNL     1      10.022  -3.603  24.211  0.00  0.00    -0.386 OA
ATOM      9  H   UNL     1       9.174  -4.050  24.389  0.00  0.00    +0.210 HD
ENDBRANCH   6   8
BRANCH   5  10
ATOM     10  O   UNL     1       8.038  -2.100  25.610  0.00  0.00    -0.383 OA
ATOM     11  H   UNL     1       7.315  -1.446  25.565  0.00  0.00    +0.210 HD
ENDBRANCH   5  10
BRANCH   7  12
ATOM     12  O   UNL     1       7.508  -3.000  23.115  0.00  0.00    -0.340 OA
BRANCH  12  13
ATOM     13  C   UNL     1       6.907  -3.943  22.214  0.00  0.00    +0.282 C 
ATOM     14  O   UNL     1       5.525  -3.683  21.968  0.00  0.00    -0.346 OA
ATOM     15  C   UNL     1       4.749  -3.597  23.166  0.00  0.00    +0.197 C 
ATOM     16  C   UNL     1       4.839  -4.811  24.092  0.00  0.00    +0.178 C 
ATOM     17  C   UNL     1       6.274  -5.350  24.180  0.00  0.00    +0.179 C 
ATOM     18  C   UNL     1       6.970  -5.355  22.811  0.00  0.00    +0.201 C 
BRANCH  17  19
ATOM     19  O   UNL     1       7.065  -4.636  25.142  0.00  0.00    -0.386 OA
ATOM     20  H   UNL     1       7.986  -4.574  24.791  0.00  0.00    +0.210 HD
ENDBRANCH  17  19
BRANCH  18  21
ATOM     21  O   UNL     1       8.309  -5.839  22.945  0.00  0.00    -0.384 OA
ATOM     22  H   UNL     1       8.490  -6.356  22.136  0.00  0.00    +0.210 HD
ENDBRANCH  18  21
BRANCH  16  23
ATOM     23  O   UNL     1       3.913  -5.801  23.605  0.00  0.00    -0.341 OA
BRANCH  23  24
ATOM     24  C   UNL     1       3.682  -6.800  24.607  0.00  0.00    +0.282 C 
ATOM     25  O   UNL     1       3.053  -7.945  24.048  0.00  0.00    -0.341 OA
ATOM     26  C   UNL     1       1.691  -7.681  23.645  0.00  0.00    +0.178 C 
ATOM     27  C   UNL     1       0.861  -7.383  24.903  0.00  0.00    +0.177 C 
ATOM     28  C   UNL     1       1.395  -6.094  25.544  0.00  0.00    +0.179 C 
ATOM     29  C   UNL     1       2.908  -6.210  25.806  0.00  0.00    +0.201 C 
BRANCH  28  30
ATOM     30  O   UNL     1       1.041  -4.983  24.712  0.00  0.00    -0.386 OA
ATOM     31  H   UNL     1       1.315  -5.190  23.799  0.00  0.00    +0.210 HD
ENDBRANCH  28  30
BRANCH  27  32
ATOM     32  O   UNL     1       0.989  -8.454  25.843  0.00  0.00    -0.386 OA
ATOM     33  H   UNL     1       1.061  -9.281  25.336  0.00  0.00    +0.210 HD
ENDBRANCH  27  32
BRANCH  29  34
ATOM     34  O   UNL     1       3.432  -4.945  26.234  0.00  0.00    -0.384 OA
ATOM     35  H   UNL     1       4.208  -4.732  25.687  0.00  0.00    +0.210 HD
ENDBRANCH  29  34
BRANCH  26  36
ATOM     36  C   UNL     1       1.201  -8.885  22.827  0.00  0.00    +0.190 C 
BRANCH  36  37
ATOM     37  O   UNL     1       1.328  -8.687  21.424  0.00  0.00    -0.392 OA
ATOM     38  H   UNL     1       0.708  -9.318  21.012  0.00  0.00    +0.210 HD
ENDBRANCH  36  37
ENDBRANCH  26  36
ENDBRANCH  23  24
ENDBRANCH  16  23
ENDBRANCH  12  13
ENDBRANCH   7  12
BRANCH   4  39
ATOM     39  O   UNL     1       8.450   0.800  25.586  0.00  0.00    -0.453 OA
BRANCH  39  40
ATOM     40  C   UNL     1       7.538   1.807  25.251  0.00  0.00    +0.214 A 
ATOM     41  C   UNL     1       7.992   3.083  24.617  0.00  0.00    +0.238 A 
ATOM     42  O   UNL     1       9.130   3.523  24.726  0.00  0.00    -0.283 OA
ATOM     43  C   UNL     1       7.008   3.890  23.927  0.00  0.00    +0.109 A 
ATOM     44  C   UNL     1       5.693   3.728  24.322  0.00  0.00    +0.147 A 
ATOM     45  C   UNL     1       4.752   4.660  23.881  0.00  0.00    +0.092 A 
ATOM     46  C   UNL     1       5.170   5.735  23.077  0.00  0.00    +0.124 A 
ATOM     47  C   UNL     1       6.484   5.856  22.642  0.00  0.00    +0.091 A 
ATOM     48  O   UNL     1       5.282   2.703  25.147  0.00  0.00    -0.451 OA
ATOM     49  C   UNL     1       7.406   4.921  23.063  0.00  0.00    +0.135 A 
ATOM     50  C   UNL     1       6.211   1.716  25.518  0.00  0.00    +0.181 A 
BRANCH  50  51
ATOM     51  C   UNL     1       5.596   0.571  26.264  0.00  0.00    +0.025 A 
ATOM     52  C   UNL     1       5.229  -0.611  25.587  0.00  0.00    +0.015 A 
ATOM     53  C   UNL     1       4.658  -1.699  26.268  0.00  0.00    +0.050 A 
ATOM     54  C   UNL     1       4.445  -1.612  27.633  0.00  0.00    +0.158 A 
ATOM     55  C   UNL     1       4.766  -0.448  28.319  0.00  0.00    +0.159 A 
ATOM     56  C   UNL     1       5.321   0.642  27.645  0.00  0.00    +0.060 A 
BRANCH  55  57
ATOM     57  O   UNL     1       4.522  -0.416  29.666  0.00  0.00    -0.503 OA
ATOM     58  H   UNL     1       3.567  -0.279  29.797  0.00  0.00    +0.292 HD
ENDBRANCH  55  57
BRANCH  54  59
ATOM     59  O   UNL     1       3.912  -2.678  28.301  0.00  0.00    -0.503 OA
ATOM     60  H   UNL     1       4.350  -3.462  27.910  0.00  0.00    +0.292 HD
ENDBRANCH  54  59
ENDBRANCH  50  51
BRANCH  49  61
ATOM     61  O   UNL     1       8.697   4.993  22.612  0.00  0.00    -0.506 OA
ATOM     62  H   UNL     1       8.830   4.376  21.874  0.00  0.00    +0.292 HD
ENDBRANCH  49  61
BRANCH  46  63
ATOM     63  O   UNL     1       4.303   6.698  22.655  0.00  0.00    -0.507 OA
ATOM     64  H   UNL     1       4.645   7.103  21.844  0.00  0.00    +0.292 HD
ENDBRANCH  46  63
ENDBRANCH  39  40
ENDBRANCH   4  39
TORSDOF 20
ENDMDL
MODEL 7
REMARK VINA RESULT:      -6.4      1.831      2.458
REMARK  Name = 
REMARK  21 active torsions:
REMARK  status: ('A' for Active; 'I' for Inactive)
REMARK    1  A    between atoms: C_1  and  C_2
REMARK    2  A    between atoms: C_3  and  O_35
REMARK    3  A    between atoms: C_5  and  O_34
REMARK    4  A    between atoms: C_6  and  O_33
REMARK    5  A    between atoms: C_8  and  O_11
REMARK    6  A    between atoms: O_11  and  C_12
REMARK    7  A    between atoms: C_13  and  C_25
REMARK    8  A    between atoms: C_17  and  O_24
REMARK    9  A    between atoms: C_19  and  O_23
REMARK   10  A    between atoms: C_27  and  O_32
REMARK   11  A    between atoms: C_28  and  O_31
REMARK   12  A    between atoms: O_35  and  C_36
REMARK   13  A    between atoms: C_38  and  O_61
REMARK   14  A    between atoms: C_39  and  O_60
REMARK   15  A    between atoms: C_41  and  O_45
REMARK   16  A    between atoms: O_45  and  C_46
REMARK   17  A    between atoms: C_48  and  O_59
REMARK   18  A    between atoms: C_49  and  O_58
REMARK   19  A    between atoms: C_51  and  O_57
REMARK   20  A    between atoms: C_53  and  C_55
REMARK   21  A    between atoms: C_55  and  O_56
REMARK                            x       y       z     vdW  Elec       q    Type
REMARK                         _______ _______ _______ _____ _____    ______ ____
ROOT
ATOM      1  C   UNL     1       8.349   1.838  21.275  0.00  0.00    +0.041 C 
ATOM      2  C   UNL     1       7.998   0.842  22.376  0.00  0.00    +0.151 C 
ATOM      3  O   UNL     1       7.364   1.487  23.503  0.00  0.00    -0.334 OA
ATOM      4  C   UNL     1       8.260   2.255  24.315  0.00  0.00    +0.339 C 
ATOM      5  C   UNL     1       9.418   1.382  24.875  0.00  0.00    +0.214 C 
ATOM      6  C   UNL     1      10.149   0.765  23.680  0.00  0.00    +0.180 C 
ATOM      7  C   UNL     1       9.179  -0.067  22.807  0.00  0.00    +0.181 C 
ENDROOT
BRANCH   6   8
ATOM      8  O   UNL     1      11.257  -0.020  24.140  0.00  0.00    -0.386 OA
ATOM      9  H   UNL     1      10.917  -0.570  24.868  0.00  0.00    +0.210 HD
ENDBRANCH   6   8
BRANCH   5  10
ATOM     10  O   UNL     1       8.971   0.368  25.807  0.00  0.00    -0.383 OA
ATOM     11  H   UNL     1       8.857   0.826  26.661  0.00  0.00    +0.210 HD
ENDBRANCH   5  10
BRANCH   7  12
ATOM     12  O   UNL     1       8.762  -1.194  23.610  0.00  0.00    -0.340 OA
BRANCH  12  13
ATOM     13  C   UNL     1       8.486  -2.425  22.924  0.00  0.00    +0.282 C 
ATOM     14  O   UNL     1       7.183  -2.464  22.342  0.00  0.00    -0.346 OA
ATOM     15  C   UNL     1       6.141  -2.189  23.282  0.00  0.00    +0.197 C 
ATOM     16  C   UNL     1       6.127  -3.084  24.523  0.00  0.00    +0.178 C 
ATOM     17  C   UNL     1       7.545  -3.344  25.049  0.00  0.00    +0.179 C 
ATOM     18  C   UNL     1       8.542  -3.600  23.909  0.00  0.00    +0.201 C 
BRANCH  17  19
ATOM     19  O   UNL     1       8.013  -2.284  25.897  0.00  0.00    -0.386 OA
ATOM     20  H   UNL     1       7.353  -1.550  25.857  0.00  0.00    +0.210 HD
ENDBRANCH  17  19
BRANCH  18  21
ATOM     21  O   UNL     1       9.851  -3.811  24.443  0.00  0.00    -0.384 OA
ATOM     22  H   UNL     1       9.817  -3.501  25.369  0.00  0.00    +0.210 HD
ENDBRANCH  18  21
BRANCH  16  23
ATOM     23  O   UNL     1       5.441  -4.302  24.173  0.00  0.00    -0.341 OA
BRANCH  23  24
ATOM     24  C   UNL     1       4.256  -4.451  24.968  0.00  0.00    +0.282 C 
ATOM     25  O   UNL     1       4.582  -4.809  26.304  0.00  0.00    -0.341 OA
ATOM     26  C   UNL     1       5.111  -6.150  26.398  0.00  0.00    +0.178 C 
ATOM     27  C   UNL     1       4.001  -7.139  26.012  0.00  0.00    +0.177 C 
ATOM     28  C   UNL     1       3.633  -6.907  24.539  0.00  0.00    +0.179 C 
ATOM     29  C   UNL     1       3.266  -5.430  24.302  0.00  0.00    +0.201 C 
BRANCH  28  30
ATOM     30  O   UNL     1       4.711  -7.368  23.715  0.00  0.00    -0.386 OA
ATOM     31  H   UNL     1       4.343  -7.621  22.848  0.00  0.00    +0.210 HD
ENDBRANCH  28  30
BRANCH  27  32
ATOM     32  O   UNL     1       2.840  -6.917  26.818  0.00  0.00    -0.386 OA
ATOM     33  H   UNL     1       3.146  -6.649  27.702  0.00  0.00    +0.210 HD
ENDBRANCH  27  32
BRANCH  29  34
ATOM     34  O   UNL     1       3.100  -5.183  22.899  0.00  0.00    -0.384 OA
ATOM     35  H   UNL     1       3.940  -4.837  22.546  0.00  0.00    +0.210 HD
ENDBRANCH  29  34
BRANCH  26  36
ATOM     36  C   UNL     1       5.668  -6.337  27.817  0.00  0.00    +0.190 C 
BRANCH  36  37
ATOM     37  O   UNL     1       5.304  -7.586  28.393  0.00  0.00    -0.392 OA
ATOM     38  H   UNL     1       6.079  -8.167  28.271  0.00  0.00    +0.210 HD
ENDBRANCH  36  37
ENDBRANCH  26  36
ENDBRANCH  23  24
ENDBRANCH  16  23
ENDBRANCH  12  13
ENDBRANCH   7  12
BRANCH   4  39
ATOM     39  O   UNL     1       7.567   2.906  25.397  0.00  0.00    -0.453 OA
BRANCH  39  40
ATOM     40  C   UNL     1       6.385   3.563  25.039  0.00  0.00    +0.214 A 
ATOM     41  C   UNL     1       6.411   4.800  24.199  0.00  0.00    +0.238 A 
ATOM     42  O   UNL     1       7.382   5.544  24.123  0.00  0.00    -0.283 OA
ATOM     43  C   UNL     1       5.192   5.192  23.524  0.00  0.00    +0.109 A 
ATOM     44  C   UNL     1       4.009   4.743  24.080  0.00  0.00    +0.147 A 
ATOM     45  C   UNL     1       2.812   5.303  23.630  0.00  0.00    +0.092 A 
ATOM     46  C   UNL     1       2.849   6.313  22.652  0.00  0.00    +0.124 A 
ATOM     47  C   UNL     1       4.040   6.718  22.062  0.00  0.00    +0.091 A 
ATOM     48  O   UNL     1       3.966   3.786  25.071  0.00  0.00    -0.451 OA
ATOM     49  C   UNL     1       5.218   6.145  22.495  0.00  0.00    +0.135 A 
ATOM     50  C   UNL     1       5.161   3.157  25.461  0.00  0.00    +0.181 A 
BRANCH  50  51
ATOM     51  C   UNL     1       4.952   2.018  26.412  0.00  0.00    +0.025 A 
ATOM     52  C   UNL     1       4.999   0.685  25.956  0.00  0.00    +0.015 A 
ATOM     53  C   UNL     1       4.812  -0.397  26.832  0.00  0.00    +0.050 A 
ATOM     54  C   UNL     1       4.573  -0.155  28.173  0.00  0.00    +0.158 A 
ATOM     55  C   UNL     1       4.490   1.150  28.645  0.00  0.00    +0.159 A 
ATOM     56  C   UNL     1       4.660   2.229  27.775  0.00  0.00    +0.060 A 
BRANCH  55  57
ATOM     57  O   UNL     1       4.240   1.328  29.979  0.00  0.00    -0.503 OA
ATOM     58  H   UNL     1       3.994   2.260  30.118  0.00  0.00    +0.292 HD
ENDBRANCH  55  57
BRANCH  54  59
ATOM     59  O   UNL     1       4.416  -1.206  29.031  0.00  0.00    -0.503 OA
ATOM     60  H   UNL     1       3.671  -0.947  29.610  0.00  0.00    +0.292 HD
ENDBRANCH  54  59
ENDBRANCH  50  51
BRANCH  49  61
ATOM     61  O   UNL     1       6.399   6.494  21.898  0.00  0.00    -0.506 OA
ATOM     62  H   UNL     1       6.635   5.845  21.215  0.00  0.00    +0.292 HD
ENDBRANCH  49  61
BRANCH  46  63
ATOM     63  O   UNL     1       1.717   6.927  22.208  0.00  0.00    -0.507 OA
ATOM     64  H   UNL     1       1.313   7.420  22.938  0.00  0.00    +0.292 HD
ENDBRANCH  46  63
ENDBRANCH  39  40
ENDBRANCH   4  39
TORSDOF 20
ENDMDL
MODEL 8
REMARK VINA RESULT:      -6.3      1.538      4.752
REMARK  Name = 
REMARK  21 active torsions:
REMARK  status: ('A' for Active; 'I' for Inactive)
REMARK    1  A    between atoms: C_1  and  C_2
REMARK    2  A    between atoms: C_3  and  O_35
REMARK    3  A    between atoms: C_5  and  O_34
REMARK    4  A    between atoms: C_6  and  O_33
REMARK    5  A    between atoms: C_8  and  O_11
REMARK    6  A    between atoms: O_11  and  C_12
REMARK    7  A    between atoms: C_13  and  C_25
REMARK    8  A    between atoms: C_17  and  O_24
REMARK    9  A    between atoms: C_19  and  O_23
REMARK   10  A    between atoms: C_27  and  O_32
REMARK   11  A    between atoms: C_28  and  O_31
REMARK   12  A    between atoms: O_35  and  C_36
REMARK   13  A    between atoms: C_38  and  O_61
REMARK   14  A    between atoms: C_39  and  O_60
REMARK   15  A    between atoms: C_41  and  O_45
REMARK   16  A    between atoms: O_45  and  C_46
REMARK   17  A    between atoms: C_48  and  O_59
REMARK   18  A    between atoms: C_49  and  O_58
REMARK   19  A    between atoms: C_51  and  O_57
REMARK   20  A    between atoms: C_53  and  C_55
REMARK   21  A    between atoms: C_55  and  O_56
REMARK                            x       y       z     vdW  Elec       q    Type
REMARK                         _______ _______ _______ _____ _____    ______ ____
ROOT
ATOM      1  C   UNL     1       8.441   0.467  21.719  0.00  0.00    +0.041 C 
ATOM      2  C   UNL     1       7.747  -0.549  22.621  0.00  0.00    +0.151 C 
ATOM      3  O   UNL     1       7.449   0.002  23.923  0.00  0.00    -0.334 OA
ATOM      4  C   UNL     1       8.595   0.152  24.769  0.00  0.00    +0.339 C 
ATOM      5  C   UNL     1       9.321  -1.203  24.998  0.00  0.00    +0.214 C 
ATOM      6  C   UNL     1       9.717  -1.750  23.624  0.00  0.00    +0.180 C 
ATOM      7  C   UNL     1       8.476  -1.915  22.714  0.00  0.00    +0.181 C 
ENDROOT
BRANCH   6   8
ATOM      8  O   UNL     1      10.430  -2.985  23.780  0.00  0.00    -0.386 OA
ATOM      9  H   UNL     1      11.329  -2.745  24.070  0.00  0.00    +0.210 HD
ENDBRANCH   6   8
BRANCH   5  10
ATOM     10  O   UNL     1       8.529  -2.158  25.743  0.00  0.00    -0.383 OA
ATOM     11  H   UNL     1       8.563  -1.862  26.672  0.00  0.00    +0.210 HD
ENDBRANCH   5  10
BRANCH   7  12
ATOM     12  O   UNL     1       7.663  -2.952  23.307  0.00  0.00    -0.340 OA
BRANCH  12  13
ATOM     13  C   UNL     1       6.238  -2.773  23.271  0.00  0.00    +0.282 C 
ATOM     14  O   UNL     1       5.626  -2.884  24.557  0.00  0.00    -0.346 OA
ATOM     15  C   UNL     1       5.943  -4.108  25.224  0.00  0.00    +0.197 C 
ATOM     16  C   UNL     1       5.623  -5.383  24.442  0.00  0.00    +0.178 C 
ATOM     17  C   UNL     1       5.982  -5.239  22.956  0.00  0.00    +0.179 C 
ATOM     18  C   UNL     1       5.593  -3.860  22.403  0.00  0.00    +0.201 C 
BRANCH  17  19
ATOM     19  O   UNL     1       7.370  -5.507  22.704  0.00  0.00    -0.386 OA
ATOM     20  H   UNL     1       7.704  -6.085  23.431  0.00  0.00    +0.210 HD
ENDBRANCH  17  19
BRANCH  18  21
ATOM     21  O   UNL     1       5.968  -3.762  21.026  0.00  0.00    -0.384 OA
ATOM     22  H   UNL     1       5.595  -4.552  20.589  0.00  0.00    +0.210 HD
ENDBRANCH  18  21
BRANCH  16  23
ATOM     23  O   UNL     1       4.227  -5.677  24.641  0.00  0.00    -0.341 OA
BRANCH  23  24
ATOM     24  C   UNL     1       4.077  -6.931  25.322  0.00  0.00    +0.282 C 
ATOM     25  O   UNL     1       3.427  -7.885  24.494  0.00  0.00    -0.341 OA
ATOM     26  C   UNL     1       2.038  -7.559  24.269  0.00  0.00    +0.178 C 
ATOM     27  C   UNL     1       1.291  -7.664  25.606  0.00  0.00    +0.177 C 
ATOM     28  C   UNL     1       1.850  -6.598  26.561  0.00  0.00    +0.179 C 
ATOM     29  C   UNL     1       3.379  -6.736  26.686  0.00  0.00    +0.201 C 
BRANCH  28  30
ATOM     30  O   UNL     1       1.426  -5.306  26.110  0.00  0.00    -0.386 OA
ATOM     31  H   UNL     1       0.567  -5.410  25.659  0.00  0.00    +0.210 HD
ENDBRANCH  28  30
BRANCH  27  32
ATOM     32  O   UNL     1       1.496  -8.956  26.186  0.00  0.00    -0.386 OA
ATOM     33  H   UNL     1       2.029  -8.834  26.991  0.00  0.00    +0.210 HD
ENDBRANCH  27  32
BRANCH  29  34
ATOM     34  O   UNL     1       3.913  -5.632  27.430  0.00  0.00    -0.384 OA
ATOM     35  H   UNL     1       4.233  -4.962  26.800  0.00  0.00    +0.210 HD
ENDBRANCH  29  34
BRANCH  26  36
ATOM     36  C   UNL     1       1.510  -8.491  23.167  0.00  0.00    +0.190 C 
BRANCH  36  37
ATOM     37  O   UNL     1       1.630  -7.929  21.866  0.00  0.00    -0.392 OA
ATOM     38  H   UNL     1       2.401  -8.370  21.460  0.00  0.00    +0.210 HD
ENDBRANCH  36  37
ENDBRANCH  26  36
ENDBRANCH  23  24
ENDBRANCH  16  23
ENDBRANCH  12  13
ENDBRANCH   7  12
BRANCH   4  39
ATOM     39  O   UNL     1       8.245   0.743  26.036  0.00  0.00    -0.453 OA
BRANCH  39  40
ATOM     40  C   UNL     1       6.893   1.067  26.189  0.00  0.00    +0.214 A 
ATOM     41  C   UNL     1       5.934   0.108  26.819  0.00  0.00    +0.238 A 
ATOM     42  O   UNL     1       6.114  -1.103  26.850  0.00  0.00    -0.283 OA
ATOM     43  C   UNL     1       4.681   0.629  27.324  0.00  0.00    +0.109 A 
ATOM     44  C   UNL     1       4.230   1.806  26.757  0.00  0.00    +0.147 A 
ATOM     45  C   UNL     1       2.918   2.204  27.016  0.00  0.00    +0.092 A 
ATOM     46  C   UNL     1       2.097   1.392  27.818  0.00  0.00    +0.124 A 
ATOM     47  C   UNL     1       2.578   0.239  28.427  0.00  0.00    +0.091 A 
ATOM     48  O   UNL     1       5.014   2.585  25.933  0.00  0.00    -0.451 OA
ATOM     49  C   UNL     1       3.883  -0.138  28.185  0.00  0.00    +0.135 A 
ATOM     50  C   UNL     1       6.361   2.233  25.744  0.00  0.00    +0.181 A 
BRANCH  50  51
ATOM     51  C   UNL     1       7.141   3.256  24.975  0.00  0.00    +0.025 A 
ATOM     52  C   UNL     1       8.179   3.982  25.596  0.00  0.00    +0.015 A 
ATOM     53  C   UNL     1       8.927   4.939  24.891  0.00  0.00    +0.050 A 
ATOM     54  C   UNL     1       8.641   5.182  23.559  0.00  0.00    +0.158 A 
ATOM     55  C   UNL     1       7.603   4.505  22.931  0.00  0.00    +0.159 A 
ATOM     56  C   UNL     1       6.847   3.562  23.631  0.00  0.00    +0.060 A 
BRANCH  55  57
ATOM     57  O   UNL     1       7.359   4.796  21.616  0.00  0.00    -0.503 OA
ATOM     58  H   UNL     1       7.249   5.759  21.535  0.00  0.00    +0.292 HD
ENDBRANCH  55  57
BRANCH  54  59
ATOM     59  O   UNL     1       9.384   6.096  22.866  0.00  0.00    -0.503 OA
ATOM     60  H   UNL     1       8.744   6.541  22.275  0.00  0.00    +0.292 HD
ENDBRANCH  54  59
ENDBRANCH  50  51
BRANCH  49  61
ATOM     61  O   UNL     1       4.393  -1.245  28.809  0.00  0.00    -0.506 OA
ATOM     62  H   UNL     1       4.138  -1.249  29.746  0.00  0.00    +0.292 HD
ENDBRANCH  49  61
BRANCH  46  63
ATOM     63  O   UNL     1       0.795   1.707  28.067  0.00  0.00    -0.507 OA
ATOM     64  H   UNL     1       0.555   1.400  28.954  0.00  0.00    +0.292 HD
ENDBRANCH  46  63
ENDBRANCH  39  40
ENDBRANCH   4  39
TORSDOF 20
ENDMDL
MODEL 9
REMARK VINA RESULT:      -6.0      2.058      5.417
REMARK  Name = 
REMARK  21 active torsions:
REMARK  status: ('A' for Active; 'I' for Inactive)
REMARK    1  A    between atoms: C_1  and  C_2
REMARK    2  A    between atoms: C_3  and  O_35
REMARK    3  A    between atoms: C_5  and  O_34
REMARK    4  A    between atoms: C_6  and  O_33
REMARK    5  A    between atoms: C_8  and  O_11
REMARK    6  A    between atoms: O_11  and  C_12
REMARK    7  A    between atoms: C_13  and  C_25
REMARK    8  A    between atoms: C_17  and  O_24
REMARK    9  A    between atoms: C_19  and  O_23
REMARK   10  A    between atoms: C_27  and  O_32
REMARK   11  A    between atoms: C_28  and  O_31
REMARK   12  A    between atoms: O_35  and  C_36
REMARK   13  A    between atoms: C_38  and  O_61
REMARK   14  A    between atoms: C_39  and  O_60
REMARK   15  A    between atoms: C_41  and  O_45
REMARK   16  A    between atoms: O_45  and  C_46
REMARK   17  A    between atoms: C_48  and  O_59
REMARK   18  A    between atoms: C_49  and  O_58
REMARK   19  A    between atoms: C_51  and  O_57
REMARK   20  A    between atoms: C_53  and  C_55
REMARK   21  A    between atoms: C_55  and  O_56
REMARK                            x       y       z     vdW  Elec       q    Type
REMARK                         _______ _______ _______ _____ _____    ______ ____
ROOT
ATOM      1  C   UNL     1       7.516   1.273  28.844  0.00  0.00    +0.041 C 
ATOM      2  C   UNL     1       6.421   0.474  28.142  0.00  0.00    +0.151 C 
ATOM      3  O   UNL     1       6.564   0.512  26.705  0.00  0.00    -0.334 OA
ATOM      4  C   UNL     1       6.198   1.765  26.116  0.00  0.00    +0.339 C 
ATOM      5  C   UNL     1       4.726   2.144  26.442  0.00  0.00    +0.214 C 
ATOM      6  C   UNL     1       4.590   2.192  27.966  0.00  0.00    +0.180 C 
ATOM      7  C   UNL     1       4.983   0.835  28.600  0.00  0.00    +0.181 C 
ENDROOT
BRANCH   6   8
ATOM      8  O   UNL     1       3.257   2.579  28.324  0.00  0.00    -0.386 OA
ATOM      9  H   UNL     1       3.301   2.883  29.248  0.00  0.00    +0.210 HD
ENDBRANCH   6   8
BRANCH   5  10
ATOM     10  O   UNL     1       3.758   1.246  25.849  0.00  0.00    -0.383 OA
ATOM     11  H   UNL     1       4.254   0.715  25.198  0.00  0.00    +0.210 HD
ENDBRANCH   5  10
BRANCH   7  12
ATOM     12  O   UNL     1       3.994  -0.126  28.168  0.00  0.00    -0.340 OA
BRANCH  12  13
ATOM     13  C   UNL     1       3.721  -1.231  29.045  0.00  0.00    +0.282 C 
ATOM     14  O   UNL     1       4.682  -2.281  28.939  0.00  0.00    -0.346 OA
ATOM     15  C   UNL     1       4.848  -2.756  27.600  0.00  0.00    +0.197 C 
ATOM     16  C   UNL     1       3.566  -3.221  26.906  0.00  0.00    +0.178 C 
ATOM     17  C   UNL     1       2.385  -2.291  27.219  0.00  0.00    +0.179 C 
ATOM     18  C   UNL     1       2.368  -1.860  28.693  0.00  0.00    +0.201 C 
BRANCH  17  19
ATOM     19  O   UNL     1       2.358  -1.141  26.359  0.00  0.00    -0.386 OA
ATOM     20  H   UNL     1       1.880  -0.418  26.835  0.00  0.00    +0.210 HD
ENDBRANCH  17  19
BRANCH  18  21
ATOM     21  O   UNL     1       1.269  -0.976  28.930  0.00  0.00    -0.384 OA
ATOM     22  H   UNL     1       1.112  -0.510  28.087  0.00  0.00    +0.210 HD
ENDBRANCH  18  21
BRANCH  16  23
ATOM     23  O   UNL     1       3.316  -4.579  27.319  0.00  0.00    -0.341 OA
BRANCH  23  24
ATOM     24  C   UNL     1       4.315  -5.453  26.776  0.00  0.00    +0.282 C 
ATOM     25  O   UNL     1       4.643  -5.085  25.444  0.00  0.00    -0.341 OA
ATOM     26  C   UNL     1       3.562  -5.344  24.521  0.00  0.00    +0.178 C 
ATOM     27  C   UNL     1       3.345  -6.862  24.440  0.00  0.00    +0.177 C 
ATOM     28  C   UNL     1       2.885  -7.362  25.818  0.00  0.00    +0.179 C 
ATOM     29  C   UNL     1       3.884  -6.930  26.908  0.00  0.00    +0.201 C 
BRANCH  28  30
ATOM     30  O   UNL     1       1.548  -6.905  26.053  0.00  0.00    -0.386 OA
ATOM     31  H   UNL     1       0.975  -7.273  25.354  0.00  0.00    +0.210 HD
ENDBRANCH  28  30
BRANCH  27  32
ATOM     32  O   UNL     1       4.569  -7.517  24.096  0.00  0.00    -0.386 OA
ATOM     33  H   UNL     1       5.112  -6.880  23.601  0.00  0.00    +0.210 HD
ENDBRANCH  27  32
BRANCH  29  34
ATOM     34  O   UNL     1       3.360  -7.241  28.206  0.00  0.00    -0.384 OA
ATOM     35  H   UNL     1       2.389  -7.271  28.147  0.00  0.00    +0.210 HD
ENDBRANCH  29  34
BRANCH  26  36
ATOM     36  C   UNL     1       3.916  -4.676  23.184  0.00  0.00    +0.190 C 
BRANCH  36  37
ATOM     37  O   UNL     1       5.289  -4.821  22.841  0.00  0.00    -0.392 OA
ATOM     38  H   UNL     1       5.788  -4.529  23.628  0.00  0.00    +0.210 HD
ENDBRANCH  36  37
ENDBRANCH  26  36
ENDBRANCH  23  24
ENDBRANCH  16  23
ENDBRANCH  12  13
ENDBRANCH   7  12
BRANCH   4  39
ATOM     39  O   UNL     1       6.399   1.758  24.689  0.00  0.00    -0.453 OA
BRANCH  39  40
ATOM     40  C   UNL     1       7.642   2.233  24.260  0.00  0.00    +0.214 A 
ATOM     41  C   UNL     1       7.903   3.699  24.113  0.00  0.00    +0.238 A 
ATOM     42  O   UNL     1       7.017   4.526  23.933  0.00  0.00    -0.283 OA
ATOM     43  C   UNL     1       9.278   4.147  24.076  0.00  0.00    +0.109 A 
ATOM     44  C   UNL     1      10.217   3.220  23.664  0.00  0.00    +0.147 A 
ATOM     45  C   UNL     1      11.502   3.672  23.360  0.00  0.00    +0.092 A 
ATOM     46  C   UNL     1      11.792   5.044  23.459  0.00  0.00    +0.124 A 
ATOM     47  C   UNL     1      10.856   5.959  23.926  0.00  0.00    +0.091 A 
ATOM     48  O   UNL     1       9.930   1.880  23.520  0.00  0.00    -0.451 OA
ATOM     49  C   UNL     1       9.594   5.503  24.246  0.00  0.00    +0.135 A 
ATOM     50  C   UNL     1       8.663   1.411  23.911  0.00  0.00    +0.181 A 
BRANCH  50  51
ATOM     51  C   UNL     1       8.544  -0.082  23.871  0.00  0.00    +0.025 A 
ATOM     52  C   UNL     1       9.166  -0.878  24.856  0.00  0.00    +0.015 A 
ATOM     53  C   UNL     1       9.061  -2.278  24.841  0.00  0.00    +0.050 A 
ATOM     54  C   UNL     1       8.334  -2.897  23.839  0.00  0.00    +0.158 A 
ATOM     55  C   UNL     1       7.737  -2.140  22.838  0.00  0.00    +0.159 A 
ATOM     56  C   UNL     1       7.851  -0.748  22.840  0.00  0.00    +0.060 A 
BRANCH  55  57
ATOM     57  O   UNL     1       7.040  -2.807  21.867  0.00  0.00    -0.503 OA
ATOM     58  H   UNL     1       6.639  -2.146  21.275  0.00  0.00    +0.292 HD
ENDBRANCH  55  57
BRANCH  54  59
ATOM     59  O   UNL     1       8.209  -4.257  23.838  0.00  0.00    -0.503 OA
ATOM     60  H   UNL     1       8.842  -4.566  24.518  0.00  0.00    +0.292 HD
ENDBRANCH  54  59
ENDBRANCH  50  51
BRANCH  49  61
ATOM     61  O   UNL     1       8.668   6.377  24.750  0.00  0.00    -0.506 OA
ATOM     62  H   UNL     1       8.671   7.202  24.238  0.00  0.00    +0.292 HD
ENDBRANCH  49  61
BRANCH  46  63
ATOM     63  O   UNL     1      13.016   5.547  23.132  0.00  0.00    -0.507 OA
ATOM     64  H   UNL     1      13.693   5.120  23.677  0.00  0.00    +0.292 HD
ENDBRANCH  46  63
ENDBRANCH  39  40
ENDBRANCH   4  39
TORSDOF 20
ENDMDL
