MODEL 1
REMARK VINA RESULT:      -7.0      0.000      0.000
REMARK  Name = 
REMARK  21 active torsions:
REMARK  status: ('A' for Active; 'I' for Inactive)
REMARK    1  A    between atoms: C_1  and  C_2
REMARK    2  A    between atoms: C_4  and  O_66
REMARK    3  A    between atoms: C_6  and  O_65
REMARK    4  A    between atoms: C_8  and  O_64
REMARK    5  A    between atoms: C_10  and  O_13
REMARK    6  A    between atoms: O_13  and  C_14
REMARK    7  A    between atoms: C_16  and  O_63
REMARK    8  A    between atoms: C_18  and  O_62
REMARK    9  A    between atoms: C_22  and  O_24
REMARK   10  A    between atoms: O_24  and  C_25
REMARK   11  A    between atoms: C_26  and  C_54
REMARK   12  A    between atoms: C_30  and  O_37
REMARK   13  A    between atoms: C_32  and  O_36
REMARK   14  A    between atoms: O_37  and  C_38
REMARK   15  A    between atoms: C_40  and  O_53
REMARK   16  A    between atoms: C_42  and  O_52
REMARK   17  A    between atoms: C_44  and  O_51
REMARK   18  A    between atoms: C_46  and  C_49
REMARK   19  A    between atoms: C_49  and  O_50
REMARK   20  A    between atoms: C_56  and  O_61
REMARK   21  A    between atoms: C_57  and  O_60
REMARK                            x       y       z     vdW  Elec       q    Type
REMARK                         _______ _______ _______ _____ _____    ______ ____
ROOT
ATOM      1  C   UNL     1       5.408  -4.966  26.927  0.00  0.00    +0.214 A 
ATOM      2  C   UNL     1       6.753  -5.102  26.245  0.00  0.00    +0.238 A 
ATOM      3  O   UNL     1       7.107  -6.210  25.849  0.00  0.00    -0.283 OA
ATOM      4  C   UNL     1       7.562  -3.871  26.034  0.00  0.00    +0.109 A 
ATOM      5  C   UNL     1       7.077  -2.706  26.581  0.00  0.00    +0.147 A 
ATOM      6  C   UNL     1       7.688  -1.460  26.356  0.00  0.00    +0.093 A 
ATOM      7  C   UNL     1       8.837  -1.369  25.585  0.00  0.00    +0.131 A 
ATOM      8  C   UNL     1       9.376  -2.551  25.062  0.00  0.00    +0.092 A 
ATOM      9  O   UNL     1       5.974  -2.660  27.387  0.00  0.00    -0.451 OA
ATOM     10  C   UNL     1       8.750  -3.793  25.292  0.00  0.00    +0.135 A 
ATOM     11  C   UNL     1       5.138  -3.757  27.488  0.00  0.00    +0.181 A 
ENDROOT
BRANCH  11  12
ATOM     12  C   UNL     1       3.968  -3.295  28.262  0.00  0.00    +0.025 A 
ATOM     13  C   UNL     1       3.839  -3.690  29.602  0.00  0.00    +0.015 A 
ATOM     14  C   UNL     1       2.648  -3.455  30.304  0.00  0.00    +0.050 A 
ATOM     15  C   UNL     1       1.599  -2.807  29.672  0.00  0.00    +0.158 A 
ATOM     16  C   UNL     1       1.723  -2.390  28.354  0.00  0.00    +0.159 A 
ATOM     17  C   UNL     1       2.881  -2.669  27.626  0.00  0.00    +0.060 A 
BRANCH  16  18
ATOM     18  O   UNL     1       0.689  -1.663  27.825  0.00  0.00    -0.503 OA
ATOM     19  H   UNL     1      -0.145  -2.106  28.063  0.00  0.00    +0.292 HD
ENDBRANCH  16  18
BRANCH  15  20
ATOM     20  O   UNL     1       0.443  -2.579  30.359  0.00  0.00    -0.503 OA
ATOM     21  H   UNL     1       0.315  -3.375  30.912  0.00  0.00    +0.292 HD
ENDBRANCH  15  20
ENDBRANCH  11  12
BRANCH  10  22
ATOM     22  O   UNL     1       9.313  -4.927  24.769  0.00  0.00    -0.506 OA
ATOM     23  H   UNL     1       9.845  -4.719  23.984  0.00  0.00    +0.292 HD
ENDBRANCH  10  22
BRANCH   7  24
ATOM     24  O   UNL     1       9.455  -0.189  25.261  0.00  0.00    -0.461 OA
BRANCH  24  25
ATOM     25  C   UNL     1       8.658   0.829  24.620  0.00  0.00    +0.339 C 
ATOM     26  O   UNL     1       8.191   0.506  23.308  0.00  0.00    -0.331 OA
ATOM     27  C   UNL     1       9.136   0.506  22.230  0.00  0.00    +0.179 C 
ATOM     28  C   UNL     1      10.350   1.463  22.308  0.00  0.00    +0.177 C 
ATOM     29  C   UNL     1      10.682   2.018  23.701  0.00  0.00    +0.180 C 
ATOM     30  C   UNL     1       9.430   2.160  24.569  0.00  0.00    +0.214 C 
BRANCH  29  31
ATOM     31  O   UNL     1      11.686   1.205  24.307  0.00  0.00    -0.386 OA
ATOM     32  H   UNL     1      11.273   0.691  25.024  0.00  0.00    +0.210 HD
ENDBRANCH  29  31
BRANCH  30  33
ATOM     33  O   UNL     1       8.601   3.222  24.071  0.00  0.00    -0.383 OA
ATOM     34  H   UNL     1       8.047   2.862  23.347  0.00  0.00    +0.210 HD
ENDBRANCH  30  33
BRANCH  28  35
ATOM     35  O   UNL     1      10.034   2.601  21.473  0.00  0.00    -0.386 OA
ATOM     36  H   UNL     1      10.294   2.369  20.561  0.00  0.00    +0.210 HD
ENDBRANCH  28  35
BRANCH  27  37
ATOM     37  C   UNL     1       9.494  -0.946  21.888  0.00  0.00    +0.190 C 
BRANCH  37  38
ATOM     38  O   UNL     1      10.737  -1.299  22.515  0.00  0.00    -0.392 OA
ATOM     39  H   UNL     1      10.627  -2.205  22.865  0.00  0.00    +0.210 HD
ENDBRANCH  37  38
ENDBRANCH  27  37
ENDBRANCH  24  25
ENDBRANCH   7  24
BRANCH   1  40
ATOM     40  O   UNL     1       4.669  -6.143  26.870  0.00  0.00    -0.453 OA
BRANCH  40  42
ATOM     41  C   UNL     1       3.154  -6.258  24.907  0.00  0.00    +0.221 C 
ATOM     42  C   UNL     1       3.302  -6.205  26.467  0.00  0.00    +0.340 C 
ATOM     43  O   UNL     1       2.721  -7.404  26.997  0.00  0.00    -0.337 OA
ATOM     44  C   UNL     1       1.303  -7.440  26.816  0.00  0.00    +0.198 C 
ATOM     45  C   UNL     1       1.011  -7.603  25.340  0.00  0.00    +0.171 C 
ATOM     46  C   UNL     1       1.640  -6.421  24.599  0.00  0.00    +0.180 C 
BRANCH  46  47
ATOM     47  O   UNL     1       1.416  -6.536  23.190  0.00  0.00    -0.386 OA
ATOM     48  H   UNL     1       1.704  -7.439  22.953  0.00  0.00    +0.210 HD
ENDBRANCH  46  47
BRANCH  45  49
ATOM     49  O   UNL     1       1.560  -8.859  24.917  0.00  0.00    -0.387 OA
ATOM     50  H   UNL     1       2.496  -8.881  25.190  0.00  0.00    +0.210 HD
ENDBRANCH  45  49
BRANCH  41  51
ATOM     51  O   UNL     1       3.513  -5.095  24.145  0.00  0.00    -0.337 OA
BRANCH  51  55
ATOM     52  C   UNL     1       6.698  -2.834  22.580  0.00  0.00    +0.041 C 
ATOM     53  C   UNL     1       5.771  -3.688  21.722  0.00  0.00    +0.149 C 
ATOM     54  O   UNL     1       4.596  -4.045  22.459  0.00  0.00    -0.343 OA
ATOM     55  C   UNL     1       4.768  -5.046  23.477  0.00  0.00    +0.282 C 
ATOM     56  C   UNL     1       5.229  -6.361  22.802  0.00  0.00    +0.201 C 
ATOM     57  C   UNL     1       6.539  -6.110  22.020  0.00  0.00    +0.179 C 
ATOM     58  C   UNL     1       6.429  -4.919  21.068  0.00  0.00    +0.174 C 
BRANCH  58  59
ATOM     59  O   UNL     1       5.634  -5.314  19.924  0.00  0.00    -0.387 OA
ATOM     60  H   UNL     1       5.460  -4.515  19.390  0.00  0.00    +0.210 HD
ENDBRANCH  58  59
BRANCH  57  61
ATOM     61  O   UNL     1       7.669  -5.920  22.875  0.00  0.00    -0.386 OA
ATOM     62  H   UNL     1       8.049  -6.757  23.187  0.00  0.00    +0.210 HD
ENDBRANCH  57  61
BRANCH  56  63
ATOM     63  O   UNL     1       5.412  -7.434  23.723  0.00  0.00    -0.384 OA
ATOM     64  H   UNL     1       4.644  -7.449  24.340  0.00  0.00    +0.210 HD
ENDBRANCH  56  63
ENDBRANCH  51  55
ENDBRANCH  41  51
ENDBRANCH  40  42
ENDBRANCH   1  40
TORSDOF 20
ENDMDL
MODEL 2
REMARK VINA RESULT:      -6.9      1.898      4.433
REMARK  Name = 
REMARK  21 active torsions:
REMARK  status: ('A' for Active; 'I' for Inactive)
REMARK    1  A    between atoms: C_1  and  C_2
REMARK    2  A    between atoms: C_4  and  O_66
REMARK    3  A    between atoms: C_6  and  O_65
REMARK    4  A    between atoms: C_8  and  O_64
REMARK    5  A    between atoms: C_10  and  O_13
REMARK    6  A    between atoms: O_13  and  C_14
REMARK    7  A    between atoms: C_16  and  O_63
REMARK    8  A    between atoms: C_18  and  O_62
REMARK    9  A    between atoms: C_22  and  O_24
REMARK   10  A    between atoms: O_24  and  C_25
REMARK   11  A    between atoms: C_26  and  C_54
REMARK   12  A    between atoms: C_30  and  O_37
REMARK   13  A    between atoms: C_32  and  O_36
REMARK   14  A    between atoms: O_37  and  C_38
REMARK   15  A    between atoms: C_40  and  O_53
REMARK   16  A    between atoms: C_42  and  O_52
REMARK   17  A    between atoms: C_44  and  O_51
REMARK   18  A    between atoms: C_46  and  C_49
REMARK   19  A    between atoms: C_49  and  O_50
REMARK   20  A    between atoms: C_56  and  O_61
REMARK   21  A    between atoms: C_57  and  O_60
REMARK                            x       y       z     vdW  Elec       q    Type
REMARK                         _______ _______ _______ _____ _____    ______ ____
ROOT
ATOM      1  C   UNL     1       7.934  -3.742  25.410  0.00  0.00    +0.214 A 
ATOM      2  C   UNL     1       9.068  -3.042  24.692  0.00  0.00    +0.238 A 
ATOM      3  O   UNL     1       9.870  -3.717  24.052  0.00  0.00    -0.283 OA
ATOM      4  C   UNL     1       9.126  -1.555  24.749  0.00  0.00    +0.109 A 
ATOM      5  C   UNL     1       8.202  -0.927  25.552  0.00  0.00    +0.147 A 
ATOM      6  C   UNL     1       8.080   0.473  25.603  0.00  0.00    +0.093 A 
ATOM      7  C   UNL     1       8.923   1.279  24.853  0.00  0.00    +0.131 A 
ATOM      8  C   UNL     1       9.904   0.660  24.069  0.00  0.00    +0.092 A 
ATOM      9  O   UNL     1       7.336  -1.602  26.366  0.00  0.00    -0.451 OA
ATOM     10  C   UNL     1      10.011  -0.745  24.024  0.00  0.00    +0.135 A 
ATOM     11  C   UNL     1       7.175  -2.969  26.233  0.00  0.00    +0.181 A 
ENDROOT
BRANCH  11  12
ATOM     12  C   UNL     1       6.041  -3.323  27.110  0.00  0.00    +0.025 A 
ATOM     13  C   UNL     1       5.056  -2.360  27.374  0.00  0.00    +0.015 A 
ATOM     14  C   UNL     1       4.086  -2.581  28.362  0.00  0.00    +0.050 A 
ATOM     15  C   UNL     1       4.091  -3.773  29.068  0.00  0.00    +0.158 A 
ATOM     16  C   UNL     1       5.045  -4.745  28.800  0.00  0.00    +0.159 A 
ATOM     17  C   UNL     1       6.051  -4.514  27.860  0.00  0.00    +0.060 A 
BRANCH  16  18
ATOM     18  O   UNL     1       4.927  -5.941  29.459  0.00  0.00    -0.503 OA
ATOM     19  H   UNL     1       4.032  -6.289  29.295  0.00  0.00    +0.292 HD
ENDBRANCH  16  18
BRANCH  15  20
ATOM     20  O   UNL     1       3.145  -3.986  30.027  0.00  0.00    -0.503 OA
ATOM     21  H   UNL     1       2.932  -3.097  30.375  0.00  0.00    +0.292 HD
ENDBRANCH  15  20
ENDBRANCH  11  12
BRANCH  10  22
ATOM     22  O   UNL     1      10.990  -1.312  23.251  0.00  0.00    -0.506 OA
ATOM     23  H   UNL     1      11.758  -1.558  23.792  0.00  0.00    +0.292 HD
ENDBRANCH  10  22
BRANCH   7  24
ATOM     24  O   UNL     1       8.827   2.645  24.793  0.00  0.00    -0.461 OA
BRANCH  24  25
ATOM     25  C   UNL     1       7.504   3.222  24.783  0.00  0.00    +0.339 C 
ATOM     26  O   UNL     1       6.655   2.793  23.716  0.00  0.00    -0.331 OA
ATOM     27  C   UNL     1       6.924   3.279  22.394  0.00  0.00    +0.179 C 
ATOM     28  C   UNL     1       7.568   4.677  22.235  0.00  0.00    +0.177 C 
ATOM     29  C   UNL     1       8.257   5.248  23.484  0.00  0.00    +0.180 C 
ATOM     30  C   UNL     1       7.591   4.759  24.773  0.00  0.00    +0.214 C 
BRANCH  29  31
ATOM     31  O   UNL     1       9.651   4.948  23.433  0.00  0.00    -0.386 OA
ATOM     32  H   UNL     1      10.001   5.262  22.579  0.00  0.00    +0.210 HD
ENDBRANCH  29  31
BRANCH  30  33
ATOM     33  O   UNL     1       6.291   5.354  24.913  0.00  0.00    -0.383 OA
ATOM     34  H   UNL     1       5.976   5.186  25.826  0.00  0.00    +0.210 HD
ENDBRANCH  30  33
BRANCH  28  35
ATOM     35  O   UNL     1       6.498   5.589  21.899  0.00  0.00    -0.386 OA
ATOM     36  H   UNL     1       5.837   5.081  21.390  0.00  0.00    +0.210 HD
ENDBRANCH  28  35
BRANCH  27  37
ATOM     37  C   UNL     1       7.612   2.168  21.591  0.00  0.00    +0.190 C 
BRANCH  37  38
ATOM     38  O   UNL     1       9.017   2.446  21.485  0.00  0.00    -0.392 OA
ATOM     39  H   UNL     1       9.127   3.046  20.721  0.00  0.00    +0.210 HD
ENDBRANCH  37  38
ENDBRANCH  27  37
ENDBRANCH  24  25
ENDBRANCH   7  24
BRANCH   1  40
ATOM     40  O   UNL     1       7.875  -5.097  25.102  0.00  0.00    -0.453 OA
BRANCH  40  42
ATOM     41  C   UNL     1       5.664  -5.507  24.051  0.00  0.00    +0.221 C 
ATOM     42  C   UNL     1       7.225  -5.623  23.947  0.00  0.00    +0.340 C 
ATOM     43  O   UNL     1       7.639  -4.867  22.801  0.00  0.00    -0.337 OA
ATOM     44  C   UNL     1       7.197  -5.459  21.577  0.00  0.00    +0.198 C 
ATOM     45  C   UNL     1       5.693  -5.316  21.490  0.00  0.00    +0.171 C 
ATOM     46  C   UNL     1       5.080  -6.017  22.704  0.00  0.00    +0.180 C 
BRANCH  46  47
ATOM     47  O   UNL     1       3.654  -5.893  22.688  0.00  0.00    -0.386 OA
ATOM     48  H   UNL     1       3.323  -6.622  23.248  0.00  0.00    +0.210 HD
ENDBRANCH  46  47
BRANCH  45  49
ATOM     49  O   UNL     1       5.382  -3.916  21.462  0.00  0.00    -0.387 OA
ATOM     50  H   UNL     1       6.219  -3.428  21.347  0.00  0.00    +0.210 HD
ENDBRANCH  45  49
BRANCH  41  51
ATOM     51  O   UNL     1       4.980  -6.311  25.024  0.00  0.00    -0.337 OA
BRANCH  51  55
ATOM     52  C   UNL     1       1.452  -4.037  24.722  0.00  0.00    +0.041 C 
ATOM     53  C   UNL     1       1.977  -4.607  26.036  0.00  0.00    +0.149 C 
ATOM     54  O   UNL     1       3.342  -5.016  25.893  0.00  0.00    -0.343 OA
ATOM     55  C   UNL     1       3.566  -6.223  25.145  0.00  0.00    +0.282 C 
ATOM     56  C   UNL     1       2.874  -7.396  25.884  0.00  0.00    +0.201 C 
ATOM     57  C   UNL     1       1.367  -7.091  26.041  0.00  0.00    +0.179 C 
ATOM     58  C   UNL     1       1.112  -5.718  26.663  0.00  0.00    +0.174 C 
BRANCH  58  59
ATOM     59  O   UNL     1       1.408  -5.791  28.078  0.00  0.00    -0.387 OA
ATOM     60  H   UNL     1       1.726  -6.694  28.272  0.00  0.00    +0.210 HD
ENDBRANCH  58  59
BRANCH  57  61
ATOM     61  O   UNL     1       0.649  -7.184  24.807  0.00  0.00    -0.386 OA
ATOM     62  H   UNL     1       1.109  -6.749  24.071  0.00  0.00    +0.210 HD
ENDBRANCH  57  61
BRANCH  56  63
ATOM     63  O   UNL     1       3.050  -8.653  25.235  0.00  0.00    -0.384 OA
ATOM     64  H   UNL     1       3.065  -8.502  24.261  0.00  0.00    +0.210 HD
ENDBRANCH  56  63
ENDBRANCH  51  55
ENDBRANCH  41  51
ENDBRANCH  40  42
ENDBRANCH   1  40
TORSDOF 20
ENDMDL
MODEL 3
REMARK VINA RESULT:      -6.9      3.097      9.747
REMARK  Name = 
REMARK  21 active torsions:
REMARK  status: ('A' for Active; 'I' for Inactive)
REMARK    1  A    between atoms: C_1  and  C_2
REMARK    2  A    between atoms: C_4  and  O_66
REMARK    3  A    between atoms: C_6  and  O_65
REMARK    4  A    between atoms: C_8  and  O_64
REMARK    5  A    between atoms: C_10  and  O_13
REMARK    6  A    between atoms: O_13  and  C_14
REMARK    7  A    between atoms: C_16  and  O_63
REMARK    8  A    between atoms: C_18  and  O_62
REMARK    9  A    between atoms: C_22  and  O_24
REMARK   10  A    between atoms: O_24  and  C_25
REMARK   11  A    between atoms: C_26  and  C_54
REMARK   12  A    between atoms: C_30  and  O_37
REMARK   13  A    between atoms: C_32  and  O_36
REMARK   14  A    between atoms: O_37  and  C_38
REMARK   15  A    between atoms: C_40  and  O_53
REMARK   16  A    between atoms: C_42  and  O_52
REMARK   17  A    between atoms: C_44  and  O_51
REMARK   18  A    between atoms: C_46  and  C_49
REMARK   19  A    between atoms: C_49  and  O_50
REMARK   20  A    between atoms: C_56  and  O_61
REMARK   21  A    between atoms: C_57  and  O_60
REMARK                            x       y       z     vdW  Elec       q    Type
REMARK                         _______ _______ _______ _____ _____    ______ ____
ROOT
ATOM      1  C   UNL     1       8.611   1.432  23.533  0.00  0.00    +0.214 A 
ATOM      2  C   UNL     1       9.283   0.077  23.603  0.00  0.00    +0.238 A 
ATOM      3  O   UNL     1      10.494   0.026  23.806  0.00  0.00    -0.283 OA
ATOM      4  C   UNL     1       8.431  -1.137  23.479  0.00  0.00    +0.109 A 
ATOM      5  C   UNL     1       7.101  -0.938  23.192  0.00  0.00    +0.147 A 
ATOM      6  C   UNL     1       6.173  -1.994  23.162  0.00  0.00    +0.093 A 
ATOM      7  C   UNL     1       6.583  -3.297  23.395  0.00  0.00    +0.131 A 
ATOM      8  C   UNL     1       7.943  -3.527  23.638  0.00  0.00    +0.092 A 
ATOM      9  O   UNL     1       6.572   0.291  22.909  0.00  0.00    -0.451 OA
ATOM     10  C   UNL     1       8.862  -2.458  23.670  0.00  0.00    +0.135 A 
ATOM     11  C   UNL     1       7.307   1.438  23.145  0.00  0.00    +0.181 A 
ENDROOT
BRANCH  11  12
ATOM     12  C   UNL     1       6.374   2.561  22.924  0.00  0.00    +0.025 A 
ATOM     13  C   UNL     1       6.826   3.697  22.236  0.00  0.00    +0.015 A 
ATOM     14  C   UNL     1       6.048   4.862  22.192  0.00  0.00    +0.050 A 
ATOM     15  C   UNL     1       4.811   4.881  22.816  0.00  0.00    +0.158 A 
ATOM     16  C   UNL     1       4.341   3.756  23.479  0.00  0.00    +0.159 A 
ATOM     17  C   UNL     1       5.130   2.609  23.580  0.00  0.00    +0.060 A 
BRANCH  16  18
ATOM     18  O   UNL     1       3.067   3.808  23.981  0.00  0.00    -0.503 OA
ATOM     19  H   UNL     1       3.125   4.035  24.927  0.00  0.00    +0.292 HD
ENDBRANCH  16  18
BRANCH  15  20
ATOM     20  O   UNL     1       4.056   6.016  22.769  0.00  0.00    -0.503 OA
ATOM     21  H   UNL     1       3.276   5.779  22.227  0.00  0.00    +0.292 HD
ENDBRANCH  15  20
ENDBRANCH  11  12
BRANCH  10  22
ATOM     22  O   UNL     1      10.185  -2.726  23.903  0.00  0.00    -0.506 OA
ATOM     23  H   UNL     1      10.751  -2.220  23.298  0.00  0.00    +0.292 HD
ENDBRANCH  10  22
BRANCH   7  24
ATOM     24  O   UNL     1       5.735  -4.372  23.452  0.00  0.00    -0.461 OA
BRANCH  24  25
ATOM     25  C   UNL     1       4.645  -4.315  24.396  0.00  0.00    +0.339 C 
ATOM     26  O   UNL     1       5.025  -4.349  25.774  0.00  0.00    -0.331 OA
ATOM     27  C   UNL     1       5.490  -5.591  26.321  0.00  0.00    +0.179 C 
ATOM     28  C   UNL     1       4.946  -6.913  25.727  0.00  0.00    +0.177 C 
ATOM     29  C   UNL     1       4.294  -6.811  24.340  0.00  0.00    +0.180 C 
ATOM     30  C   UNL     1       3.638  -5.446  24.120  0.00  0.00    +0.214 C 
BRANCH  29  31
ATOM     31  O   UNL     1       5.261  -7.128  23.339  0.00  0.00    -0.386 OA
ATOM     32  H   UNL     1       6.106  -6.710  23.586  0.00  0.00    +0.210 HD
ENDBRANCH  29  31
BRANCH  30  33
ATOM     33  O   UNL     1       2.473  -5.319  24.951  0.00  0.00    -0.383 OA
ATOM     34  H   UNL     1       2.163  -4.390  24.902  0.00  0.00    +0.210 HD
ENDBRANCH  30  33
BRANCH  28  35
ATOM     35  O   UNL     1       3.922  -7.382  26.633  0.00  0.00    -0.386 OA
ATOM     36  H   UNL     1       4.363  -7.601  27.477  0.00  0.00    +0.210 HD
ENDBRANCH  28  35
BRANCH  27  37
ATOM     37  C   UNL     1       7.018  -5.532  26.445  0.00  0.00    +0.190 C 
BRANCH  37  38
ATOM     38  O   UNL     1       7.410  -5.897  27.777  0.00  0.00    -0.392 OA
ATOM     39  H   UNL     1       8.365  -6.101  27.742  0.00  0.00    +0.210 HD
ENDBRANCH  37  38
ENDBRANCH  27  37
ENDBRANCH  24  25
ENDBRANCH   7  24
BRANCH   1  40
ATOM     40  O   UNL     1       9.477   2.466  23.873  0.00  0.00    -0.453 OA
BRANCH  40  42
ATOM     41  C   UNL     1       8.590   4.206  25.404  0.00  0.00    +0.221 C 
ATOM     42  C   UNL     1       9.086   3.834  23.964  0.00  0.00    +0.340 C 
ATOM     43  O   UNL     1      10.222   4.658  23.672  0.00  0.00    -0.337 OA
ATOM     44  C   UNL     1       9.868   6.037  23.536  0.00  0.00    +0.198 C 
ATOM     45  C   UNL     1       9.468   6.565  24.897  0.00  0.00    +0.171 C 
ATOM     46  C   UNL     1       8.289   5.730  25.402  0.00  0.00    +0.180 C 
BRANCH  46  47
ATOM     47  O   UNL     1       7.881   6.172  26.701  0.00  0.00    -0.386 OA
ATOM     48  H   UNL     1       8.343   5.586  27.331  0.00  0.00    +0.210 HD
ENDBRANCH  46  47
BRANCH  45  49
ATOM     49  O   UNL     1      10.608   6.467  25.763  0.00  0.00    -0.387 OA
ATOM     50  H   UNL     1      10.843   7.370  26.047  0.00  0.00    +0.210 HD
ENDBRANCH  45  49
BRANCH  41  51
ATOM     51  O   UNL     1       7.359   3.636  25.874  0.00  0.00    -0.337 OA
BRANCH  51  55
ATOM     52  C   UNL     1       7.910  -0.359  27.076  0.00  0.00    +0.041 C 
ATOM     53  C   UNL     1       6.579   0.378  27.187  0.00  0.00    +0.149 C 
ATOM     54  O   UNL     1       6.600   1.569  26.392  0.00  0.00    -0.343 OA
ATOM     55  C   UNL     1       7.380   2.661  26.909  0.00  0.00    +0.282 C 
ATOM     56  C   UNL     1       6.777   3.098  28.267  0.00  0.00    +0.201 C 
ATOM     57  C   UNL     1       6.763   1.896  29.238  0.00  0.00    +0.179 C 
ATOM     58  C   UNL     1       6.102   0.661  28.625  0.00  0.00    +0.174 C 
BRANCH  58  59
ATOM     59  O   UNL     1       4.669   0.866  28.604  0.00  0.00    -0.387 OA
ATOM     60  H   UNL     1       4.248   0.016  28.372  0.00  0.00    +0.210 HD
ENDBRANCH  58  59
BRANCH  57  61
ATOM     61  O   UNL     1       8.067   1.542  29.705  0.00  0.00    -0.386 OA
ATOM     62  H   UNL     1       8.769   1.793  29.084  0.00  0.00    +0.210 HD
ENDBRANCH  57  61
BRANCH  56  63
ATOM     63  O   UNL     1       7.467   4.195  28.863  0.00  0.00    -0.384 OA
ATOM     64  H   UNL     1       7.043   5.031  28.559  0.00  0.00    +0.210 HD
ENDBRANCH  56  63
ENDBRANCH  51  55
ENDBRANCH  41  51
ENDBRANCH  40  42
ENDBRANCH   1  40
TORSDOF 20
ENDMDL
MODEL 4
REMARK VINA RESULT:      -6.3      1.955      4.626
REMARK  Name = 
REMARK  21 active torsions:
REMARK  status: ('A' for Active; 'I' for Inactive)
REMARK    1  A    between atoms: C_1  and  C_2
REMARK    2  A    between atoms: C_4  and  O_66
REMARK    3  A    between atoms: C_6  and  O_65
REMARK    4  A    between atoms: C_8  and  O_64
REMARK    5  A    between atoms: C_10  and  O_13
REMARK    6  A    between atoms: O_13  and  C_14
REMARK    7  A    between atoms: C_16  and  O_63
REMARK    8  A    between atoms: C_18  and  O_62
REMARK    9  A    between atoms: C_22  and  O_24
REMARK   10  A    between atoms: O_24  and  C_25
REMARK   11  A    between atoms: C_26  and  C_54
REMARK   12  A    between atoms: C_30  and  O_37
REMARK   13  A    between atoms: C_32  and  O_36
REMARK   14  A    between atoms: O_37  and  C_38
REMARK   15  A    between atoms: C_40  and  O_53
REMARK   16  A    between atoms: C_42  and  O_52
REMARK   17  A    between atoms: C_44  and  O_51
REMARK   18  A    between atoms: C_46  and  C_49
REMARK   19  A    between atoms: C_49  and  O_50
REMARK   20  A    between atoms: C_56  and  O_61
REMARK   21  A    between atoms: C_57  and  O_60
REMARK                            x       y       z     vdW  Elec       q    Type
REMARK                         _______ _______ _______ _____ _____    ______ ____
ROOT
ATOM      1  C   UNL     1       7.744  -3.571  25.652  0.00  0.00    +0.214 A 
ATOM      2  C   UNL     1       8.832  -2.893  24.847  0.00  0.00    +0.238 A 
ATOM      3  O   UNL     1       9.590  -3.588  24.174  0.00  0.00    -0.283 OA
ATOM      4  C   UNL     1       8.898  -1.407  24.865  0.00  0.00    +0.109 A 
ATOM      5  C   UNL     1       8.029  -0.755  25.709  0.00  0.00    +0.147 A 
ATOM      6  C   UNL     1       7.915   0.646  25.733  0.00  0.00    +0.093 A 
ATOM      7  C   UNL     1       8.710   1.430  24.912  0.00  0.00    +0.131 A 
ATOM      8  C   UNL     1       9.638   0.788  24.083  0.00  0.00    +0.092 A 
ATOM      9  O   UNL     1       7.214  -1.407  26.593  0.00  0.00    -0.451 OA
ATOM     10  C   UNL     1       9.738  -0.618  24.065  0.00  0.00    +0.135 A 
ATOM     11  C   UNL     1       7.041  -2.775  26.503  0.00  0.00    +0.181 A 
ENDROOT
BRANCH  11  12
ATOM     12  C   UNL     1       5.964  -3.103  27.459  0.00  0.00    +0.025 A 
ATOM     13  C   UNL     1       6.004  -4.332  28.135  0.00  0.00    +0.015 A 
ATOM     14  C   UNL     1       4.903  -4.773  28.882  0.00  0.00    +0.050 A 
ATOM     15  C   UNL     1       3.773  -3.975  28.969  0.00  0.00    +0.158 A 
ATOM     16  C   UNL     1       3.730  -2.746  28.324  0.00  0.00    +0.159 A 
ATOM     17  C   UNL     1       4.797  -2.322  27.530  0.00  0.00    +0.060 A 
BRANCH  16  18
ATOM     18  O   UNL     1       2.626  -1.962  28.539  0.00  0.00    -0.503 OA
ATOM     19  H   UNL     1       2.140  -2.327  29.301  0.00  0.00    +0.292 HD
ENDBRANCH  16  18
BRANCH  15  20
ATOM     20  O   UNL     1       2.704  -4.406  29.698  0.00  0.00    -0.503 OA
ATOM     21  H   UNL     1       2.198  -3.596  29.908  0.00  0.00    +0.292 HD
ENDBRANCH  15  20
ENDBRANCH  11  12
BRANCH  10  22
ATOM     22  O   UNL     1      10.664  -1.208  23.245  0.00  0.00    -0.506 OA
ATOM     23  H   UNL     1      10.394  -1.140  22.315  0.00  0.00    +0.292 HD
ENDBRANCH  10  22
BRANCH   7  24
ATOM     24  O   UNL     1       8.615   2.795  24.825  0.00  0.00    -0.461 OA
BRANCH  24  25
ATOM     25  C   UNL     1       8.408   3.368  23.517  0.00  0.00    +0.339 C 
ATOM     26  O   UNL     1       8.932   4.686  23.335  0.00  0.00    -0.331 OA
ATOM     27  C   UNL     1       8.256   5.780  23.968  0.00  0.00    +0.179 C 
ATOM     28  C   UNL     1       6.728   5.676  24.197  0.00  0.00    +0.177 C 
ATOM     29  C   UNL     1       6.131   4.263  24.125  0.00  0.00    +0.180 C 
ATOM     30  C   UNL     1       6.911   3.365  23.161  0.00  0.00    +0.214 C 
BRANCH  29  31
ATOM     31  O   UNL     1       6.046   3.719  25.441  0.00  0.00    -0.386 OA
ATOM     32  H   UNL     1       6.384   2.805  25.418  0.00  0.00    +0.210 HD
ENDBRANCH  29  31
BRANCH  30  33
ATOM     33  O   UNL     1       6.697   3.793  21.807  0.00  0.00    -0.383 OA
ATOM     34  H   UNL     1       5.747   4.013  21.703  0.00  0.00    +0.210 HD
ENDBRANCH  30  33
BRANCH  28  35
ATOM     35  O   UNL     1       6.100   6.445  23.146  0.00  0.00    -0.386 OA
ATOM     36  H   UNL     1       5.685   5.808  22.533  0.00  0.00    +0.210 HD
ENDBRANCH  28  35
BRANCH  27  37
ATOM     37  C   UNL     1       9.055   6.203  25.208  0.00  0.00    +0.190 C 
BRANCH  37  38
ATOM     38  O   UNL     1       8.627   5.438  26.345  0.00  0.00    -0.392 OA
ATOM     39  H   UNL     1       9.434   5.073  26.758  0.00  0.00    +0.210 HD
ENDBRANCH  37  38
ENDBRANCH  27  37
ENDBRANCH  24  25
ENDBRANCH   7  24
BRANCH   1  40
ATOM     40  O   UNL     1       7.661  -4.933  25.382  0.00  0.00    -0.453 OA
BRANCH  40  42
ATOM     41  C   UNL     1       5.532  -4.707  24.128  0.00  0.00    +0.221 C 
ATOM     42  C   UNL     1       6.876  -5.489  24.330  0.00  0.00    +0.340 C 
ATOM     43  O   UNL     1       7.617  -5.398  23.106  0.00  0.00    -0.337 OA
ATOM     44  C   UNL     1       6.989  -6.120  22.042  0.00  0.00    +0.198 C 
ATOM     45  C   UNL     1       5.713  -5.401  21.663  0.00  0.00    +0.171 C 
ATOM     46  C   UNL     1       4.817  -5.340  22.902  0.00  0.00    +0.180 C 
BRANCH  46  47
ATOM     47  O   UNL     1       3.600  -4.647  22.607  0.00  0.00    -0.386 OA
ATOM     48  H   UNL     1       3.860  -3.719  22.451  0.00  0.00    +0.210 HD
ENDBRANCH  46  47
BRANCH  45  49
ATOM     49  O   UNL     1       6.065  -4.095  21.186  0.00  0.00    -0.387 OA
ATOM     50  H   UNL     1       7.019  -3.968  21.345  0.00  0.00    +0.210 HD
ENDBRANCH  45  49
BRANCH  41  51
ATOM     51  O   UNL     1       4.533  -4.782  25.157  0.00  0.00    -0.337 OA
BRANCH  51  55
ATOM     52  C   UNL     1       1.140  -6.662  23.525  0.00  0.00    +0.041 C 
ATOM     53  C   UNL     1       1.196  -6.110  24.946  0.00  0.00    +0.149 C 
ATOM     54  O   UNL     1       2.317  -5.233  25.098  0.00  0.00    -0.343 OA
ATOM     55  C   UNL     1       3.608  -5.862  25.167  0.00  0.00    +0.282 C 
ATOM     56  C   UNL     1       3.645  -6.775  26.418  0.00  0.00    +0.201 C 
ATOM     57  C   UNL     1       2.505  -7.816  26.332  0.00  0.00    +0.179 C 
ATOM     58  C   UNL     1       1.146  -7.170  26.065  0.00  0.00    +0.174 C 
BRANCH  58  59
ATOM     59  O   UNL     1       0.690  -6.534  27.282  0.00  0.00    -0.387 OA
ATOM     60  H   UNL     1       1.253  -6.851  28.015  0.00  0.00    +0.210 HD
ENDBRANCH  58  59
BRANCH  57  61
ATOM     61  O   UNL     1       2.744  -8.823  25.345  0.00  0.00    -0.386 OA
ATOM     62  H   UNL     1       3.001  -8.453  24.486  0.00  0.00    +0.210 HD
ENDBRANCH  57  61
BRANCH  56  63
ATOM     63  O   UNL     1       4.895  -7.438  26.595  0.00  0.00    -0.384 OA
ATOM     64  H   UNL     1       4.779  -8.143  27.275  0.00  0.00    +0.210 HD
ENDBRANCH  56  63
ENDBRANCH  51  55
ENDBRANCH  41  51
ENDBRANCH  40  42
ENDBRANCH   1  40
TORSDOF 20
ENDMDL
MODEL 5
REMARK VINA RESULT:      -6.3      2.031      8.190
REMARK  Name = 
REMARK  21 active torsions:
REMARK  status: ('A' for Active; 'I' for Inactive)
REMARK    1  A    between atoms: C_1  and  C_2
REMARK    2  A    between atoms: C_4  and  O_66
REMARK    3  A    between atoms: C_6  and  O_65
REMARK    4  A    between atoms: C_8  and  O_64
REMARK    5  A    between atoms: C_10  and  O_13
REMARK    6  A    between atoms: O_13  and  C_14
REMARK    7  A    between atoms: C_16  and  O_63
REMARK    8  A    between atoms: C_18  and  O_62
REMARK    9  A    between atoms: C_22  and  O_24
REMARK   10  A    between atoms: O_24  and  C_25
REMARK   11  A    between atoms: C_26  and  C_54
REMARK   12  A    between atoms: C_30  and  O_37
REMARK   13  A    between atoms: C_32  and  O_36
REMARK   14  A    between atoms: O_37  and  C_38
REMARK   15  A    between atoms: C_40  and  O_53
REMARK   16  A    between atoms: C_42  and  O_52
REMARK   17  A    between atoms: C_44  and  O_51
REMARK   18  A    between atoms: C_46  and  C_49
REMARK   19  A    between atoms: C_49  and  O_50
REMARK   20  A    between atoms: C_56  and  O_61
REMARK   21  A    between atoms: C_57  and  O_60
REMARK                            x       y       z     vdW  Elec       q    Type
REMARK                         _______ _______ _______ _____ _____    ______ ____
ROOT
ATOM      1  C   UNL     1       7.985  -1.432  26.146  0.00  0.00    +0.214 A 
ATOM      2  C   UNL     1       8.102  -2.897  26.510  0.00  0.00    +0.238 A 
ATOM      3  O   UNL     1       9.215  -3.417  26.521  0.00  0.00    -0.283 OA
ATOM      4  C   UNL     1       6.863  -3.628  26.893  0.00  0.00    +0.109 A 
ATOM      5  C   UNL     1       5.676  -2.943  26.778  0.00  0.00    +0.147 A 
ATOM      6  C   UNL     1       4.453  -3.483  27.215  0.00  0.00    +0.093 A 
ATOM      7  C   UNL     1       4.401  -4.757  27.759  0.00  0.00    +0.131 A 
ATOM      8  C   UNL     1       5.591  -5.491  27.837  0.00  0.00    +0.092 A 
ATOM      9  O   UNL     1       5.582  -1.695  26.230  0.00  0.00    -0.451 OA
ATOM     10  C   UNL     1       6.811  -4.935  27.400  0.00  0.00    +0.135 A 
ATOM     11  C   UNL     1       6.722  -0.950  25.990  0.00  0.00    +0.181 A 
ENDROOT
BRANCH  11  12
ATOM     12  C   UNL     1       6.246   0.391  25.596  0.00  0.00    +0.025 A 
ATOM     13  C   UNL     1       5.726   1.246  26.579  0.00  0.00    +0.015 A 
ATOM     14  C   UNL     1       5.072   2.433  26.221  0.00  0.00    +0.050 A 
ATOM     15  C   UNL     1       4.957   2.772  24.883  0.00  0.00    +0.158 A 
ATOM     16  C   UNL     1       5.489   1.946  23.900  0.00  0.00    +0.159 A 
ATOM     17  C   UNL     1       6.091   0.734  24.240  0.00  0.00    +0.060 A 
BRANCH  16  18
ATOM     18  O   UNL     1       5.434   2.393  22.606  0.00  0.00    -0.503 OA
ATOM     19  H   UNL     1       5.446   3.368  22.622  0.00  0.00    +0.292 HD
ENDBRANCH  16  18
BRANCH  15  20
ATOM     20  O   UNL     1       4.322   3.928  24.537  0.00  0.00    -0.503 OA
ATOM     21  H   UNL     1       3.799   3.702  23.742  0.00  0.00    +0.292 HD
ENDBRANCH  15  20
ENDBRANCH  11  12
BRANCH  10  22
ATOM     22  O   UNL     1       7.952  -5.688  27.486  0.00  0.00    -0.506 OA
ATOM     23  H   UNL     1       8.670  -5.181  27.898  0.00  0.00    +0.292 HD
ENDBRANCH  10  22
BRANCH   7  24
ATOM     24  O   UNL     1       3.265  -5.329  28.270  0.00  0.00    -0.461 OA
BRANCH  24  25
ATOM     25  C   UNL     1       3.240  -6.766  28.398  0.00  0.00    +0.339 C 
ATOM     26  O   UNL     1       3.480  -7.494  27.192  0.00  0.00    -0.331 OA
ATOM     27  C   UNL     1       2.448  -7.522  26.197  0.00  0.00    +0.179 C 
ATOM     28  C   UNL     1       0.972  -7.425  26.656  0.00  0.00    +0.177 C 
ATOM     29  C   UNL     1       0.742  -6.882  28.074  0.00  0.00    +0.180 C 
ATOM     30  C   UNL     1       1.904  -7.226  29.009  0.00  0.00    +0.214 C 
BRANCH  29  31
ATOM     31  O   UNL     1       0.483  -5.480  28.007  0.00  0.00    -0.386 OA
ATOM     32  H   UNL     1       1.317  -5.006  28.176  0.00  0.00    +0.210 HD
ENDBRANCH  29  31
BRANCH  30  33
ATOM     33  O   UNL     1       1.915  -8.636  29.283  0.00  0.00    -0.383 OA
ATOM     34  H   UNL     1       2.746  -9.010  28.920  0.00  0.00    +0.210 HD
ENDBRANCH  30  33
BRANCH  28  35
ATOM     35  O   UNL     1       0.445  -8.771  26.637  0.00  0.00    -0.386 OA
ATOM     36  H   UNL     1       0.285  -9.030  27.565  0.00  0.00    +0.210 HD
ENDBRANCH  28  35
BRANCH  27  37
ATOM     37  C   UNL     1       2.825  -6.555  25.067  0.00  0.00    +0.190 C 
BRANCH  37  38
ATOM     38  O   UNL     1       2.166  -5.295  25.267  0.00  0.00    -0.392 OA
ATOM     39  H   UNL     1       1.970  -4.937  24.379  0.00  0.00    +0.210 HD
ENDBRANCH  37  38
ENDBRANCH  27  37
ENDBRANCH  24  25
ENDBRANCH   7  24
BRANCH   1  40
ATOM     40  O   UNL     1       9.228  -0.822  26.018  0.00  0.00    -0.453 OA
BRANCH  40  42
ATOM     41  C   UNL     1       9.120  -1.209  23.569  0.00  0.00    +0.221 C 
ATOM     42  C   UNL     1       9.820  -0.479  24.767  0.00  0.00    +0.340 C 
ATOM     43  O   UNL     1       9.672   0.932  24.559  0.00  0.00    -0.337 OA
ATOM     44  C   UNL     1      10.420   1.391  23.430  0.00  0.00    +0.198 C 
ATOM     45  C   UNL     1       9.778   0.844  22.174  0.00  0.00    +0.171 C 
ATOM     46  C   UNL     1       9.783  -0.684  22.266  0.00  0.00    +0.180 C 
BRANCH  46  47
ATOM     47  O   UNL     1       9.163  -1.258  21.111  0.00  0.00    -0.386 OA
ATOM     48  H   UNL     1       9.098  -2.214  21.299  0.00  0.00    +0.210 HD
ENDBRANCH  46  47
BRANCH  45  49
ATOM     49  O   UNL     1       8.447   1.374  22.091  0.00  0.00    -0.387 OA
ATOM     50  H   UNL     1       7.831   0.678  22.386  0.00  0.00    +0.210 HD
ENDBRANCH  45  49
BRANCH  41  51
ATOM     51  O   UNL     1       9.266  -2.633  23.453  0.00  0.00    -0.337 OA
BRANCH  51  55
ATOM     52  C   UNL     1       6.068  -3.019  20.746  0.00  0.00    +0.041 C 
ATOM     53  C   UNL     1       5.893  -3.015  22.261  0.00  0.00    +0.149 C 
ATOM     54  O   UNL     1       7.076  -2.521  22.899  0.00  0.00    -0.343 OA
ATOM     55  C   UNL     1       8.205  -3.412  22.915  0.00  0.00    +0.282 C 
ATOM     56  C   UNL     1       7.820  -4.680  23.716  0.00  0.00    +0.201 C 
ATOM     57  C   UNL     1       6.580  -5.341  23.074  0.00  0.00    +0.179 C 
ATOM     58  C   UNL     1       5.431  -4.352  22.873  0.00  0.00    +0.174 C 
BRANCH  58  59
ATOM     59  O   UNL     1       4.822  -4.085  24.158  0.00  0.00    -0.387 OA
ATOM     60  H   UNL     1       3.862  -4.249  24.075  0.00  0.00    +0.210 HD
ENDBRANCH  58  59
BRANCH  57  61
ATOM     61  O   UNL     1       6.871  -5.976  21.826  0.00  0.00    -0.386 OA
ATOM     62  H   UNL     1       7.674  -5.629  21.407  0.00  0.00    +0.210 HD
ENDBRANCH  57  61
BRANCH  56  63
ATOM     63  O   UNL     1       8.880  -5.629  23.813  0.00  0.00    -0.384 OA
ATOM     64  H   UNL     1       8.568  -6.391  24.355  0.00  0.00    +0.210 HD
ENDBRANCH  56  63
ENDBRANCH  51  55
ENDBRANCH  41  51
ENDBRANCH  40  42
ENDBRANCH   1  40
TORSDOF 20
ENDMDL
MODEL 6
REMARK VINA RESULT:      -6.2      2.976      8.752
REMARK  Name = 
REMARK  21 active torsions:
REMARK  status: ('A' for Active; 'I' for Inactive)
REMARK    1  A    between atoms: C_1  and  C_2
REMARK    2  A    between atoms: C_4  and  O_66
REMARK    3  A    between atoms: C_6  and  O_65
REMARK    4  A    between atoms: C_8  and  O_64
REMARK    5  A    between atoms: C_10  and  O_13
REMARK    6  A    between atoms: O_13  and  C_14
REMARK    7  A    between atoms: C_16  and  O_63
REMARK    8  A    between atoms: C_18  and  O_62
REMARK    9  A    between atoms: C_22  and  O_24
REMARK   10  A    between atoms: O_24  and  C_25
REMARK   11  A    between atoms: C_26  and  C_54
REMARK   12  A    between atoms: C_30  and  O_37
REMARK   13  A    between atoms: C_32  and  O_36
REMARK   14  A    between atoms: O_37  and  C_38
REMARK   15  A    between atoms: C_40  and  O_53
REMARK   16  A    between atoms: C_42  and  O_52
REMARK   17  A    between atoms: C_44  and  O_51
REMARK   18  A    between atoms: C_46  and  C_49
REMARK   19  A    between atoms: C_49  and  O_50
REMARK   20  A    between atoms: C_56  and  O_61
REMARK   21  A    between atoms: C_57  and  O_60
REMARK                            x       y       z     vdW  Elec       q    Type
REMARK                         _______ _______ _______ _____ _____    ______ ____
ROOT
ATOM      1  C   UNL     1       6.442   0.893  26.638  0.00  0.00    +0.214 A 
ATOM      2  C   UNL     1       7.214  -0.408  26.700  0.00  0.00    +0.238 A 
ATOM      3  O   UNL     1       8.355  -0.399  27.156  0.00  0.00    -0.283 OA
ATOM      4  C   UNL     1       6.530  -1.653  26.256  0.00  0.00    +0.109 A 
ATOM      5  C   UNL     1       5.275  -1.513  25.709  0.00  0.00    +0.147 A 
ATOM      6  C   UNL     1       4.482  -2.619  25.357  0.00  0.00    +0.093 A 
ATOM      7  C   UNL     1       4.960  -3.909  25.526  0.00  0.00    +0.131 A 
ATOM      8  C   UNL     1       6.255  -4.072  26.033  0.00  0.00    +0.092 A 
ATOM      9  O   UNL     1       4.700  -0.298  25.458  0.00  0.00    -0.451 OA
ATOM     10  C   UNL     1       7.038  -2.954  26.387  0.00  0.00    +0.135 A 
ATOM     11  C   UNL     1       5.254   0.857  25.978  0.00  0.00    +0.181 A 
ENDROOT
BRANCH  11  12
ATOM     12  C   UNL     1       4.282   1.930  25.686  0.00  0.00    +0.025 A 
ATOM     13  C   UNL     1       3.281   2.218  26.625  0.00  0.00    +0.015 A 
ATOM     14  C   UNL     1       2.219   3.073  26.299  0.00  0.00    +0.050 A 
ATOM     15  C   UNL     1       2.172   3.654  25.043  0.00  0.00    +0.158 A 
ATOM     16  C   UNL     1       3.169   3.397  24.112  0.00  0.00    +0.159 A 
ATOM     17  C   UNL     1       4.200   2.503  24.403  0.00  0.00    +0.060 A 
BRANCH  16  18
ATOM     18  O   UNL     1       3.118   4.088  22.929  0.00  0.00    -0.503 OA
ATOM     19  H   UNL     1       3.176   5.039  23.131  0.00  0.00    +0.292 HD
ENDBRANCH  16  18
BRANCH  15  20
ATOM     20  O   UNL     1       1.139   4.487  24.730  0.00  0.00    -0.503 OA
ATOM     21  H   UNL     1       1.306   4.762  23.806  0.00  0.00    +0.292 HD
ENDBRANCH  15  20
ENDBRANCH  11  12
BRANCH  10  22
ATOM     22  O   UNL     1       8.303  -3.155  26.871  0.00  0.00    -0.506 OA
ATOM     23  H   UNL     1       8.941  -3.248  26.145  0.00  0.00    +0.292 HD
ENDBRANCH  10  22
BRANCH   7  24
ATOM     24  O   UNL     1       4.228  -5.040  25.274  0.00  0.00    -0.461 OA
BRANCH  24  25
ATOM     25  C   UNL     1       2.918  -4.872  24.692  0.00  0.00    +0.339 C 
ATOM     26  O   UNL     1       1.820  -5.183  25.552  0.00  0.00    -0.331 OA
ATOM     27  C   UNL     1       1.558  -6.562  25.850  0.00  0.00    +0.179 C 
ATOM     28  C   UNL     1       1.924  -7.632  24.792  0.00  0.00    +0.177 C 
ATOM     29  C   UNL     1       2.917  -7.193  23.705  0.00  0.00    +0.180 C 
ATOM     30  C   UNL     1       2.797  -5.698  23.398  0.00  0.00    +0.214 C 
BRANCH  29  31
ATOM     31  O   UNL     1       4.236  -7.575  24.088  0.00  0.00    -0.386 OA
ATOM     32  H   UNL     1       4.747  -6.767  24.280  0.00  0.00    +0.210 HD
ENDBRANCH  29  31
BRANCH  30  33
ATOM     33  O   UNL     1       1.557  -5.430  22.724  0.00  0.00    -0.383 OA
ATOM     34  H   UNL     1       1.765  -5.060  21.840  0.00  0.00    +0.210 HD
ENDBRANCH  30  33
BRANCH  28  35
ATOM     35  O   UNL     1       0.695  -7.980  24.116  0.00  0.00    -0.386 OA
ATOM     36  H   UNL     1       0.703  -7.524  23.252  0.00  0.00    +0.210 HD
ENDBRANCH  28  35
BRANCH  27  37
ATOM     37  C   UNL     1       2.070  -6.866  27.264  0.00  0.00    +0.190 C 
BRANCH  37  38
ATOM     38  O   UNL     1       3.447  -7.266  27.205  0.00  0.00    -0.392 OA
ATOM     39  H   UNL     1       3.854  -6.763  26.472  0.00  0.00    +0.210 HD
ENDBRANCH  37  38
ENDBRANCH  27  37
ENDBRANCH  24  25
ENDBRANCH   7  24
BRANCH   1  40
ATOM     40  O   UNL     1       7.113   1.932  27.275  0.00  0.00    -0.453 OA
BRANCH  40  42
ATOM     41  C   UNL     1       7.820   2.865  25.086  0.00  0.00    +0.221 C 
ATOM     42  C   UNL     1       7.562   3.113  26.613  0.00  0.00    +0.340 C 
ATOM     43  O   UNL     1       6.544   4.116  26.722  0.00  0.00    -0.337 OA
ATOM     44  C   UNL     1       6.997   5.395  26.268  0.00  0.00    +0.198 C 
ATOM     45  C   UNL     1       7.184   5.332  24.767  0.00  0.00    +0.171 C 
ATOM     46  C   UNL     1       8.205   4.235  24.462  0.00  0.00    +0.180 C 
BRANCH  46  47
ATOM     47  O   UNL     1       8.405   4.113  23.050  0.00  0.00    -0.386 OA
ATOM     48  H   UNL     1       8.850   3.254  22.923  0.00  0.00    +0.210 HD
ENDBRANCH  46  47
BRANCH  45  49
ATOM     49  O   UNL     1       5.906   5.060  24.173  0.00  0.00    -0.387 OA
ATOM     50  H   UNL     1       5.225   5.485  24.726  0.00  0.00    +0.210 HD
ENDBRANCH  45  49
BRANCH  41  51
ATOM     51  O   UNL     1       8.914   2.018  24.704  0.00  0.00    -0.337 OA
BRANCH  51  55
ATOM     52  C   UNL     1       6.910  -1.062  22.655  0.00  0.00    +0.041 C 
ATOM     53  C   UNL     1       8.351  -1.173  23.140  0.00  0.00    +0.149 C 
ATOM     54  O   UNL     1       8.639  -0.142  24.091  0.00  0.00    -0.343 OA
ATOM     55  C   UNL     1       8.798   1.185  23.558  0.00  0.00    +0.282 C 
ATOM     56  C   UNL     1      10.008   1.186  22.591  0.00  0.00    +0.201 C 
ATOM     57  C   UNL     1       9.777   0.144  21.473  0.00  0.00    +0.179 C 
ATOM     58  C   UNL     1       9.417  -1.235  22.027  0.00  0.00    +0.174 C 
BRANCH  58  59
ATOM     59  O   UNL     1      10.614  -1.843  22.567  0.00  0.00    -0.387 OA
ATOM     60  H   UNL     1      11.190  -2.089  21.818  0.00  0.00    +0.210 HD
ENDBRANCH  58  59
BRANCH  57  61
ATOM     61  O   UNL     1       8.775   0.546  20.536  0.00  0.00    -0.386 OA
ATOM     62  H   UNL     1       8.976   0.267  19.628  0.00  0.00    +0.210 HD
ENDBRANCH  57  61
BRANCH  56  63
ATOM     63  O   UNL     1      10.269   2.464  22.017  0.00  0.00    -0.384 OA
ATOM     64  H   UNL     1       9.868   3.154  22.596  0.00  0.00    +0.210 HD
ENDBRANCH  56  63
ENDBRANCH  51  55
ENDBRANCH  41  51
ENDBRANCH  40  42
ENDBRANCH   1  40
TORSDOF 20
ENDMDL
MODEL 7
REMARK VINA RESULT:      -6.1      2.962      8.745
REMARK  Name = 
REMARK  21 active torsions:
REMARK  status: ('A' for Active; 'I' for Inactive)
REMARK    1  A    between atoms: C_1  and  C_2
REMARK    2  A    between atoms: C_4  and  O_66
REMARK    3  A    between atoms: C_6  and  O_65
REMARK    4  A    between atoms: C_8  and  O_64
REMARK    5  A    between atoms: C_10  and  O_13
REMARK    6  A    between atoms: O_13  and  C_14
REMARK    7  A    between atoms: C_16  and  O_63
REMARK    8  A    between atoms: C_18  and  O_62
REMARK    9  A    between atoms: C_22  and  O_24
REMARK   10  A    between atoms: O_24  and  C_25
REMARK   11  A    between atoms: C_26  and  C_54
REMARK   12  A    between atoms: C_30  and  O_37
REMARK   13  A    between atoms: C_32  and  O_36
REMARK   14  A    between atoms: O_37  and  C_38
REMARK   15  A    between atoms: C_40  and  O_53
REMARK   16  A    between atoms: C_42  and  O_52
REMARK   17  A    between atoms: C_44  and  O_51
REMARK   18  A    between atoms: C_46  and  C_49
REMARK   19  A    between atoms: C_49  and  O_50
REMARK   20  A    between atoms: C_56  and  O_61
REMARK   21  A    between atoms: C_57  and  O_60
REMARK                            x       y       z     vdW  Elec       q    Type
REMARK                         _______ _______ _______ _____ _____    ______ ____
ROOT
ATOM      1  C   UNL     1       6.417   0.729  26.789  0.00  0.00    +0.214 A 
ATOM      2  C   UNL     1       7.200  -0.567  26.768  0.00  0.00    +0.238 A 
ATOM      3  O   UNL     1       8.339  -0.578  27.227  0.00  0.00    -0.283 OA
ATOM      4  C   UNL     1       6.527  -1.786  26.241  0.00  0.00    +0.109 A 
ATOM      5  C   UNL     1       5.273  -1.621  25.702  0.00  0.00    +0.147 A 
ATOM      6  C   UNL     1       4.490  -2.709  25.276  0.00  0.00    +0.093 A 
ATOM      7  C   UNL     1       4.979  -4.003  25.361  0.00  0.00    +0.131 A 
ATOM      8  C   UNL     1       6.275  -4.187  25.860  0.00  0.00    +0.092 A 
ATOM      9  O   UNL     1       4.687  -0.398  25.529  0.00  0.00    -0.451 OA
ATOM     10  C   UNL     1       7.047  -3.088  26.288  0.00  0.00    +0.135 A 
ATOM     11  C   UNL     1       5.230   0.726  26.125  0.00  0.00    +0.181 A 
ENDROOT
BRANCH  11  12
ATOM     12  C   UNL     1       4.250   1.807  25.901  0.00  0.00    +0.025 A 
ATOM     13  C   UNL     1       3.246   2.026  26.856  0.00  0.00    +0.015 A 
ATOM     14  C   UNL     1       2.177   2.891  26.584  0.00  0.00    +0.050 A 
ATOM     15  C   UNL     1       2.125   3.552  25.368  0.00  0.00    +0.158 A 
ATOM     16  C   UNL     1       3.125   3.363  24.423  0.00  0.00    +0.159 A 
ATOM     17  C   UNL     1       4.164   2.460  24.657  0.00  0.00    +0.060 A 
BRANCH  16  18
ATOM     18  O   UNL     1       3.069   4.127  23.286  0.00  0.00    -0.503 OA
ATOM     19  H   UNL     1       2.425   4.843  23.435  0.00  0.00    +0.292 HD
ENDBRANCH  16  18
BRANCH  15  20
ATOM     20  O   UNL     1       1.085   4.394  25.107  0.00  0.00    -0.503 OA
ATOM     21  H   UNL     1       0.844   4.776  25.975  0.00  0.00    +0.292 HD
ENDBRANCH  15  20
ENDBRANCH  11  12
BRANCH  10  22
ATOM     22  O   UNL     1       8.313  -3.310  26.762  0.00  0.00    -0.506 OA
ATOM     23  H   UNL     1       8.307  -3.986  27.459  0.00  0.00    +0.292 HD
ENDBRANCH  10  22
BRANCH   7  24
ATOM     24  O   UNL     1       4.257  -5.121  25.033  0.00  0.00    -0.461 OA
BRANCH  24  25
ATOM     25  C   UNL     1       4.561  -6.343  25.737  0.00  0.00    +0.339 C 
ATOM     26  O   UNL     1       4.150  -7.546  25.084  0.00  0.00    -0.331 OA
ATOM     27  C   UNL     1       2.751  -7.861  25.053  0.00  0.00    +0.179 C 
ATOM     28  C   UNL     1       1.856  -7.375  26.219  0.00  0.00    +0.177 C 
ATOM     29  C   UNL     1       2.433  -6.247  27.087  0.00  0.00    +0.180 C 
ATOM     30  C   UNL     1       3.961  -6.307  27.155  0.00  0.00    +0.214 C 
BRANCH  29  31
ATOM     31  O   UNL     1       1.950  -4.991  26.611  0.00  0.00    -0.386 OA
ATOM     32  H   UNL     1       1.257  -4.679  27.221  0.00  0.00    +0.210 HD
ENDBRANCH  29  31
BRANCH  30  33
ATOM     33  O   UNL     1       4.376  -7.447  27.924  0.00  0.00    -0.383 OA
ATOM     34  H   UNL     1       3.964  -8.246  27.531  0.00  0.00    +0.210 HD
ENDBRANCH  30  33
BRANCH  28  35
ATOM     35  O   UNL     1       1.663  -8.512  27.092  0.00  0.00    -0.386 OA
ATOM     36  H   UNL     1       2.387  -9.141  26.908  0.00  0.00    +0.210 HD
ENDBRANCH  28  35
BRANCH  27  37
ATOM     37  C   UNL     1       2.204  -7.538  23.656  0.00  0.00    +0.190 C 
BRANCH  37  38
ATOM     38  O   UNL     1       1.813  -6.158  23.596  0.00  0.00    -0.392 OA
ATOM     39  H   UNL     1       2.282  -5.766  22.833  0.00  0.00    +0.210 HD
ENDBRANCH  37  38
ENDBRANCH  27  37
ENDBRANCH  24  25
ENDBRANCH   7  24
BRANCH   1  40
ATOM     40  O   UNL     1       7.077   1.730  27.494  0.00  0.00    -0.453 OA
BRANCH  40  42
ATOM     41  C   UNL     1       7.795   2.798  25.373  0.00  0.00    +0.221 C 
ATOM     42  C   UNL     1       7.527   2.950  26.910  0.00  0.00    +0.340 C 
ATOM     43  O   UNL     1       6.506   3.943  27.074  0.00  0.00    -0.337 OA
ATOM     44  C   UNL     1       6.960   5.248  26.703  0.00  0.00    +0.198 C 
ATOM     45  C   UNL     1       7.156   5.279  25.203  0.00  0.00    +0.171 C 
ATOM     46  C   UNL     1       8.182   4.204  24.837  0.00  0.00    +0.180 C 
BRANCH  46  47
ATOM     47  O   UNL     1       8.391   4.171  23.421  0.00  0.00    -0.386 OA
ATOM     48  H   UNL     1       8.612   5.088  23.169  0.00  0.00    +0.210 HD
ENDBRANCH  46  47
BRANCH  45  49
ATOM     49  O   UNL     1       5.883   5.041  24.585  0.00  0.00    -0.387 OA
ATOM     50  H   UNL     1       5.502   4.239  24.988  0.00  0.00    +0.210 HD
ENDBRANCH  45  49
BRANCH  41  51
ATOM     51  O   UNL     1       8.894   1.978  24.946  0.00  0.00    -0.337 OA
BRANCH  51  55
ATOM     52  C   UNL     1       6.910  -0.925  22.635  0.00  0.00    +0.041 C 
ATOM     53  C   UNL     1       8.341  -1.083  23.137  0.00  0.00    +0.149 C 
ATOM     54  O   UNL     1       8.617  -0.128  24.168  0.00  0.00    -0.343 OA
ATOM     55  C   UNL     1       8.795   1.233  23.739  0.00  0.00    +0.282 C 
ATOM     56  C   UNL     1      10.023   1.297  22.798  0.00  0.00    +0.201 C 
ATOM     57  C   UNL     1       9.808   0.343  21.601  0.00  0.00    +0.179 C 
ATOM     58  C   UNL     1       9.428  -1.070  22.044  0.00  0.00    +0.174 C 
BRANCH  58  59
ATOM     59  O   UNL     1      10.610  -1.726  22.560  0.00  0.00    -0.387 OA
ATOM     60  H   UNL     1      11.048  -2.184  21.816  0.00  0.00    +0.210 HD
ENDBRANCH  58  59
BRANCH  57  61
ATOM     61  O   UNL     1       8.827   0.821  20.677  0.00  0.00    -0.386 OA
ATOM     62  H   UNL     1       8.039   0.256  20.640  0.00  0.00    +0.210 HD
ENDBRANCH  57  61
BRANCH  56  63
ATOM     63  O   UNL     1      10.304   2.612  22.325  0.00  0.00    -0.384 OA
ATOM     64  H   UNL     1      11.261   2.798  22.472  0.00  0.00    +0.210 HD
ENDBRANCH  56  63
ENDBRANCH  51  55
ENDBRANCH  41  51
ENDBRANCH  40  42
ENDBRANCH   1  40
TORSDOF 20
ENDMDL
MODEL 8
REMARK VINA RESULT:      -6.1      2.847      9.408
REMARK  Name = 
REMARK  21 active torsions:
REMARK  status: ('A' for Active; 'I' for Inactive)
REMARK    1  A    between atoms: C_1  and  C_2
REMARK    2  A    between atoms: C_4  and  O_66
REMARK    3  A    between atoms: C_6  and  O_65
REMARK    4  A    between atoms: C_8  and  O_64
REMARK    5  A    between atoms: C_10  and  O_13
REMARK    6  A    between atoms: O_13  and  C_14
REMARK    7  A    between atoms: C_16  and  O_63
REMARK    8  A    between atoms: C_18  and  O_62
REMARK    9  A    between atoms: C_22  and  O_24
REMARK   10  A    between atoms: O_24  and  C_25
REMARK   11  A    between atoms: C_26  and  C_54
REMARK   12  A    between atoms: C_30  and  O_37
REMARK   13  A    between atoms: C_32  and  O_36
REMARK   14  A    between atoms: O_37  and  C_38
REMARK   15  A    between atoms: C_40  and  O_53
REMARK   16  A    between atoms: C_42  and  O_52
REMARK   17  A    between atoms: C_44  and  O_51
REMARK   18  A    between atoms: C_46  and  C_49
REMARK   19  A    between atoms: C_49  and  O_50
REMARK   20  A    between atoms: C_56  and  O_61
REMARK   21  A    between atoms: C_57  and  O_60
REMARK                            x       y       z     vdW  Elec       q    Type
REMARK                         _______ _______ _______ _____ _____    ______ ____
ROOT
ATOM      1  C   UNL     1       7.376  -1.108  24.546  0.00  0.00    +0.214 A 
ATOM      2  C   UNL     1       7.215  -2.082  23.398  0.00  0.00    +0.238 A 
ATOM      3  O   UNL     1       8.035  -2.060  22.483  0.00  0.00    -0.283 OA
ATOM      4  C   UNL     1       6.098  -3.064  23.461  0.00  0.00    +0.109 A 
ATOM      5  C   UNL     1       5.218  -2.939  24.510  0.00  0.00    +0.147 A 
ATOM      6  C   UNL     1       4.191  -3.871  24.743  0.00  0.00    +0.093 A 
ATOM      7  C   UNL     1       4.013  -4.949  23.889  0.00  0.00    +0.131 A 
ATOM      8  C   UNL     1       4.867  -5.065  22.785  0.00  0.00    +0.092 A 
ATOM      9  O   UNL     1       5.260  -1.906  25.404  0.00  0.00    -0.451 OA
ATOM     10  C   UNL     1       5.895  -4.126  22.567  0.00  0.00    +0.135 A 
ATOM     11  C   UNL     1       6.356  -1.064  25.445  0.00  0.00    +0.181 A 
ENDROOT
BRANCH  11  12
ATOM     12  C   UNL     1       6.159  -0.213  26.636  0.00  0.00    +0.025 A 
ATOM     13  C   UNL     1       4.959   0.501  26.773  0.00  0.00    +0.015 A 
ATOM     14  C   UNL     1       4.818   1.477  27.769  0.00  0.00    +0.050 A 
ATOM     15  C   UNL     1       5.869   1.723  28.637  0.00  0.00    +0.158 A 
ATOM     16  C   UNL     1       7.053   1.007  28.528  0.00  0.00    +0.159 A 
ATOM     17  C   UNL     1       7.228   0.073  27.506  0.00  0.00    +0.060 A 
BRANCH  16  18
ATOM     18  O   UNL     1       8.010   1.225  29.485  0.00  0.00    -0.503 OA
ATOM     19  H   UNL     1       7.809   2.070  29.926  0.00  0.00    +0.292 HD
ENDBRANCH  16  18
BRANCH  15  20
ATOM     20  O   UNL     1       5.728   2.673  29.606  0.00  0.00    -0.503 OA
ATOM     21  H   UNL     1       5.704   2.175  30.448  0.00  0.00    +0.292 HD
ENDBRANCH  15  20
ENDBRANCH  11  12
BRANCH  10  22
ATOM     22  O   UNL     1       6.704  -4.270  21.471  0.00  0.00    -0.506 OA
ATOM     23  H   UNL     1       7.138  -3.431  21.249  0.00  0.00    +0.292 HD
ENDBRANCH  10  22
BRANCH   7  24
ATOM     24  O   UNL     1       3.083  -5.937  24.082  0.00  0.00    -0.461 OA
BRANCH  24  25
ATOM     25  C   UNL     1       3.385  -6.959  25.056  0.00  0.00    +0.339 C 
ATOM     26  O   UNL     1       2.949  -8.277  24.717  0.00  0.00    -0.331 OA
ATOM     27  C   UNL     1       1.546  -8.569  24.783  0.00  0.00    +0.179 C 
ATOM     28  C   UNL     1       0.678  -7.803  25.811  0.00  0.00    +0.177 C 
ATOM     29  C   UNL     1       1.283  -6.508  26.373  0.00  0.00    +0.180 C 
ATOM     30  C   UNL     1       2.811  -6.574  26.431  0.00  0.00    +0.214 C 
BRANCH  29  31
ATOM     31  O   UNL     1       0.805  -5.397  25.617  0.00  0.00    -0.386 OA
ATOM     32  H   UNL     1       0.351  -5.737  24.825  0.00  0.00    +0.210 HD
ENDBRANCH  29  31
BRANCH  30  33
ATOM     33  O   UNL     1       3.227  -7.502  27.446  0.00  0.00    -0.383 OA
ATOM     34  H   UNL     1       4.117  -7.836  27.207  0.00  0.00    +0.210 HD
ENDBRANCH  30  33
BRANCH  28  35
ATOM     35  O   UNL     1       0.488  -8.693  26.935  0.00  0.00    -0.386 OA
ATOM     36  H   UNL     1       0.307  -8.135  27.716  0.00  0.00    +0.210 HD
ENDBRANCH  28  35
BRANCH  27  37
ATOM     37  C   UNL     1       0.978  -8.583  23.359  0.00  0.00    +0.190 C 
BRANCH  37  38
ATOM     38  O   UNL     1       1.995  -8.185  22.427  0.00  0.00    -0.392 OA
ATOM     39  H   UNL     1       1.929  -8.791  21.663  0.00  0.00    +0.210 HD
ENDBRANCH  37  38
ENDBRANCH  27  37
ENDBRANCH  24  25
ENDBRANCH   7  24
BRANCH   1  40
ATOM     40  O   UNL     1       8.569  -0.398  24.468  0.00  0.00    -0.453 OA
BRANCH  40  42
ATOM     41  C   UNL     1       8.717   2.077  24.590  0.00  0.00    +0.221 C 
ATOM     42  C   UNL     1       8.739   0.789  23.696  0.00  0.00    +0.340 C 
ATOM     43  O   UNL     1      10.016   0.736  23.047  0.00  0.00    -0.337 OA
ATOM     44  C   UNL     1      10.178   1.787  22.090  0.00  0.00    +0.198 C 
ATOM     45  C   UNL     1      10.284   3.101  22.833  0.00  0.00    +0.171 C 
ATOM     46  C   UNL     1       9.007   3.284  23.656  0.00  0.00    +0.180 C 
BRANCH  46  47
ATOM     47  O   UNL     1       9.063   4.504  24.403  0.00  0.00    -0.386 OA
ATOM     48  H   UNL     1       8.133   4.740  24.585  0.00  0.00    +0.210 HD
ENDBRANCH  46  47
BRANCH  45  49
ATOM     49  O   UNL     1      11.456   3.048  23.660  0.00  0.00    -0.387 OA
ATOM     50  H   UNL     1      11.763   3.963  23.799  0.00  0.00    +0.210 HD
ENDBRANCH  45  49
BRANCH  41  51
ATOM     51  O   UNL     1       7.483   2.450  25.224  0.00  0.00    -0.337 OA
BRANCH  51  55
ATOM     52  C   UNL     1       5.999   6.228  24.113  0.00  0.00    +0.041 C 
ATOM     53  C   UNL     1       5.215   5.231  24.959  0.00  0.00    +0.149 C 
ATOM     54  O   UNL     1       6.085   4.212  25.465  0.00  0.00    -0.343 OA
ATOM     55  C   UNL     1       6.530   3.230  24.513  0.00  0.00    +0.282 C 
ATOM     56  C   UNL     1       5.294   2.468  23.976  0.00  0.00    +0.201 C 
ATOM     57  C   UNL     1       4.303   3.471  23.342  0.00  0.00    +0.179 C 
ATOM     58  C   UNL     1       3.968   4.630  24.281  0.00  0.00    +0.174 C 
BRANCH  58  59
ATOM     59  O   UNL     1       3.071   4.147  25.309  0.00  0.00    -0.387 OA
ATOM     60  H   UNL     1       2.699   4.923  25.772  0.00  0.00    +0.210 HD
ENDBRANCH  58  59
BRANCH  57  61
ATOM     61  O   UNL     1       4.766   3.999  22.097  0.00  0.00    -0.386 OA
ATOM     62  H   UNL     1       4.058   4.410  21.576  0.00  0.00    +0.210 HD
ENDBRANCH  57  61
BRANCH  56  63
ATOM     63  O   UNL     1       5.625   1.451  23.032  0.00  0.00    -0.384 OA
ATOM     64  H   UNL     1       4.794   0.993  22.765  0.00  0.00    +0.210 HD
ENDBRANCH  56  63
ENDBRANCH  51  55
ENDBRANCH  41  51
ENDBRANCH  40  42
ENDBRANCH   1  40
TORSDOF 20
ENDMDL
MODEL 9
REMARK VINA RESULT:      -5.9      3.743     10.118
REMARK  Name = 
REMARK  21 active torsions:
REMARK  status: ('A' for Active; 'I' for Inactive)
REMARK    1  A    between atoms: C_1  and  C_2
REMARK    2  A    between atoms: C_4  and  O_66
REMARK    3  A    between atoms: C_6  and  O_65
REMARK    4  A    between atoms: C_8  and  O_64
REMARK    5  A    between atoms: C_10  and  O_13
REMARK    6  A    between atoms: O_13  and  C_14
REMARK    7  A    between atoms: C_16  and  O_63
REMARK    8  A    between atoms: C_18  and  O_62
REMARK    9  A    between atoms: C_22  and  O_24
REMARK   10  A    between atoms: O_24  and  C_25
REMARK   11  A    between atoms: C_26  and  C_54
REMARK   12  A    between atoms: C_30  and  O_37
REMARK   13  A    between atoms: C_32  and  O_36
REMARK   14  A    between atoms: O_37  and  C_38
REMARK   15  A    between atoms: C_40  and  O_53
REMARK   16  A    between atoms: C_42  and  O_52
REMARK   17  A    between atoms: C_44  and  O_51
REMARK   18  A    between atoms: C_46  and  C_49
REMARK   19  A    between atoms: C_49  and  O_50
REMARK   20  A    between atoms: C_56  and  O_61
REMARK   21  A    between atoms: C_57  and  O_60
REMARK                            x       y       z     vdW  Elec       q    Type
REMARK                         _______ _______ _______ _____ _____    ______ ____
ROOT
ATOM      1  C   UNL     1       6.630   1.368  26.502  0.00  0.00    +0.214 A 
ATOM      2  C   UNL     1       5.651   0.704  27.447  0.00  0.00    +0.238 A 
ATOM      3  O   UNL     1       5.344   1.285  28.486  0.00  0.00    -0.283 OA
ATOM      4  C   UNL     1       5.060  -0.601  27.045  0.00  0.00    +0.109 A 
ATOM      5  C   UNL     1       5.536  -1.170  25.886  0.00  0.00    +0.147 A 
ATOM      6  C   UNL     1       4.981  -2.341  25.341  0.00  0.00    +0.093 A 
ATOM      7  C   UNL     1       3.935  -2.987  25.982  0.00  0.00    +0.131 A 
ATOM      8  C   UNL     1       3.469  -2.453  27.190  0.00  0.00    +0.092 A 
ATOM      9  O   UNL     1       6.584  -0.655  25.176  0.00  0.00    -0.451 OA
ATOM     10  C   UNL     1       4.033  -1.275  27.722  0.00  0.00    +0.135 A 
ATOM     11  C   UNL     1       7.058   0.614  25.453  0.00  0.00    +0.181 A 
ENDROOT
BRANCH  11  12
ATOM     12  C   UNL     1       8.032   0.917  24.385  0.00  0.00    +0.025 A 
ATOM     13  C   UNL     1       9.338   1.289  24.739  0.00  0.00    +0.015 A 
ATOM     14  C   UNL     1      10.225   1.789  23.775  0.00  0.00    +0.050 A 
ATOM     15  C   UNL     1       9.811   1.896  22.457  0.00  0.00    +0.158 A 
ATOM     16  C   UNL     1       8.529   1.509  22.089  0.00  0.00    +0.159 A 
ATOM     17  C   UNL     1       7.618   1.065  23.049  0.00  0.00    +0.060 A 
BRANCH  16  18
ATOM     18  O   UNL     1       8.221   1.541  20.754  0.00  0.00    -0.503 OA
ATOM     19  H   UNL     1       8.482   2.413  20.405  0.00  0.00    +0.292 HD
ENDBRANCH  16  18
BRANCH  15  20
ATOM     20  O   UNL     1      10.676   2.380  21.521  0.00  0.00    -0.503 OA
ATOM     21  H   UNL     1      11.042   3.198  21.913  0.00  0.00    +0.292 HD
ENDBRANCH  15  20
ENDBRANCH  11  12
BRANCH  10  22
ATOM     22  O   UNL     1       3.555  -0.789  28.910  0.00  0.00    -0.506 OA
ATOM     23  H   UNL     1       4.281  -0.619  29.532  0.00  0.00    +0.292 HD
ENDBRANCH  10  22
BRANCH   7  24
ATOM     24  O   UNL     1       3.293  -4.092  25.484  0.00  0.00    -0.461 OA
BRANCH  24  25
ATOM     25  C   UNL     1       3.598  -5.368  26.083  0.00  0.00    +0.339 C 
ATOM     26  O   UNL     1       4.615  -6.128  25.424  0.00  0.00    -0.331 OA
ATOM     27  C   UNL     1       4.297  -6.743  24.168  0.00  0.00    +0.179 C 
ATOM     28  C   UNL     1       2.836  -7.182  23.905  0.00  0.00    +0.177 C 
ATOM     29  C   UNL     1       1.769  -6.548  24.811  0.00  0.00    +0.180 C 
ATOM     30  C   UNL     1       2.324  -6.223  26.200  0.00  0.00    +0.214 C 
BRANCH  29  31
ATOM     31  O   UNL     1       1.211  -5.409  24.157  0.00  0.00    -0.386 OA
ATOM     32  H   UNL     1       1.761  -5.202  23.380  0.00  0.00    +0.210 HD
ENDBRANCH  29  31
BRANCH  30  33
ATOM     33  O   UNL     1       2.576  -7.437  26.926  0.00  0.00    -0.383 OA
ATOM     34  H   UNL     1       2.213  -7.331  27.831  0.00  0.00    +0.210 HD
ENDBRANCH  30  33
BRANCH  28  35
ATOM     35  O   UNL     1       2.784  -8.608  24.139  0.00  0.00    -0.386 OA
ATOM     36  H   UNL     1       2.987  -9.046  23.290  0.00  0.00    +0.210 HD
ENDBRANCH  28  35
BRANCH  27  37
ATOM     37  C   UNL     1       4.923  -5.913  23.040  0.00  0.00    +0.190 C 
BRANCH  37  38
ATOM     38  O   UNL     1       4.042  -4.836  22.685  0.00  0.00    -0.392 OA
ATOM     39  H   UNL     1       4.597  -4.035  22.606  0.00  0.00    +0.210 HD
ENDBRANCH  37  38
ENDBRANCH  27  37
ENDBRANCH  24  25
ENDBRANCH   7  24
BRANCH   1  40
ATOM     40  O   UNL     1       6.939   2.666  26.893  0.00  0.00    -0.453 OA
BRANCH  40  42
ATOM     41  C   UNL     1       5.951   4.856  26.270  0.00  0.00    +0.221 C 
ATOM     42  C   UNL     1       7.043   3.765  25.990  0.00  0.00    +0.340 C 
ATOM     43  O   UNL     1       8.325   4.383  26.163  0.00  0.00    -0.337 OA
ATOM     44  C   UNL     1       8.592   5.361  25.154  0.00  0.00    +0.198 C 
ATOM     45  C   UNL     1       7.669   6.540  25.374  0.00  0.00    +0.171 C 
ATOM     46  C   UNL     1       6.227   6.035  25.297  0.00  0.00    +0.180 C 
BRANCH  46  47
ATOM     47  O   UNL     1       5.307   7.108  25.522  0.00  0.00    -0.386 OA
ATOM     48  H   UNL     1       4.461   6.812  25.133  0.00  0.00    +0.210 HD
ENDBRANCH  46  47
BRANCH  45  49
ATOM     49  O   UNL     1       7.974   7.108  26.656  0.00  0.00    -0.387 OA
ATOM     50  H   UNL     1       8.762   6.650  27.003  0.00  0.00    +0.210 HD
ENDBRANCH  45  49
BRANCH  41  51
ATOM     51  O   UNL     1       4.577   4.535  26.005  0.00  0.00    -0.337 OA
BRANCH  51  55
ATOM     52  C   UNL     1       3.484   6.727  22.584  0.00  0.00    +0.041 C 
ATOM     53  C   UNL     1       2.500   5.897  23.402  0.00  0.00    +0.149 C 
ATOM     54  O   UNL     1       3.065   5.565  24.676  0.00  0.00    -0.343 OA
ATOM     55  C   UNL     1       4.090   4.557  24.669  0.00  0.00    +0.282 C 
ATOM     56  C   UNL     1       3.477   3.233  24.148  0.00  0.00    +0.201 C 
ATOM     57  C   UNL     1       2.886   3.457  22.737  0.00  0.00    +0.179 C 
ATOM     58  C   UNL     1       1.936   4.654  22.687  0.00  0.00    +0.174 C 
BRANCH  58  59
ATOM     59  O   UNL     1       0.691   4.280  23.324  0.00  0.00    -0.387 OA
ATOM     60  H   UNL     1       0.875   3.538  23.932  0.00  0.00    +0.210 HD
ENDBRANCH  58  59
BRANCH  57  61
ATOM     61  O   UNL     1       3.891   3.619  21.733  0.00  0.00    -0.386 OA
ATOM     62  H   UNL     1       4.644   3.019  21.854  0.00  0.00    +0.210 HD
ENDBRANCH  57  61
BRANCH  56  63
ATOM     63  O   UNL     1       4.408   2.154  24.118  0.00  0.00    -0.384 OA
ATOM     64  H   UNL     1       4.376   1.740  23.224  0.00  0.00    +0.210 HD
ENDBRANCH  56  63
ENDBRANCH  51  55
ENDBRANCH  41  51
ENDBRANCH  40  42
ENDBRANCH   1  40
TORSDOF 20
ENDMDL
