MODEL 1
REMARK VINA RESULT:      -7.0      0.000      0.000
REMARK  Name = 
REMARK  18 active torsions:
REMARK  status: ('A' for Active; 'I' for Inactive)
REMARK    1  A    between atoms: C_3  and  O_33
REMARK    2  A    between atoms: C_4  and  O_32
REMARK    3  A    between atoms: C_6  and  C_7
REMARK    4  A    between atoms: C_8  and  O_31
REMARK    5  A    between atoms: C_12  and  O_30
REMARK    6  A    between atoms: C_14  and  O_18
REMARK    7  A    between atoms: O_18  and  C_19
REMARK    8  A    between atoms: C_20  and  O_29
REMARK    9  A    between atoms: C_21  and  O_28
REMARK   10  A    between atoms: C_22  and  O_27
REMARK   11  A    between atoms: C_23  and  C_25
REMARK   12  A    between atoms: C_25  and  O_26
REMARK   13  A    between atoms: O_33  and  C_34
REMARK   14  A    between atoms: C_35  and  O_44
REMARK   15  A    between atoms: C_36  and  O_43
REMARK   16  A    between atoms: C_37  and  O_42
REMARK   17  A    between atoms: C_38  and  C_40
REMARK   18  A    between atoms: C_40  and  O_41
REMARK                            x       y       z     vdW  Elec       q    Type
REMARK                         _______ _______ _______ _____ _____    ______ ____
ROOT
ATOM      1  C   UNL     1       6.448  -2.678  23.637  0.00  0.00    +0.181 A 
ATOM      2  O   UNL     1       6.249  -1.309  23.364  0.00  0.00    -0.451 OA
ATOM      3  C   UNL     1       7.324  -0.513  23.035  0.00  0.00    +0.147 A 
ATOM      4  C   UNL     1       8.616  -1.022  23.024  0.00  0.00    +0.109 A 
ATOM      5  C   UNL     1       9.695  -0.200  22.721  0.00  0.00    +0.135 A 
ATOM      6  C   UNL     1       9.492   1.137  22.431  0.00  0.00    +0.092 A 
ATOM      7  C   UNL     1       8.206   1.695  22.456  0.00  0.00    +0.131 A 
ATOM      8  C   UNL     1       8.832  -2.436  23.326  0.00  0.00    +0.238 A 
ATOM      9  O   UNL     1       9.966  -2.896  23.321  0.00  0.00    -0.283 OA
ATOM     10  C   UNL     1       7.116   0.852  22.734  0.00  0.00    +0.093 A 
ATOM     11  C   UNL     1       7.657  -3.273  23.585  0.00  0.00    +0.208 A 
ENDROOT
BRANCH   1  13
ATOM     12  C   UNL     1       4.724  -3.303  25.310  0.00  0.00    +0.015 A 
ATOM     13  C   UNL     1       5.192  -3.397  23.998  0.00  0.00    +0.025 A 
ATOM     14  C   UNL     1       4.475  -4.226  23.112  0.00  0.00    +0.060 A 
ATOM     15  C   UNL     1       3.366  -4.966  23.550  0.00  0.00    +0.159 A 
ATOM     16  C   UNL     1       2.973  -4.950  24.887  0.00  0.00    +0.165 A 
ATOM     17  C   UNL     1       3.628  -4.056  25.739  0.00  0.00    +0.050 A 
BRANCH  15  18
ATOM     18  O   UNL     1       2.700  -5.726  22.628  0.00  0.00    -0.503 OA
ATOM     19  H   UNL     1       2.445  -5.115  21.909  0.00  0.00    +0.292 HD
ENDBRANCH  15  18
BRANCH  16  20
ATOM     20  O   UNL     1       2.000  -5.857  25.282  0.00  0.00    -0.457 OA
BRANCH  20  21
ATOM     21  C   UNL     1       2.535  -7.164  25.578  0.00  0.00    +0.339 C 
ATOM     22  O   UNL     1       2.411  -8.047  24.446  0.00  0.00    -0.331 OA
ATOM     23  C   UNL     1       1.064  -8.522  24.254  0.00  0.00    +0.179 C 
ATOM     24  C   UNL     1       0.856  -9.538  25.371  0.00  0.00    +0.177 C 
ATOM     25  C   UNL     1       0.818  -8.777  26.695  0.00  0.00    +0.180 C 
ATOM     26  C   UNL     1       2.020  -7.835  26.881  0.00  0.00    +0.214 C 
BRANCH  26  27
ATOM     27  O   UNL     1       1.766  -6.877  27.915  0.00  0.00    -0.383 OA
ATOM     28  H   UNL     1       1.234  -7.330  28.597  0.00  0.00    +0.210 HD
ENDBRANCH  26  27
BRANCH  25  29
ATOM     29  O   UNL     1       0.793  -9.722  27.787  0.00  0.00    -0.386 OA
ATOM     30  H   UNL     1       0.434 -10.556  27.409  0.00  0.00    +0.210 HD
ENDBRANCH  25  29
BRANCH  24  31
ATOM     31  O   UNL     1       1.964 -10.461  25.418  0.00  0.00    -0.386 OA
ATOM     32  H   UNL     1       2.165 -10.712  24.491  0.00  0.00    +0.210 HD
ENDBRANCH  24  31
BRANCH  23  33
ATOM     33  C   UNL     1       0.948  -9.164  22.868  0.00  0.00    +0.190 C 
BRANCH  33  34
ATOM     34  O   UNL     1       1.687  -8.428  21.893  0.00  0.00    -0.392 OA
ATOM     35  H   UNL     1       1.063  -8.058  21.244  0.00  0.00    +0.210 HD
ENDBRANCH  33  34
ENDBRANCH  23  33
ENDBRANCH  20  21
ENDBRANCH  16  20
ENDBRANCH   1  13
BRANCH  11  36
ATOM     36  O   UNL     1       7.894  -4.623  23.753  0.00  0.00    -0.501 OA
ATOM     37  H   UNL     1       7.044  -5.067  23.914  0.00  0.00    +0.292 HD
ENDBRANCH  11  36
BRANCH   5  38
ATOM     38  O   UNL     1      10.997  -0.623  22.710  0.00  0.00    -0.506 OA
ATOM     39  H   UNL     1      11.131  -1.223  23.480  0.00  0.00    +0.292 HD
ENDBRANCH   5  38
BRANCH   7  40
ATOM     40  O   UNL     1       7.961   3.051  22.251  0.00  0.00    -0.461 OA
BRANCH  40  41
ATOM     41  C   UNL     1       8.682   3.908  23.169  0.00  0.00    +0.339 C 
ATOM     42  O   UNL     1       8.694   3.306  24.476  0.00  0.00    -0.331 OA
ATOM     43  C   UNL     1       7.402   3.414  25.107  0.00  0.00    +0.179 C 
ATOM     44  C   UNL     1       7.273   4.877  25.528  0.00  0.00    +0.177 C 
ATOM     45  C   UNL     1       7.143   5.710  24.259  0.00  0.00    +0.180 C 
ATOM     46  C   UNL     1       8.254   5.403  23.242  0.00  0.00    +0.214 C 
BRANCH  46  47
ATOM     47  O   UNL     1       7.937   5.942  21.955  0.00  0.00    -0.383 OA
ATOM     48  H   UNL     1       8.761   6.338  21.610  0.00  0.00    +0.210 HD
ENDBRANCH  46  47
BRANCH  45  49
ATOM     49  O   UNL     1       7.208   7.108  24.601  0.00  0.00    -0.386 OA
ATOM     50  H   UNL     1       7.373   7.565  23.746  0.00  0.00    +0.210 HD
ENDBRANCH  45  49
BRANCH  44  51
ATOM     51  O   UNL     1       8.454   5.351  26.205  0.00  0.00    -0.386 OA
ATOM     52  H   UNL     1       8.459   4.930  27.090  0.00  0.00    +0.210 HD
ENDBRANCH  44  51
BRANCH  43  53
ATOM     53  C   UNL     1       7.353   2.422  26.266  0.00  0.00    +0.190 C 
BRANCH  53  54
ATOM     54  O   UNL     1       8.284   1.364  26.065  0.00  0.00    -0.392 OA
ATOM     55  H   UNL     1       8.920   1.433  26.802  0.00  0.00    +0.210 HD
ENDBRANCH  53  54
ENDBRANCH  43  53
ENDBRANCH  40  41
ENDBRANCH   7  40
TORSDOF 18
ENDMDL
MODEL 2
REMARK VINA RESULT:      -6.9      2.553      4.804
REMARK  Name = 
REMARK  18 active torsions:
REMARK  status: ('A' for Active; 'I' for Inactive)
REMARK    1  A    between atoms: C_3  and  O_33
REMARK    2  A    between atoms: C_4  and  O_32
REMARK    3  A    between atoms: C_6  and  C_7
REMARK    4  A    between atoms: C_8  and  O_31
REMARK    5  A    between atoms: C_12  and  O_30
REMARK    6  A    between atoms: C_14  and  O_18
REMARK    7  A    between atoms: O_18  and  C_19
REMARK    8  A    between atoms: C_20  and  O_29
REMARK    9  A    between atoms: C_21  and  O_28
REMARK   10  A    between atoms: C_22  and  O_27
REMARK   11  A    between atoms: C_23  and  C_25
REMARK   12  A    between atoms: C_25  and  O_26
REMARK   13  A    between atoms: O_33  and  C_34
REMARK   14  A    between atoms: C_35  and  O_44
REMARK   15  A    between atoms: C_36  and  O_43
REMARK   16  A    between atoms: C_37  and  O_42
REMARK   17  A    between atoms: C_38  and  C_40
REMARK   18  A    between atoms: C_40  and  O_41
REMARK                            x       y       z     vdW  Elec       q    Type
REMARK                         _______ _______ _______ _____ _____    ______ ____
ROOT
ATOM      1  C   UNL     1       8.271  -0.265  23.118  0.00  0.00    +0.181 A 
ATOM      2  O   UNL     1       7.772   0.535  24.167  0.00  0.00    -0.451 OA
ATOM      3  C   UNL     1       8.240   1.821  24.329  0.00  0.00    +0.147 A 
ATOM      4  C   UNL     1       9.242   2.328  23.512  0.00  0.00    +0.109 A 
ATOM      5  C   UNL     1       9.727   3.616  23.707  0.00  0.00    +0.135 A 
ATOM      6  C   UNL     1       9.217   4.404  24.722  0.00  0.00    +0.092 A 
ATOM      7  C   UNL     1       8.223   3.921  25.584  0.00  0.00    +0.131 A 
ATOM      8  C   UNL     1       9.779   1.497  22.436  0.00  0.00    +0.238 A 
ATOM      9  O   UNL     1      10.662   1.931  21.710  0.00  0.00    -0.283 OA
ATOM     10  C   UNL     1       7.716   2.629  25.363  0.00  0.00    +0.093 A 
ATOM     11  C   UNL     1       9.196   0.166  22.236  0.00  0.00    +0.208 A 
ENDROOT
BRANCH   1  13
ATOM     12  C   UNL     1       6.365  -1.786  22.655  0.00  0.00    +0.015 A 
ATOM     13  C   UNL     1       7.683  -1.635  23.089  0.00  0.00    +0.025 A 
ATOM     14  C   UNL     1       8.353  -2.791  23.536  0.00  0.00    +0.060 A 
ATOM     15  C   UNL     1       7.701  -4.032  23.590  0.00  0.00    +0.159 A 
ATOM     16  C   UNL     1       6.352  -4.150  23.259  0.00  0.00    +0.165 A 
ATOM     17  C   UNL     1       5.719  -3.023  22.728  0.00  0.00    +0.050 A 
BRANCH  15  18
ATOM     18  O   UNL     1       8.423  -5.117  24.007  0.00  0.00    -0.503 OA
ATOM     19  H   UNL     1       9.342  -4.957  23.716  0.00  0.00    +0.292 HD
ENDBRANCH  15  18
BRANCH  16  20
ATOM     20  O   UNL     1       5.728  -5.360  23.529  0.00  0.00    -0.457 OA
BRANCH  20  21
ATOM     21  C   UNL     1       4.640  -5.236  24.467  0.00  0.00    +0.339 C 
ATOM     22  O   UNL     1       5.124  -4.938  25.791  0.00  0.00    -0.331 OA
ATOM     23  C   UNL     1       5.700  -6.086  26.444  0.00  0.00    +0.179 C 
ATOM     24  C   UNL     1       4.504  -6.952  26.819  0.00  0.00    +0.177 C 
ATOM     25  C   UNL     1       3.899  -7.501  25.527  0.00  0.00    +0.180 C 
ATOM     26  C   UNL     1       3.615  -6.404  24.486  0.00  0.00    +0.214 C 
BRANCH  26  27
ATOM     27  O   UNL     1       3.422  -6.971  23.185  0.00  0.00    -0.383 OA
ATOM     28  H   UNL     1       4.277  -6.908  22.717  0.00  0.00    +0.210 HD
ENDBRANCH  26  27
BRANCH  25  29
ATOM     29  O   UNL     1       2.665  -8.185  25.832  0.00  0.00    -0.386 OA
ATOM     30  H   UNL     1       2.324  -8.515  24.971  0.00  0.00    +0.210 HD
ENDBRANCH  25  29
BRANCH  24  31
ATOM     31  O   UNL     1       3.498  -6.155  27.479  0.00  0.00    -0.386 OA
ATOM     32  H   UNL     1       3.618  -5.232  27.169  0.00  0.00    +0.210 HD
ENDBRANCH  24  31
BRANCH  23  33
ATOM     33  C   UNL     1       6.481  -5.625  27.679  0.00  0.00    +0.190 C 
BRANCH  33  34
ATOM     34  O   UNL     1       7.889  -5.751  27.479  0.00  0.00    -0.392 OA
ATOM     35  H   UNL     1       8.145  -6.675  27.646  0.00  0.00    +0.210 HD
ENDBRANCH  33  34
ENDBRANCH  23  33
ENDBRANCH  20  21
ENDBRANCH  16  20
ENDBRANCH   1  13
BRANCH  11  36
ATOM     36  O   UNL     1       9.649  -0.541  21.140  0.00  0.00    -0.501 OA
ATOM     37  H   UNL     1      10.616  -0.448  21.092  0.00  0.00    +0.292 HD
ENDBRANCH  11  36
BRANCH   5  38
ATOM     38  O   UNL     1      10.725   4.177  22.957  0.00  0.00    -0.506 OA
ATOM     39  H   UNL     1      11.181   3.456  22.466  0.00  0.00    +0.292 HD
ENDBRANCH   5  38
BRANCH   7  40
ATOM     40  O   UNL     1       7.738   4.648  26.669  0.00  0.00    -0.461 OA
BRANCH  40  41
ATOM     41  C   UNL     1       6.439   4.197  27.126  0.00  0.00    +0.339 C 
ATOM     42  O   UNL     1       5.409   4.899  26.405  0.00  0.00    -0.331 OA
ATOM     43  C   UNL     1       5.297   6.261  26.861  0.00  0.00    +0.179 C 
ATOM     44  C   UNL     1       4.611   6.182  28.225  0.00  0.00    +0.177 C 
ATOM     45  C   UNL     1       5.594   5.540  29.195  0.00  0.00    +0.180 C 
ATOM     46  C   UNL     1       6.169   4.219  28.659  0.00  0.00    +0.214 C 
BRANCH  46  47
ATOM     47  O   UNL     1       7.309   3.807  29.419  0.00  0.00    -0.383 OA
ATOM     48  H   UNL     1       8.012   4.462  29.239  0.00  0.00    +0.210 HD
ENDBRANCH  46  47
BRANCH  45  49
ATOM     49  O   UNL     1       4.924   5.274  30.442  0.00  0.00    -0.386 OA
ATOM     50  H   UNL     1       5.171   6.029  31.023  0.00  0.00    +0.210 HD
ENDBRANCH  45  49
BRANCH  44  51
ATOM     51  O   UNL     1       3.452   5.326  28.197  0.00  0.00    -0.386 OA
ATOM     52  H   UNL     1       2.668   5.912  28.255  0.00  0.00    +0.210 HD
ENDBRANCH  44  51
BRANCH  43  53
ATOM     53  C   UNL     1       4.517   7.052  25.814  0.00  0.00    +0.190 C 
BRANCH  53  54
ATOM     54  O   UNL     1       3.377   6.320  25.376  0.00  0.00    -0.392 OA
ATOM     55  H   UNL     1       3.021   5.889  26.176  0.00  0.00    +0.210 HD
ENDBRANCH  53  54
ENDBRANCH  43  53
ENDBRANCH  40  41
ENDBRANCH   7  40
TORSDOF 18
ENDMDL
MODEL 3
REMARK VINA RESULT:      -6.8      2.337      3.902
REMARK  Name = 
REMARK  18 active torsions:
REMARK  status: ('A' for Active; 'I' for Inactive)
REMARK    1  A    between atoms: C_3  and  O_33
REMARK    2  A    between atoms: C_4  and  O_32
REMARK    3  A    between atoms: C_6  and  C_7
REMARK    4  A    between atoms: C_8  and  O_31
REMARK    5  A    between atoms: C_12  and  O_30
REMARK    6  A    between atoms: C_14  and  O_18
REMARK    7  A    between atoms: O_18  and  C_19
REMARK    8  A    between atoms: C_20  and  O_29
REMARK    9  A    between atoms: C_21  and  O_28
REMARK   10  A    between atoms: C_22  and  O_27
REMARK   11  A    between atoms: C_23  and  C_25
REMARK   12  A    between atoms: C_25  and  O_26
REMARK   13  A    between atoms: O_33  and  C_34
REMARK   14  A    between atoms: C_35  and  O_44
REMARK   15  A    between atoms: C_36  and  O_43
REMARK   16  A    between atoms: C_37  and  O_42
REMARK   17  A    between atoms: C_38  and  C_40
REMARK   18  A    between atoms: C_40  and  O_41
REMARK                            x       y       z     vdW  Elec       q    Type
REMARK                         _______ _______ _______ _____ _____    ______ ____
ROOT
ATOM      1  C   UNL     1       7.989  -1.966  24.151  0.00  0.00    +0.181 A 
ATOM      2  O   UNL     1       7.133  -0.854  24.293  0.00  0.00    -0.451 OA
ATOM      3  C   UNL     1       7.654   0.421  24.248  0.00  0.00    +0.147 A 
ATOM      4  C   UNL     1       9.021   0.633  24.124  0.00  0.00    +0.109 A 
ATOM      5  C   UNL     1       9.536   1.924  24.111  0.00  0.00    +0.135 A 
ATOM      6  C   UNL     1       8.690   3.011  24.227  0.00  0.00    +0.092 A 
ATOM      7  C   UNL     1       7.308   2.839  24.379  0.00  0.00    +0.131 A 
ATOM      8  C   UNL     1       9.916  -0.516  23.997  0.00  0.00    +0.238 A 
ATOM      9  O   UNL     1      11.123  -0.343  23.888  0.00  0.00    -0.283 OA
ATOM     10  C   UNL     1       6.790   1.533  24.361  0.00  0.00    +0.093 A 
ATOM     11  C   UNL     1       9.319  -1.855  23.960  0.00  0.00    +0.208 A 
ENDROOT
BRANCH   1  13
ATOM     12  C   UNL     1       6.483  -3.679  23.171  0.00  0.00    +0.015 A 
ATOM     13  C   UNL     1       7.278  -3.273  24.245  0.00  0.00    +0.025 A 
ATOM     14  C   UNL     1       7.303  -4.107  25.381  0.00  0.00    +0.060 A 
ATOM     15  C   UNL     1       6.518  -5.268  25.446  0.00  0.00    +0.159 A 
ATOM     16  C   UNL     1       5.644  -5.604  24.413  0.00  0.00    +0.165 A 
ATOM     17  C   UNL     1       5.693  -4.828  23.252  0.00  0.00    +0.050 A 
BRANCH  15  18
ATOM     18  O   UNL     1       6.616  -6.044  26.569  0.00  0.00    -0.503 OA
ATOM     19  H   UNL     1       5.914  -5.733  27.173  0.00  0.00    +0.292 HD
ENDBRANCH  15  18
BRANCH  16  20
ATOM     20  O   UNL     1       4.759  -6.649  24.636  0.00  0.00    -0.457 OA
BRANCH  20  21
ATOM     21  C   UNL     1       3.390  -6.212  24.759  0.00  0.00    +0.339 C 
ATOM     22  O   UNL     1       3.183  -5.481  25.983  0.00  0.00    -0.331 OA
ATOM     23  C   UNL     1       3.126  -6.338  27.140  0.00  0.00    +0.179 C 
ATOM     24  C   UNL     1       1.769  -7.023  27.041  0.00  0.00    +0.177 C 
ATOM     25  C   UNL     1       1.812  -7.978  25.849  0.00  0.00    +0.180 C 
ATOM     26  C   UNL     1       2.302  -7.302  24.556  0.00  0.00    +0.214 C 
BRANCH  26  27
ATOM     27  O   UNL     1       2.693  -8.279  23.584  0.00  0.00    -0.383 OA
ATOM     28  H   UNL     1       2.290  -8.012  22.736  0.00  0.00    +0.210 HD
ENDBRANCH  26  27
BRANCH  25  29
ATOM     29  O   UNL     1       0.492  -8.517  25.622  0.00  0.00    -0.386 OA
ATOM     30  H   UNL     1       0.423  -8.652  24.650  0.00  0.00    +0.210 HD
ENDBRANCH  25  29
BRANCH  24  31
ATOM     31  O   UNL     1       0.734  -6.048  26.794  0.00  0.00    -0.386 OA
ATOM     32  H   UNL     1       1.098  -5.405  26.148  0.00  0.00    +0.210 HD
ENDBRANCH  24  31
BRANCH  23  33
ATOM     33  C   UNL     1       3.245  -5.484  28.406  0.00  0.00    +0.190 C 
BRANCH  33  34
ATOM     34  O   UNL     1       4.592  -5.065  28.625  0.00  0.00    -0.392 OA
ATOM     35  H   UNL     1       5.184  -5.818  28.451  0.00  0.00    +0.210 HD
ENDBRANCH  33  34
ENDBRANCH  23  33
ENDBRANCH  20  21
ENDBRANCH  16  20
ENDBRANCH   1  13
BRANCH  11  36
ATOM     36  O   UNL     1      10.186  -2.904  23.725  0.00  0.00    -0.501 OA
ATOM     37  H   UNL     1      10.581  -3.172  24.571  0.00  0.00    +0.292 HD
ENDBRANCH  11  36
BRANCH   5  38
ATOM     38  O   UNL     1      10.871   2.211  24.012  0.00  0.00    -0.506 OA
ATOM     39  H   UNL     1      11.094   2.308  23.058  0.00  0.00    +0.292 HD
ENDBRANCH   5  38
BRANCH   7  40
ATOM     40  O   UNL     1       6.426   3.899  24.580  0.00  0.00    -0.461 OA
BRANCH  40  41
ATOM     41  C   UNL     1       5.389   3.981  23.574  0.00  0.00    +0.339 C 
ATOM     42  O   UNL     1       5.840   4.814  22.489  0.00  0.00    -0.331 OA
ATOM     43  C   UNL     1       5.832   6.204  22.868  0.00  0.00    +0.179 C 
ATOM     44  C   UNL     1       4.360   6.617  22.879  0.00  0.00    +0.177 C 
ATOM     45  C   UNL     1       3.694   5.905  24.049  0.00  0.00    +0.180 C 
ATOM     46  C   UNL     1       3.962   4.391  24.043  0.00  0.00    +0.214 C 
BRANCH  46  47
ATOM     47  O   UNL     1       3.612   3.800  25.298  0.00  0.00    -0.383 OA
ATOM     48  H   UNL     1       4.146   2.987  25.379  0.00  0.00    +0.210 HD
ENDBRANCH  46  47
BRANCH  45  49
ATOM     49  O   UNL     1       2.270   6.117  23.985  0.00  0.00    -0.386 OA
ATOM     50  H   UNL     1       2.141   6.700  23.203  0.00  0.00    +0.210 HD
ENDBRANCH  45  49
BRANCH  44  51
ATOM     51  O   UNL     1       3.668   6.183  21.692  0.00  0.00    -0.386 OA
ATOM     52  H   UNL     1       4.354   5.873  21.064  0.00  0.00    +0.210 HD
ENDBRANCH  44  51
BRANCH  43  53
ATOM     53  C   UNL     1       6.690   6.976  21.869  0.00  0.00    +0.190 C 
BRANCH  53  54
ATOM     54  O   UNL     1       7.829   6.211  21.487  0.00  0.00    -0.392 OA
ATOM     55  H   UNL     1       8.602   6.740  21.762  0.00  0.00    +0.210 HD
ENDBRANCH  53  54
ENDBRANCH  43  53
ENDBRANCH  40  41
ENDBRANCH   7  40
TORSDOF 18
ENDMDL
MODEL 4
REMARK VINA RESULT:      -6.7      1.214      2.219
REMARK  Name = 
REMARK  18 active torsions:
REMARK  status: ('A' for Active; 'I' for Inactive)
REMARK    1  A    between atoms: C_3  and  O_33
REMARK    2  A    between atoms: C_4  and  O_32
REMARK    3  A    between atoms: C_6  and  C_7
REMARK    4  A    between atoms: C_8  and  O_31
REMARK    5  A    between atoms: C_12  and  O_30
REMARK    6  A    between atoms: C_14  and  O_18
REMARK    7  A    between atoms: O_18  and  C_19
REMARK    8  A    between atoms: C_20  and  O_29
REMARK    9  A    between atoms: C_21  and  O_28
REMARK   10  A    between atoms: C_22  and  O_27
REMARK   11  A    between atoms: C_23  and  C_25
REMARK   12  A    between atoms: C_25  and  O_26
REMARK   13  A    between atoms: O_33  and  C_34
REMARK   14  A    between atoms: C_35  and  O_44
REMARK   15  A    between atoms: C_36  and  O_43
REMARK   16  A    between atoms: C_37  and  O_42
REMARK   17  A    between atoms: C_38  and  C_40
REMARK   18  A    between atoms: C_40  and  O_41
REMARK                            x       y       z     vdW  Elec       q    Type
REMARK                         _______ _______ _______ _____ _____    ______ ____
ROOT
ATOM      1  C   UNL     1       6.646  -2.098  24.245  0.00  0.00    +0.181 A 
ATOM      2  O   UNL     1       6.488  -0.707  24.411  0.00  0.00    -0.451 OA
ATOM      3  C   UNL     1       7.576   0.126  24.279  0.00  0.00    +0.147 A 
ATOM      4  C   UNL     1       8.845  -0.385  24.040  0.00  0.00    +0.109 A 
ATOM      5  C   UNL     1       9.941   0.465  23.940  0.00  0.00    +0.135 A 
ATOM      6  C   UNL     1       9.776   1.831  24.080  0.00  0.00    +0.092 A 
ATOM      7  C   UNL     1       8.516   2.384  24.346  0.00  0.00    +0.131 A 
ATOM      8  C   UNL     1       9.020  -1.828  23.887  0.00  0.00    +0.238 A 
ATOM      9  O   UNL     1      10.134  -2.291  23.678  0.00  0.00    -0.283 OA
ATOM     10  C   UNL     1       7.408   1.522  24.416  0.00  0.00    +0.093 A 
ATOM     11  C   UNL     1       7.827  -2.677  23.947  0.00  0.00    +0.208 A 
ENDROOT
BRANCH   1  13
ATOM     12  C   UNL     1       4.748  -2.798  25.685  0.00  0.00    +0.015 A 
ATOM     13  C   UNL     1       5.382  -2.864  24.442  0.00  0.00    +0.025 A 
ATOM     14  C   UNL     1       4.811  -3.711  23.471  0.00  0.00    +0.060 A 
ATOM     15  C   UNL     1       3.684  -4.493  23.762  0.00  0.00    +0.159 A 
ATOM     16  C   UNL     1       3.125  -4.502  25.039  0.00  0.00    +0.165 A 
ATOM     17  C   UNL     1       3.635  -3.592  25.970  0.00  0.00    +0.050 A 
BRANCH  15  18
ATOM     18  O   UNL     1       3.167  -5.269  22.761  0.00  0.00    -0.503 OA
ATOM     19  H   UNL     1       3.907  -5.818  22.436  0.00  0.00    +0.292 HD
ENDBRANCH  15  18
BRANCH  16  20
ATOM     20  O   UNL     1       2.144  -5.446  25.304  0.00  0.00    -0.457 OA
BRANCH  20  21
ATOM     21  C   UNL     1       2.681  -6.758  25.571  0.00  0.00    +0.339 C 
ATOM     22  O   UNL     1       2.581  -7.608  24.412  0.00  0.00    -0.331 OA
ATOM     23  C   UNL     1       1.240  -8.084  24.186  0.00  0.00    +0.179 C 
ATOM     24  C   UNL     1       1.020  -9.133  25.269  0.00  0.00    +0.177 C 
ATOM     25  C   UNL     1       0.955  -8.412  26.614  0.00  0.00    +0.180 C 
ATOM     26  C   UNL     1       2.149  -7.469  26.846  0.00  0.00    +0.214 C 
BRANCH  26  27
ATOM     27  O   UNL     1       1.873  -6.543  27.903  0.00  0.00    -0.383 OA
ATOM     28  H   UNL     1       1.177  -5.941  27.578  0.00  0.00    +0.210 HD
ENDBRANCH  26  27
BRANCH  25  29
ATOM     29  O   UNL     1       0.918  -9.388  27.677  0.00  0.00    -0.386 OA
ATOM     30  H   UNL     1       1.728  -9.934  27.565  0.00  0.00    +0.210 HD
ENDBRANCH  25  29
BRANCH  24  31
ATOM     31  O   UNL     1       2.132 -10.052  25.308  0.00  0.00    -0.386 OA
ATOM     32  H   UNL     1       2.843  -9.615  25.823  0.00  0.00    +0.210 HD
ENDBRANCH  24  31
BRANCH  23  33
ATOM     33  C   UNL     1       1.150  -8.687  22.780  0.00  0.00    +0.190 C 
BRANCH  33  34
ATOM     34  O   UNL     1       1.740  -7.824  21.808  0.00  0.00    -0.392 OA
ATOM     35  H   UNL     1       1.064  -7.198  21.495  0.00  0.00    +0.210 HD
ENDBRANCH  33  34
ENDBRANCH  23  33
ENDBRANCH  20  21
ENDBRANCH  16  20
ENDBRANCH   1  13
BRANCH  11  36
ATOM     36  O   UNL     1       8.018  -4.020  23.684  0.00  0.00    -0.501 OA
ATOM     37  H   UNL     1       8.711  -4.105  23.008  0.00  0.00    +0.292 HD
ENDBRANCH  11  36
BRANCH   5  38
ATOM     38  O   UNL     1      11.223   0.036  23.727  0.00  0.00    -0.506 OA
ATOM     39  H   UNL     1      11.833   0.639  24.209  0.00  0.00    +0.292 HD
ENDBRANCH   5  38
BRANCH   7  40
ATOM     40  O   UNL     1       8.315   3.744  24.575  0.00  0.00    -0.461 OA
BRANCH  40  41
ATOM     41  C   UNL     1       6.934   4.080  24.853  0.00  0.00    +0.339 C 
ATOM     42  O   UNL     1       6.383   4.800  23.734  0.00  0.00    -0.331 OA
ATOM     43  C   UNL     1       6.890   6.148  23.688  0.00  0.00    +0.179 C 
ATOM     44  C   UNL     1       6.176   6.893  24.815  0.00  0.00    +0.177 C 
ATOM     45  C   UNL     1       6.700   6.339  26.134  0.00  0.00    +0.180 C 
ATOM     46  C   UNL     1       6.626   4.805  26.195  0.00  0.00    +0.214 C 
BRANCH  46  47
ATOM     47  O   UNL     1       7.406   4.294  27.281  0.00  0.00    -0.383 OA
ATOM     48  H   UNL     1       7.449   3.326  27.158  0.00  0.00    +0.210 HD
ENDBRANCH  46  47
BRANCH  45  49
ATOM     49  O   UNL     1       5.920   6.878  27.218  0.00  0.00    -0.386 OA
ATOM     50  H   UNL     1       5.210   6.214  27.369  0.00  0.00    +0.210 HD
ENDBRANCH  45  49
BRANCH  44  51
ATOM     51  O   UNL     1       4.756   6.650  24.809  0.00  0.00    -0.386 OA
ATOM     52  H   UNL     1       4.322   7.516  24.659  0.00  0.00    +0.210 HD
ENDBRANCH  44  51
BRANCH  43  53
ATOM     53  C   UNL     1       6.619   6.713  22.296  0.00  0.00    +0.190 C 
BRANCH  53  54
ATOM     54  O   UNL     1       7.509   6.146  21.340  0.00  0.00    -0.392 OA
ATOM     55  H   UNL     1       8.127   6.864  21.101  0.00  0.00    +0.210 HD
ENDBRANCH  53  54
ENDBRANCH  43  53
ENDBRANCH  40  41
ENDBRANCH   7  40
TORSDOF 18
ENDMDL
MODEL 5
REMARK VINA RESULT:      -6.6      2.651      3.913
REMARK  Name = 
REMARK  18 active torsions:
REMARK  status: ('A' for Active; 'I' for Inactive)
REMARK    1  A    between atoms: C_3  and  O_33
REMARK    2  A    between atoms: C_4  and  O_32
REMARK    3  A    between atoms: C_6  and  C_7
REMARK    4  A    between atoms: C_8  and  O_31
REMARK    5  A    between atoms: C_12  and  O_30
REMARK    6  A    between atoms: C_14  and  O_18
REMARK    7  A    between atoms: O_18  and  C_19
REMARK    8  A    between atoms: C_20  and  O_29
REMARK    9  A    between atoms: C_21  and  O_28
REMARK   10  A    between atoms: C_22  and  O_27
REMARK   11  A    between atoms: C_23  and  C_25
REMARK   12  A    between atoms: C_25  and  O_26
REMARK   13  A    between atoms: O_33  and  C_34
REMARK   14  A    between atoms: C_35  and  O_44
REMARK   15  A    between atoms: C_36  and  O_43
REMARK   16  A    between atoms: C_37  and  O_42
REMARK   17  A    between atoms: C_38  and  C_40
REMARK   18  A    between atoms: C_40  and  O_41
REMARK                            x       y       z     vdW  Elec       q    Type
REMARK                         _______ _______ _______ _____ _____    ______ ____
ROOT
ATOM      1  C   UNL     1       7.865  -1.986  23.397  0.00  0.00    +0.181 A 
ATOM      2  O   UNL     1       6.968  -0.940  23.099  0.00  0.00    -0.451 OA
ATOM      3  C   UNL     1       7.448   0.332  22.881  0.00  0.00    +0.147 A 
ATOM      4  C   UNL     1       8.801   0.620  23.008  0.00  0.00    +0.109 A 
ATOM      5  C   UNL     1       9.268   1.915  22.817  0.00  0.00    +0.135 A 
ATOM      6  C   UNL     1       8.386   2.932  22.501  0.00  0.00    +0.092 A 
ATOM      7  C   UNL     1       7.011   2.688  22.388  0.00  0.00    +0.131 A 
ATOM      8  C   UNL     1       9.735  -0.456  23.338  0.00  0.00    +0.238 A 
ATOM      9  O   UNL     1      10.929  -0.215  23.454  0.00  0.00    -0.283 OA
ATOM     10  C   UNL     1       6.549   1.371  22.553  0.00  0.00    +0.093 A 
ATOM     11  C   UNL     1       9.200  -1.814  23.475  0.00  0.00    +0.208 A 
ENDROOT
BRANCH   1  13
ATOM     12  C   UNL     1       6.351  -3.798  22.631  0.00  0.00    +0.015 A 
ATOM     13  C   UNL     1       7.191  -3.296  23.627  0.00  0.00    +0.025 A 
ATOM     14  C   UNL     1       7.292  -4.038  24.821  0.00  0.00    +0.060 A 
ATOM     15  C   UNL     1       6.539  -5.205  25.016  0.00  0.00    +0.159 A 
ATOM     16  C   UNL     1       5.621  -5.637  24.059  0.00  0.00    +0.165 A 
ATOM     17  C   UNL     1       5.593  -4.953  22.841  0.00  0.00    +0.050 A 
BRANCH  15  18
ATOM     18  O   UNL     1       6.712  -5.890  26.188  0.00  0.00    -0.503 OA
ATOM     19  H   UNL     1       6.686  -6.838  25.952  0.00  0.00    +0.292 HD
ENDBRANCH  15  18
BRANCH  16  20
ATOM     20  O   UNL     1       4.773  -6.678  24.407  0.00  0.00    -0.457 OA
BRANCH  20  21
ATOM     21  C   UNL     1       3.416  -6.247  24.638  0.00  0.00    +0.339 C 
ATOM     22  O   UNL     1       3.296  -5.552  25.894  0.00  0.00    -0.331 OA
ATOM     23  C   UNL     1       3.320  -6.442  27.027  0.00  0.00    +0.179 C 
ATOM     24  C   UNL     1       1.959  -7.126  27.004  0.00  0.00    +0.177 C 
ATOM     25  C   UNL     1       1.917  -8.046  25.785  0.00  0.00    +0.180 C 
ATOM     26  C   UNL     1       2.316  -7.333  24.481  0.00  0.00    +0.214 C 
BRANCH  26  27
ATOM     27  O   UNL     1       2.637  -8.280  23.456  0.00  0.00    -0.383 OA
ATOM     28  H   UNL     1       2.129  -8.024  22.663  0.00  0.00    +0.210 HD
ENDBRANCH  26  27
BRANCH  25  29
ATOM     29  O   UNL     1       0.584  -8.580  25.635  0.00  0.00    -0.386 OA
ATOM     30  H   UNL     1       0.442  -9.164  26.413  0.00  0.00    +0.210 HD
ENDBRANCH  25  29
BRANCH  24  31
ATOM     31  O   UNL     1       0.910  -6.145  26.858  0.00  0.00    -0.386 OA
ATOM     32  H   UNL     1       1.263  -5.298  27.207  0.00  0.00    +0.210 HD
ENDBRANCH  24  31
BRANCH  23  33
ATOM     33  C   UNL     1       3.527  -5.624  28.306  0.00  0.00    +0.190 C 
BRANCH  33  34
ATOM     34  O   UNL     1       4.908  -5.326  28.512  0.00  0.00    -0.392 OA
ATOM     35  H   UNL     1       5.291  -5.026  27.669  0.00  0.00    +0.210 HD
ENDBRANCH  33  34
ENDBRANCH  23  33
ENDBRANCH  20  21
ENDBRANCH  16  20
ENDBRANCH   1  13
BRANCH  11  36
ATOM     36  O   UNL     1      10.129  -2.818  23.673  0.00  0.00    -0.501 OA
ATOM     37  H   UNL     1       9.690  -3.675  23.532  0.00  0.00    +0.292 HD
ENDBRANCH  11  36
BRANCH   5  38
ATOM     38  O   UNL     1      10.581   2.279  22.944  0.00  0.00    -0.506 OA
ATOM     39  H   UNL     1      11.129   1.634  22.440  0.00  0.00    +0.292 HD
ENDBRANCH   5  38
BRANCH   7  40
ATOM     40  O   UNL     1       6.076   3.695  22.153  0.00  0.00    -0.461 OA
BRANCH  40  41
ATOM     41  C   UNL     1       5.107   3.838  23.219  0.00  0.00    +0.339 C 
ATOM     42  O   UNL     1       3.868   3.218  22.825  0.00  0.00    -0.331 OA
ATOM     43  C   UNL     1       3.178   4.020  21.847  0.00  0.00    +0.179 C 
ATOM     44  C   UNL     1       2.606   5.208  22.620  0.00  0.00    +0.177 C 
ATOM     45  C   UNL     1       3.779   6.076  23.059  0.00  0.00    +0.180 C 
ATOM     46  C   UNL     1       4.866   5.268  23.785  0.00  0.00    +0.214 C 
BRANCH  46  47
ATOM     47  O   UNL     1       6.079   6.020  23.896  0.00  0.00    -0.383 OA
ATOM     48  H   UNL     1       6.105   6.618  23.124  0.00  0.00    +0.210 HD
ENDBRANCH  46  47
BRANCH  45  49
ATOM     49  O   UNL     1       3.301   7.103  23.949  0.00  0.00    -0.386 OA
ATOM     50  H   UNL     1       2.509   7.474  23.498  0.00  0.00    +0.210 HD
ENDBRANCH  45  49
BRANCH  44  51
ATOM     51  O   UNL     1       1.934   4.795  23.826  0.00  0.00    -0.386 OA
ATOM     52  H   UNL     1       1.995   5.546  24.453  0.00  0.00    +0.210 HD
ENDBRANCH  44  51
BRANCH  43  53
ATOM     53  C   UNL     1       2.123   3.147  21.173  0.00  0.00    +0.190 C 
BRANCH  53  54
ATOM     54  O   UNL     1       1.525   2.262  22.114  0.00  0.00    -0.392 OA
ATOM     55  H   UNL     1       0.646   2.047  21.747  0.00  0.00    +0.210 HD
ENDBRANCH  53  54
ENDBRANCH  43  53
ENDBRANCH  40  41
ENDBRANCH   7  40
TORSDOF 18
ENDMDL
MODEL 6
REMARK VINA RESULT:      -6.5      3.021     10.722
REMARK  Name = 
REMARK  18 active torsions:
REMARK  status: ('A' for Active; 'I' for Inactive)
REMARK    1  A    between atoms: C_3  and  O_33
REMARK    2  A    between atoms: C_4  and  O_32
REMARK    3  A    between atoms: C_6  and  C_7
REMARK    4  A    between atoms: C_8  and  O_31
REMARK    5  A    between atoms: C_12  and  O_30
REMARK    6  A    between atoms: C_14  and  O_18
REMARK    7  A    between atoms: O_18  and  C_19
REMARK    8  A    between atoms: C_20  and  O_29
REMARK    9  A    between atoms: C_21  and  O_28
REMARK   10  A    between atoms: C_22  and  O_27
REMARK   11  A    between atoms: C_23  and  C_25
REMARK   12  A    between atoms: C_25  and  O_26
REMARK   13  A    between atoms: O_33  and  C_34
REMARK   14  A    between atoms: C_35  and  O_44
REMARK   15  A    between atoms: C_36  and  O_43
REMARK   16  A    between atoms: C_37  and  O_42
REMARK   17  A    between atoms: C_38  and  C_40
REMARK   18  A    between atoms: C_40  and  O_41
REMARK                            x       y       z     vdW  Elec       q    Type
REMARK                         _______ _______ _______ _____ _____    ______ ____
ROOT
ATOM      1  C   UNL     1       8.701  -1.364  24.507  0.00  0.00    +0.181 A 
ATOM      2  O   UNL     1       7.621  -1.600  25.383  0.00  0.00    -0.451 OA
ATOM      3  C   UNL     1       7.477  -2.836  25.974  0.00  0.00    +0.147 A 
ATOM      4  C   UNL     1       8.345  -3.878  25.677  0.00  0.00    +0.109 A 
ATOM      5  C   UNL     1       8.170  -5.130  26.257  0.00  0.00    +0.135 A 
ATOM      6  C   UNL     1       7.123  -5.349  27.134  0.00  0.00    +0.092 A 
ATOM      7  C   UNL     1       6.211  -4.330  27.441  0.00  0.00    +0.131 A 
ATOM      8  C   UNL     1       9.454  -3.647  24.753  0.00  0.00    +0.238 A 
ATOM      9  O   UNL     1      10.225  -4.558  24.482  0.00  0.00    -0.283 OA
ATOM     10  C   UNL     1       6.412  -3.059  26.875  0.00  0.00    +0.093 A 
ATOM     11  C   UNL     1       9.629  -2.296  24.212  0.00  0.00    +0.208 A 
ENDROOT
BRANCH   1  13
ATOM     12  C   UNL     1       8.971   1.089  24.782  0.00  0.00    +0.015 A 
ATOM     13  C   UNL     1       8.705   0.012  23.933  0.00  0.00    +0.025 A 
ATOM     14  C   UNL     1       8.393   0.310  22.591  0.00  0.00    +0.060 A 
ATOM     15  C   UNL     1       8.302   1.636  22.144  0.00  0.00    +0.159 A 
ATOM     16  C   UNL     1       8.461   2.704  23.026  0.00  0.00    +0.165 A 
ATOM     17  C   UNL     1       8.863   2.406  24.331  0.00  0.00    +0.050 A 
BRANCH  15  18
ATOM     18  O   UNL     1       8.024   1.848  20.822  0.00  0.00    -0.503 OA
ATOM     19  H   UNL     1       8.519   1.165  20.329  0.00  0.00    +0.292 HD
ENDBRANCH  15  18
BRANCH  16  20
ATOM     20  O   UNL     1       8.159   3.975  22.557  0.00  0.00    -0.457 OA
BRANCH  20  21
ATOM     21  C   UNL     1       7.454   4.780  23.523  0.00  0.00    +0.339 C 
ATOM     22  O   UNL     1       6.570   3.976  24.328  0.00  0.00    -0.331 OA
ATOM     23  C   UNL     1       5.377   3.584  23.623  0.00  0.00    +0.179 C 
ATOM     24  C   UNL     1       4.541   4.856  23.553  0.00  0.00    +0.177 C 
ATOM     25  C   UNL     1       5.248   5.831  22.613  0.00  0.00    +0.180 C 
ATOM     26  C   UNL     1       6.730   6.039  22.969  0.00  0.00    +0.214 C 
BRANCH  26  27
ATOM     27  O   UNL     1       7.442   6.631  21.876  0.00  0.00    -0.383 OA
ATOM     28  H   UNL     1       7.195   7.575  21.855  0.00  0.00    +0.210 HD
ENDBRANCH  26  27
BRANCH  25  29
ATOM     29  O   UNL     1       4.575   7.108  22.656  0.00  0.00    -0.386 OA
ATOM     30  H   UNL     1       3.716   6.972  22.197  0.00  0.00    +0.210 HD
ENDBRANCH  25  29
BRANCH  24  31
ATOM     31  O   UNL     1       4.459   5.472  24.856  0.00  0.00    -0.386 OA
ATOM     32  H   UNL     1       3.688   6.079  24.835  0.00  0.00    +0.210 HD
ENDBRANCH  24  31
BRANCH  23  33
ATOM     33  C   UNL     1       4.667   2.476  24.408  0.00  0.00    +0.190 C 
BRANCH  33  34
ATOM     34  O   UNL     1       5.218   1.194  24.107  0.00  0.00    -0.392 OA
ATOM     35  H   UNL     1       5.617   0.829  24.916  0.00  0.00    +0.210 HD
ENDBRANCH  33  34
ENDBRANCH  23  33
ENDBRANCH  20  21
ENDBRANCH  16  20
ENDBRANCH   1  13
BRANCH  11  36
ATOM     36  O   UNL     1      10.753  -2.090  23.435  0.00  0.00    -0.501 OA
ATOM     37  H   UNL     1      10.471  -1.960  22.514  0.00  0.00    +0.292 HD
ENDBRANCH  11  36
BRANCH   5  38
ATOM     38  O   UNL     1       8.970  -6.209  25.998  0.00  0.00    -0.506 OA
ATOM     39  H   UNL     1       9.905  -5.944  26.158  0.00  0.00    +0.292 HD
ENDBRANCH   5  38
BRANCH   7  40
ATOM     40  O   UNL     1       5.097  -4.526  28.254  0.00  0.00    -0.461 OA
BRANCH  40  41
ATOM     41  C   UNL     1       4.072  -5.340  27.635  0.00  0.00    +0.339 C 
ATOM     42  O   UNL     1       2.832  -4.609  27.608  0.00  0.00    -0.331 OA
ATOM     43  C   UNL     1       2.241  -4.544  28.920  0.00  0.00    +0.179 C 
ATOM     44  C   UNL     1       1.679  -5.940  29.186  0.00  0.00    +0.177 C 
ATOM     45  C   UNL     1       2.862  -6.886  29.352  0.00  0.00    +0.180 C 
ATOM     46  C   UNL     1       3.864  -6.779  28.191  0.00  0.00    +0.214 C 
BRANCH  46  47
ATOM     47  O   UNL     1       5.101  -7.420  28.518  0.00  0.00    -0.383 OA
ATOM     48  H   UNL     1       4.964  -8.376  28.371  0.00  0.00    +0.210 HD
ENDBRANCH  46  47
BRANCH  45  49
ATOM     49  O   UNL     1       2.379  -8.242  29.416  0.00  0.00    -0.386 OA
ATOM     50  H   UNL     1       2.407  -8.471  30.373  0.00  0.00    +0.210 HD
ENDBRANCH  45  49
BRANCH  44  51
ATOM     51  O   UNL     1       0.916  -6.437  28.069  0.00  0.00    -0.386 OA
ATOM     52  H   UNL     1      -0.029  -6.308  28.294  0.00  0.00    +0.210 HD
ENDBRANCH  44  51
BRANCH  43  53
ATOM     53  C   UNL     1       1.190  -3.437  28.917  0.00  0.00    +0.190 C 
BRANCH  53  54
ATOM     54  O   UNL     1       0.481  -3.420  27.683  0.00  0.00    -0.392 OA
ATOM     55  H   UNL     1       1.148  -3.610  26.996  0.00  0.00    +0.210 HD
ENDBRANCH  53  54
ENDBRANCH  43  53
ENDBRANCH  40  41
ENDBRANCH   7  40
TORSDOF 18
ENDMDL
MODEL 7
REMARK VINA RESULT:      -6.4      2.836     10.685
REMARK  Name = 
REMARK  18 active torsions:
REMARK  status: ('A' for Active; 'I' for Inactive)
REMARK    1  A    between atoms: C_3  and  O_33
REMARK    2  A    between atoms: C_4  and  O_32
REMARK    3  A    between atoms: C_6  and  C_7
REMARK    4  A    between atoms: C_8  and  O_31
REMARK    5  A    between atoms: C_12  and  O_30
REMARK    6  A    between atoms: C_14  and  O_18
REMARK    7  A    between atoms: O_18  and  C_19
REMARK    8  A    between atoms: C_20  and  O_29
REMARK    9  A    between atoms: C_21  and  O_28
REMARK   10  A    between atoms: C_22  and  O_27
REMARK   11  A    between atoms: C_23  and  C_25
REMARK   12  A    between atoms: C_25  and  O_26
REMARK   13  A    between atoms: O_33  and  C_34
REMARK   14  A    between atoms: C_35  and  O_44
REMARK   15  A    between atoms: C_36  and  O_43
REMARK   16  A    between atoms: C_37  and  O_42
REMARK   17  A    between atoms: C_38  and  C_40
REMARK   18  A    between atoms: C_40  and  O_41
REMARK                            x       y       z     vdW  Elec       q    Type
REMARK                         _______ _______ _______ _____ _____    ______ ____
ROOT
ATOM      1  C   UNL     1       8.385  -0.407  24.148  0.00  0.00    +0.181 A 
ATOM      2  O   UNL     1       7.602  -1.031  25.141  0.00  0.00    -0.451 OA
ATOM      3  C   UNL     1       7.911  -2.308  25.553  0.00  0.00    +0.147 A 
ATOM      4  C   UNL     1       8.948  -3.020  24.966  0.00  0.00    +0.109 A 
ATOM      5  C   UNL     1       9.230  -4.320  25.370  0.00  0.00    +0.135 A 
ATOM      6  C   UNL     1       8.474  -4.919  26.361  0.00  0.00    +0.092 A 
ATOM      7  C   UNL     1       7.403  -4.243  26.961  0.00  0.00    +0.131 A 
ATOM      8  C   UNL     1       9.751  -2.387  23.921  0.00  0.00    +0.238 A 
ATOM      9  O   UNL     1      10.667  -3.004  23.394  0.00  0.00    -0.283 OA
ATOM     10  C   UNL     1       7.143  -2.919  26.570  0.00  0.00    +0.093 A 
ATOM     11  C   UNL     1       9.450  -0.995  23.569  0.00  0.00    +0.208 A 
ENDROOT
BRANCH   1  13
ATOM     12  C   UNL     1       7.028   1.107  22.722  0.00  0.00    +0.015 A 
ATOM     13  C   UNL     1       7.910   0.963  23.796  0.00  0.00    +0.025 A 
ATOM     14  C   UNL     1       8.345   2.139  24.438  0.00  0.00    +0.060 A 
ATOM     15  C   UNL     1       7.948   3.405  23.980  0.00  0.00    +0.159 A 
ATOM     16  C   UNL     1       7.156   3.541  22.841  0.00  0.00    +0.165 A 
ATOM     17  C   UNL     1       6.651   2.372  22.265  0.00  0.00    +0.050 A 
BRANCH  15  18
ATOM     18  O   UNL     1       8.386   4.501  24.671  0.00  0.00    -0.503 OA
ATOM     19  H   UNL     1       7.640   5.132  24.677  0.00  0.00    +0.292 HD
ENDBRANCH  15  18
BRANCH  16  20
ATOM     20  O   UNL     1       6.973   4.821  22.336  0.00  0.00    -0.457 OA
BRANCH  20  21
ATOM     21  C   UNL     1       6.075   5.619  23.134  0.00  0.00    +0.339 C 
ATOM     22  O   UNL     1       5.338   4.802  24.064  0.00  0.00    -0.331 OA
ATOM     23  C   UNL     1       4.282   4.054  23.430  0.00  0.00    +0.179 C 
ATOM     24  C   UNL     1       3.210   5.091  23.124  0.00  0.00    +0.177 C 
ATOM     25  C   UNL     1       3.747   6.011  22.028  0.00  0.00    +0.180 C 
ATOM     26  C   UNL     1       5.138   6.582  22.355  0.00  0.00    +0.214 C 
BRANCH  26  27
ATOM     27  O   UNL     1       5.765   7.108  21.179  0.00  0.00    -0.383 OA
ATOM     28  H   UNL     1       6.339   6.403  20.823  0.00  0.00    +0.210 HD
ENDBRANCH  26  27
BRANCH  25  29
ATOM     29  O   UNL     1       2.828   7.108  21.833  0.00  0.00    -0.386 OA
ATOM     30  H   UNL     1       2.550   7.386  22.735  0.00  0.00    +0.210 HD
ENDBRANCH  25  29
BRANCH  24  31
ATOM     31  O   UNL     1       2.944   5.896  24.292  0.00  0.00    -0.386 OA
ATOM     32  H   UNL     1       2.447   5.329  24.920  0.00  0.00    +0.210 HD
ENDBRANCH  24  31
BRANCH  23  33
ATOM     33  C   UNL     1       3.777   2.978  24.397  0.00  0.00    +0.190 C 
BRANCH  33  34
ATOM     34  O   UNL     1       2.355   2.861  24.345  0.00  0.00    -0.392 OA
ATOM     35  H   UNL     1       1.970   3.436  25.029  0.00  0.00    +0.210 HD
ENDBRANCH  33  34
ENDBRANCH  23  33
ENDBRANCH  20  21
ENDBRANCH  16  20
ENDBRANCH   1  13
BRANCH  11  36
ATOM     36  O   UNL     1      10.303  -0.397  22.661  0.00  0.00    -0.501 OA
ATOM     37  H   UNL     1      10.981   0.095  23.154  0.00  0.00    +0.292 HD
ENDBRANCH  11  36
BRANCH   5  38
ATOM     38  O   UNL     1      10.221  -5.091  24.825  0.00  0.00    -0.506 OA
ATOM     39  H   UNL     1       9.823  -5.645  24.115  0.00  0.00    +0.292 HD
ENDBRANCH   5  38
BRANCH   7  40
ATOM     40  O   UNL     1       6.564  -4.833  27.904  0.00  0.00    -0.461 OA
BRANCH  40  41
ATOM     41  C   UNL     1       5.968  -6.071  27.446  0.00  0.00    +0.339 C 
ATOM     42  O   UNL     1       5.031  -5.788  26.390  0.00  0.00    -0.331 OA
ATOM     43  C   UNL     1       3.828  -5.192  26.913  0.00  0.00    +0.179 C 
ATOM     44  C   UNL     1       3.069  -6.331  27.594  0.00  0.00    +0.177 C 
ATOM     45  C   UNL     1       3.860  -6.731  28.833  0.00  0.00    +0.180 C 
ATOM     46  C   UNL     1       5.340  -7.007  28.520  0.00  0.00    +0.214 C 
BRANCH  46  47
ATOM     47  O   UNL     1       6.119  -7.060  29.719  0.00  0.00    -0.383 OA
ATOM     48  H   UNL     1       5.547  -7.460  30.402  0.00  0.00    +0.210 HD
ENDBRANCH  46  47
BRANCH  45  49
ATOM     49  O   UNL     1       3.282  -7.922  29.400  0.00  0.00    -0.386 OA
ATOM     50  H   UNL     1       3.256  -7.749  30.369  0.00  0.00    +0.210 HD
ENDBRANCH  45  49
BRANCH  44  51
ATOM     51  O   UNL     1       2.997  -7.506  26.763  0.00  0.00    -0.386 OA
ATOM     52  H   UNL     1       2.674  -7.210  25.886  0.00  0.00    +0.210 HD
ENDBRANCH  44  51
BRANCH  43  53
ATOM     53  C   UNL     1       3.074  -4.545  25.754  0.00  0.00    +0.190 C 
BRANCH  53  54
ATOM     54  O   UNL     1       3.904  -3.609  25.074  0.00  0.00    -0.392 OA
ATOM     55  H   UNL     1       3.299  -2.917  24.743  0.00  0.00    +0.210 HD
ENDBRANCH  53  54
ENDBRANCH  43  53
ENDBRANCH  40  41
ENDBRANCH   7  40
TORSDOF 18
ENDMDL
MODEL 8
REMARK VINA RESULT:      -6.3      3.510     10.267
REMARK  Name = 
REMARK  18 active torsions:
REMARK  status: ('A' for Active; 'I' for Inactive)
REMARK    1  A    between atoms: C_3  and  O_33
REMARK    2  A    between atoms: C_4  and  O_32
REMARK    3  A    between atoms: C_6  and  C_7
REMARK    4  A    between atoms: C_8  and  O_31
REMARK    5  A    between atoms: C_12  and  O_30
REMARK    6  A    between atoms: C_14  and  O_18
REMARK    7  A    between atoms: O_18  and  C_19
REMARK    8  A    between atoms: C_20  and  O_29
REMARK    9  A    between atoms: C_21  and  O_28
REMARK   10  A    between atoms: C_22  and  O_27
REMARK   11  A    between atoms: C_23  and  C_25
REMARK   12  A    between atoms: C_25  and  O_26
REMARK   13  A    between atoms: O_33  and  C_34
REMARK   14  A    between atoms: C_35  and  O_44
REMARK   15  A    between atoms: C_36  and  O_43
REMARK   16  A    between atoms: C_37  and  O_42
REMARK   17  A    between atoms: C_38  and  C_40
REMARK   18  A    between atoms: C_40  and  O_41
REMARK                            x       y       z     vdW  Elec       q    Type
REMARK                         _______ _______ _______ _____ _____    ______ ____
ROOT
ATOM      1  C   UNL     1       7.879  -0.538  24.267  0.00  0.00    +0.181 A 
ATOM      2  O   UNL     1       7.165  -1.227  25.269  0.00  0.00    -0.451 OA
ATOM      3  C   UNL     1       7.600  -2.464  25.691  0.00  0.00    +0.147 A 
ATOM      4  C   UNL     1       8.701  -3.075  25.106  0.00  0.00    +0.109 A 
ATOM      5  C   UNL     1       9.111  -4.338  25.520  0.00  0.00    +0.135 A 
ATOM      6  C   UNL     1       8.420  -4.999  26.519  0.00  0.00    +0.092 A 
ATOM      7  C   UNL     1       7.289  -4.427  27.118  0.00  0.00    +0.131 A 
ATOM      8  C   UNL     1       9.434  -2.376  24.052  0.00  0.00    +0.238 A 
ATOM      9  O   UNL     1      10.405  -2.904  23.528  0.00  0.00    -0.283 OA
ATOM     10  C   UNL     1       6.899  -3.139  26.716  0.00  0.00    +0.093 A 
ATOM     11  C   UNL     1       8.996  -1.024  23.689  0.00  0.00    +0.208 A 
ENDROOT
BRANCH   1  13
ATOM     12  C   UNL     1       6.459   1.415  24.843  0.00  0.00    +0.015 A 
ATOM     13  C   UNL     1       7.271   0.774  23.905  0.00  0.00    +0.025 A 
ATOM     14  C   UNL     1       7.408   1.387  22.643  0.00  0.00    +0.060 A 
ATOM     15  C   UNL     1       6.713   2.565  22.329  0.00  0.00    +0.159 A 
ATOM     16  C   UNL     1       5.820   3.136  23.235  0.00  0.00    +0.165 A 
ATOM     17  C   UNL     1       5.759   2.579  24.516  0.00  0.00    +0.050 A 
BRANCH  15  18
ATOM     18  O   UNL     1       6.918   3.119  21.096  0.00  0.00    -0.503 OA
ATOM     19  H   UNL     1       6.942   2.373  20.466  0.00  0.00    +0.292 HD
ENDBRANCH  15  18
BRANCH  16  20
ATOM     20  O   UNL     1       5.024   4.178  22.781  0.00  0.00    -0.457 OA
BRANCH  20  21
ATOM     21  C   UNL     1       3.659   4.086  23.239  0.00  0.00    +0.339 C 
ATOM     22  O   UNL     1       2.858   3.300  22.335  0.00  0.00    -0.331 OA
ATOM     23  C   UNL     1       2.521   4.012  21.128  0.00  0.00    +0.179 C 
ATOM     24  C   UNL     1       1.465   5.020  21.564  0.00  0.00    +0.177 C 
ATOM     25  C   UNL     1       2.148   6.059  22.452  0.00  0.00    +0.180 C 
ATOM     26  C   UNL     1       2.964   5.428  23.594  0.00  0.00    +0.214 C 
BRANCH  26  27
ATOM     27  O   UNL     1       3.879   6.377  24.155  0.00  0.00    -0.383 OA
ATOM     28  H   UNL     1       4.294   6.847  23.407  0.00  0.00    +0.210 HD
ENDBRANCH  26  27
BRANCH  25  29
ATOM     29  O   UNL     1       1.148   6.932  23.021  0.00  0.00    -0.386 OA
ATOM     30  H   UNL     1       1.127   7.726  22.442  0.00  0.00    +0.210 HD
ENDBRANCH  25  29
BRANCH  24  31
ATOM     31  O   UNL     1       0.443   4.367  22.346  0.00  0.00    -0.386 OA
ATOM     32  H   UNL     1      -0.058   5.075  22.805  0.00  0.00    +0.210 HD
ENDBRANCH  24  31
BRANCH  23  33
ATOM     33  C   UNL     1       1.973   3.022  20.095  0.00  0.00    +0.190 C 
BRANCH  33  34
ATOM     34  O   UNL     1       1.478   1.839  20.722  0.00  0.00    -0.392 OA
ATOM     35  H   UNL     1       1.566   1.096  20.100  0.00  0.00    +0.210 HD
ENDBRANCH  33  34
ENDBRANCH  23  33
ENDBRANCH  20  21
ENDBRANCH  16  20
ENDBRANCH   1  13
BRANCH  11  36
ATOM     36  O   UNL     1       9.783  -0.353  22.773  0.00  0.00    -0.501 OA
ATOM     37  H   UNL     1       9.706  -0.802  21.914  0.00  0.00    +0.292 HD
ENDBRANCH  11  36
BRANCH   5  38
ATOM     38  O   UNL     1      10.171  -5.011  24.978  0.00  0.00    -0.506 OA
ATOM     39  H   UNL     1       9.889  -5.383  24.111  0.00  0.00    +0.292 HD
ENDBRANCH   5  38
BRANCH   7  40
ATOM     40  O   UNL     1       6.516  -5.088  28.069  0.00  0.00    -0.461 OA
BRANCH  40  41
ATOM     41  C   UNL     1       5.941  -6.325  27.581  0.00  0.00    +0.339 C 
ATOM     42  O   UNL     1       5.278  -6.081  26.326  0.00  0.00    -0.331 OA
ATOM     43  C   UNL     1       4.039  -5.373  26.526  0.00  0.00    +0.179 C 
ATOM     44  C   UNL     1       3.067  -6.401  27.103  0.00  0.00    +0.177 C 
ATOM     45  C   UNL     1       3.540  -6.737  28.512  0.00  0.00    +0.180 C 
ATOM     46  C   UNL     1       5.026  -7.126  28.554  0.00  0.00    +0.214 C 
BRANCH  46  47
ATOM     47  O   UNL     1       5.523  -7.119  29.896  0.00  0.00    -0.383 OA
ATOM     48  H   UNL     1       5.023  -6.428  30.372  0.00  0.00    +0.210 HD
ENDBRANCH  46  47
BRANCH  45  49
ATOM     49  O   UNL     1       2.764  -7.839  29.021  0.00  0.00    -0.386 OA
ATOM     50  H   UNL     1       2.074  -7.419  29.582  0.00  0.00    +0.210 HD
ENDBRANCH  45  49
BRANCH  44  51
ATOM     51  O   UNL     1       3.087  -7.638  26.363  0.00  0.00    -0.386 OA
ATOM     52  H   UNL     1       4.028  -7.901  26.281  0.00  0.00    +0.210 HD
ENDBRANCH  44  51
BRANCH  43  53
ATOM     53  C   UNL     1       3.604  -4.785  25.185  0.00  0.00    +0.190 C 
BRANCH  53  54
ATOM     54  O   UNL     1       3.531  -5.800  24.190  0.00  0.00    -0.392 OA
ATOM     55  H   UNL     1       4.231  -5.585  23.545  0.00  0.00    +0.210 HD
ENDBRANCH  53  54
ENDBRANCH  43  53
ENDBRANCH  40  41
ENDBRANCH   7  40
TORSDOF 18
ENDMDL
MODEL 9
REMARK VINA RESULT:      -6.3      3.211      4.744
REMARK  Name = 
REMARK  18 active torsions:
REMARK  status: ('A' for Active; 'I' for Inactive)
REMARK    1  A    between atoms: C_3  and  O_33
REMARK    2  A    between atoms: C_4  and  O_32
REMARK    3  A    between atoms: C_6  and  C_7
REMARK    4  A    between atoms: C_8  and  O_31
REMARK    5  A    between atoms: C_12  and  O_30
REMARK    6  A    between atoms: C_14  and  O_18
REMARK    7  A    between atoms: O_18  and  C_19
REMARK    8  A    between atoms: C_20  and  O_29
REMARK    9  A    between atoms: C_21  and  O_28
REMARK   10  A    between atoms: C_22  and  O_27
REMARK   11  A    between atoms: C_23  and  C_25
REMARK   12  A    between atoms: C_25  and  O_26
REMARK   13  A    between atoms: O_33  and  C_34
REMARK   14  A    between atoms: C_35  and  O_44
REMARK   15  A    between atoms: C_36  and  O_43
REMARK   16  A    between atoms: C_37  and  O_42
REMARK   17  A    between atoms: C_38  and  C_40
REMARK   18  A    between atoms: C_40  and  O_41
REMARK                            x       y       z     vdW  Elec       q    Type
REMARK                         _______ _______ _______ _____ _____    ______ ____
ROOT
ATOM      1  C   UNL     1       8.229  -1.915  23.663  0.00  0.00    +0.181 A 
ATOM      2  O   UNL     1       7.174  -0.984  23.569  0.00  0.00    -0.451 OA
ATOM      3  C   UNL     1       7.392   0.239  22.974  0.00  0.00    +0.147 A 
ATOM      4  C   UNL     1       8.652   0.599  22.515  0.00  0.00    +0.109 A 
ATOM      5  C   UNL     1       8.865   1.849  21.945  0.00  0.00    +0.135 A 
ATOM      6  C   UNL     1       7.822   2.749  21.834  0.00  0.00    +0.092 A 
ATOM      7  C   UNL     1       6.541   2.434  22.308  0.00  0.00    +0.131 A 
ATOM      8  C   UNL     1       9.755  -0.354  22.628  0.00  0.00    +0.238 A 
ATOM      9  O   UNL     1      10.871  -0.049  22.228  0.00  0.00    -0.283 OA
ATOM     10  C   UNL     1       6.325   1.158  22.856  0.00  0.00    +0.093 A 
ATOM     11  C   UNL     1       9.467  -1.679  23.185  0.00  0.00    +0.208 A 
ENDROOT
BRANCH   1  13
ATOM     12  C   UNL     1       6.785  -3.928  23.827  0.00  0.00    +0.015 A 
ATOM     13  C   UNL     1       7.840  -3.180  24.352  0.00  0.00    +0.025 A 
ATOM     14  C   UNL     1       8.430  -3.643  25.545  0.00  0.00    +0.060 A 
ATOM     15  C   UNL     1       7.938  -4.780  26.203  0.00  0.00    +0.159 A 
ATOM     16  C   UNL     1       6.815  -5.455  25.730  0.00  0.00    +0.165 A 
ATOM     17  C   UNL     1       6.292  -5.050  24.498  0.00  0.00    +0.050 A 
BRANCH  15  18
ATOM     18  O   UNL     1       8.580  -5.187  27.341  0.00  0.00    -0.503 OA
ATOM     19  H   UNL     1       9.198  -5.891  27.064  0.00  0.00    +0.292 HD
ENDBRANCH  15  18
BRANCH  16  20
ATOM     20  O   UNL     1       6.270  -6.442  26.539  0.00  0.00    -0.457 OA
BRANCH  20  21
ATOM     21  C   UNL     1       4.899  -6.181  26.902  0.00  0.00    +0.339 C 
ATOM     22  O   UNL     1       4.576  -4.785  26.750  0.00  0.00    -0.331 OA
ATOM     23  C   UNL     1       5.124  -3.969  27.804  0.00  0.00    +0.179 C 
ATOM     24  C   UNL     1       4.258  -4.282  29.018  0.00  0.00    +0.177 C 
ATOM     25  C   UNL     1       4.551  -5.719  29.445  0.00  0.00    +0.180 C 
ATOM     26  C   UNL     1       4.441  -6.723  28.284  0.00  0.00    +0.214 C 
BRANCH  26  27
ATOM     27  O   UNL     1       5.081  -7.961  28.615  0.00  0.00    -0.383 OA
ATOM     28  H   UNL     1       4.373  -8.621  28.744  0.00  0.00    +0.210 HD
ENDBRANCH  26  27
BRANCH  25  29
ATOM     29  O   UNL     1       3.626  -6.106  30.484  0.00  0.00    -0.386 OA
ATOM     30  H   UNL     1       2.743  -6.144  30.054  0.00  0.00    +0.210 HD
ENDBRANCH  25  29
BRANCH  24  31
ATOM     31  O   UNL     1       2.860  -4.195  28.670  0.00  0.00    -0.386 OA
ATOM     32  H   UNL     1       2.695  -4.879  27.985  0.00  0.00    +0.210 HD
ENDBRANCH  24  31
BRANCH  23  33
ATOM     33  C   UNL     1       5.031  -2.494  27.400  0.00  0.00    +0.190 C 
BRANCH  33  34
ATOM     34  O   UNL     1       4.176  -1.768  28.284  0.00  0.00    -0.392 OA
ATOM     35  H   UNL     1       3.333  -1.595  27.829  0.00  0.00    +0.210 HD
ENDBRANCH  33  34
ENDBRANCH  23  33
ENDBRANCH  20  21
ENDBRANCH  16  20
ENDBRANCH   1  13
BRANCH  11  36
ATOM     36  O   UNL     1      10.507  -2.588  23.169  0.00  0.00    -0.501 OA
ATOM     37  H   UNL     1      11.157  -2.325  23.843  0.00  0.00    +0.292 HD
ENDBRANCH  11  36
BRANCH   5  38
ATOM     38  O   UNL     1      10.081   2.281  21.488  0.00  0.00    -0.506 OA
ATOM     39  H   UNL     1      10.717   2.256  22.239  0.00  0.00    +0.292 HD
ENDBRANCH   5  38
BRANCH   7  40
ATOM     40  O   UNL     1       5.480   3.337  22.292  0.00  0.00    -0.461 OA
BRANCH  40  41
ATOM     41  C   UNL     1       4.784   3.427  23.558  0.00  0.00    +0.339 C 
ATOM     42  O   UNL     1       3.460   2.879  23.415  0.00  0.00    -0.331 OA
ATOM     43  C   UNL     1       2.607   3.776  22.678  0.00  0.00    +0.179 C 
ATOM     44  C   UNL     1       2.281   4.917  23.642  0.00  0.00    +0.177 C 
ATOM     45  C   UNL     1       3.563   5.711  23.861  0.00  0.00    +0.180 C 
ATOM     46  C   UNL     1       4.746   4.815  24.262  0.00  0.00    +0.214 C 
BRANCH  46  47
ATOM     47  O   UNL     1       5.987   5.518  24.146  0.00  0.00    -0.383 OA
ATOM     48  H   UNL     1       6.649   4.863  23.850  0.00  0.00    +0.210 HD
ENDBRANCH  46  47
BRANCH  45  49
ATOM     49  O   UNL     1       3.348   6.679  24.905  0.00  0.00    -0.386 OA
ATOM     50  H   UNL     1       4.250   6.989  25.147  0.00  0.00    +0.210 HD
ENDBRANCH  45  49
BRANCH  44  51
ATOM     51  O   UNL     1       1.879   4.431  24.938  0.00  0.00    -0.386 OA
ATOM     52  H   UNL     1       1.500   5.196  25.420  0.00  0.00    +0.210 HD
ENDBRANCH  44  51
BRANCH  43  53
ATOM     53  C   UNL     1       1.386   2.991  22.203  0.00  0.00    +0.190 C 
BRANCH  53  54
ATOM     54  O   UNL     1       0.853   2.201  23.260  0.00  0.00    -0.392 OA
ATOM     55  H   UNL     1       1.541   1.538  23.463  0.00  0.00    +0.210 HD
ENDBRANCH  53  54
ENDBRANCH  43  53
ENDBRANCH  40  41
ENDBRANCH   7  40
TORSDOF 18
ENDMDL
