MODEL 1
REMARK VINA RESULT:      -7.6      0.000      0.000
REMARK  Name = 
REMARK  21 active torsions:
REMARK  status: ('A' for Active; 'I' for Inactive)
REMARK    1  A    between atoms: C_1  and  C_2
REMARK    2  A    between atoms: C_4  and  O_64
REMARK    3  A    between atoms: C_6  and  O_63
REMARK    4  A    between atoms: C_8  and  O_35
REMARK    5  A    between atoms: C_10  and  O_13
REMARK    6  A    between atoms: O_13  and  C_14
REMARK    7  A    between atoms: C_15  and  C_27
REMARK    8  A    between atoms: C_19  and  O_26
REMARK    9  A    between atoms: C_21  and  O_25
REMARK   10  A    between atoms: C_29  and  O_34
REMARK   11  A    between atoms: C_30  and  O_33
REMARK   12  A    between atoms: O_35  and  C_36
REMARK   13  A    between atoms: C_38  and  O_62
REMARK   14  A    between atoms: C_40  and  O_61
REMARK   15  A    between atoms: C_42  and  O_60
REMARK   16  A    between atoms: C_44  and  C_47
REMARK   17  A    between atoms: C_47  and  O_48
REMARK   18  A    between atoms: O_48  and  C_49
REMARK   19  A    between atoms: C_49  and  C_51
REMARK   20  A    between atoms: C_52  and  C_53
REMARK   21  A    between atoms: C_56  and  O_59
REMARK                            x       y       z     vdW  Elec       q    Type
REMARK                         _______ _______ _______ _____ _____    ______ ____
ROOT
ATOM      1  C   UNL     1       4.739   1.894  28.758  0.00  0.00    +0.041 C 
ATOM      2  C   UNL     1       6.247   1.965  29.015  0.00  0.00    +0.150 C 
ATOM      3  O   UNL     1       6.900   3.089  28.397  0.00  0.00    -0.334 OA
ATOM      4  C   UNL     1       6.818   3.128  26.956  0.00  0.00    +0.340 C 
ATOM      5  C   UNL     1       7.514   1.778  26.360  0.00  0.00    +0.221 C 
ATOM      6  C   UNL     1       7.066   0.505  27.138  0.00  0.00    +0.180 C 
ATOM      7  C   UNL     1       7.016   0.690  28.645  0.00  0.00    +0.174 C 
ENDROOT
BRANCH   7   8
ATOM      8  O   UNL     1       8.362   0.776  29.133  0.00  0.00    -0.387 OA
ATOM      9  H   UNL     1       8.496   1.692  29.439  0.00  0.00    +0.210 HD
ENDBRANCH   7   8
BRANCH   6  10
ATOM     10  O   UNL     1       5.778   0.049  26.698  0.00  0.00    -0.386 OA
ATOM     11  H   UNL     1       5.252   0.844  26.519  0.00  0.00    +0.210 HD
ENDBRANCH   6  10
BRANCH   5  12
ATOM     12  O   UNL     1       7.284   1.362  24.957  0.00  0.00    -0.337 OA
BRANCH  12  13
ATOM     13  C   UNL     1       8.385   1.653  24.126  0.00  0.00    +0.282 C 
ATOM     14  O   UNL     1       8.007   1.190  22.862  0.00  0.00    -0.339 OA
ATOM     15  C   UNL     1       7.977  -0.209  22.614  0.00  0.00    +0.190 C 
ATOM     16  C   UNL     1       9.396  -0.733  22.741  0.00  0.00    +0.178 C 
ATOM     17  C   UNL     1       9.927  -0.418  24.142  0.00  0.00    +0.179 C 
ATOM     18  C   UNL     1       9.781   1.079  24.488  0.00  0.00    +0.201 C 
BRANCH  18  19
ATOM     19  O   UNL     1      10.779   1.801  23.732  0.00  0.00    -0.384 OA
ATOM     20  H   UNL     1      10.771   1.429  22.823  0.00  0.00    +0.210 HD
ENDBRANCH  18  19
BRANCH  17  21
ATOM     21  O   UNL     1       9.288  -1.253  25.103  0.00  0.00    -0.386 OA
ATOM     22  H   UNL     1       9.063  -2.103  24.685  0.00  0.00    +0.210 HD
ENDBRANCH  17  21
BRANCH  16  23
ATOM     23  O   UNL     1      10.193  -0.048  21.748  0.00  0.00    -0.386 OA
ATOM     24  H   UNL     1       9.862   0.864  21.673  0.00  0.00    +0.210 HD
ENDBRANCH  16  23
BRANCH  15  25
ATOM     25  C   UNL     1       6.843  -0.985  23.304  0.00  0.00    +0.266 C 
BRANCH  25  26
ATOM     26  O   UNL     1       6.415  -2.049  22.467  0.00  0.00    -0.459 OA
BRANCH  26  27
ATOM     27  C   UNL     1       6.890  -3.301  22.733  0.00  0.00    +0.332 C 
ATOM     28  O   UNL     1       7.839  -3.866  22.235  0.00  0.00    -0.246 OA
BRANCH  27  29
ATOM     29  C   UNL     1       6.146  -3.837  23.903  0.00  0.00    +0.092 C 
ATOM     30  C   UNL     1       6.826  -4.386  24.918  0.00  0.00    +0.015 C 
BRANCH  30  31
ATOM     31  C   UNL     1       6.290  -5.190  26.011  0.00  0.00    -0.025 A 
ATOM     32  C   UNL     1       6.819  -5.191  27.305  0.00  0.00    +0.011 A 
ATOM     33  C   UNL     1       6.221  -5.971  28.295  0.00  0.00    +0.046 A 
ATOM     34  C   UNL     1       5.118  -6.760  27.987  0.00  0.00    +0.117 A 
ATOM     35  C   UNL     1       4.567  -6.767  26.720  0.00  0.00    +0.046 A 
ATOM     36  C   UNL     1       5.159  -5.979  25.726  0.00  0.00    +0.011 A 
BRANCH  34  37
ATOM     37  O   UNL     1       4.585  -7.517  28.986  0.00  0.00    -0.507 OA
ATOM     38  H   UNL     1       3.718  -7.844  28.694  0.00  0.00    +0.292 HD
ENDBRANCH  34  37
ENDBRANCH  30  31
ENDBRANCH  27  29
ENDBRANCH  26  27
ENDBRANCH  25  26
ENDBRANCH  15  25
ENDBRANCH  12  13
ENDBRANCH   5  12
BRANCH   4  39
ATOM     39  O   UNL     1       7.436   4.391  26.542  0.00  0.00    -0.453 OA
BRANCH  39  40
ATOM     40  C   UNL     1       6.789   5.289  25.653  0.00  0.00    +0.214 A 
ATOM     41  C   UNL     1       5.276   5.409  25.605  0.00  0.00    +0.238 A 
ATOM     42  O   UNL     1       4.556   4.888  26.444  0.00  0.00    -0.283 OA
ATOM     43  C   UNL     1       4.657   6.063  24.418  0.00  0.00    +0.109 A 
ATOM     44  C   UNL     1       5.513   6.530  23.427  0.00  0.00    +0.147 A 
ATOM     45  C   UNL     1       5.024   6.854  22.144  0.00  0.00    +0.092 A 
ATOM     46  C   UNL     1       3.657   6.795  21.892  0.00  0.00    +0.124 A 
ATOM     47  C   UNL     1       2.778   6.464  22.911  0.00  0.00    +0.091 A 
ATOM     48  O   UNL     1       6.863   6.656  23.639  0.00  0.00    -0.451 OA
ATOM     49  C   UNL     1       3.273   6.081  24.163  0.00  0.00    +0.135 A 
ATOM     50  C   UNL     1       7.486   5.989  24.707  0.00  0.00    +0.181 A 
BRANCH  50  51
ATOM     51  C   UNL     1       8.997   6.017  24.553  0.00  0.00    +0.025 A 
ATOM     52  C   UNL     1       9.790   6.914  25.311  0.00  0.00    +0.015 A 
ATOM     53  C   UNL     1      11.194   6.920  25.235  0.00  0.00    +0.050 A 
ATOM     54  C   UNL     1      11.831   6.042  24.378  0.00  0.00    +0.158 A 
ATOM     55  C   UNL     1      11.085   5.205  23.566  0.00  0.00    +0.159 A 
ATOM     56  C   UNL     1       9.695   5.180  23.663  0.00  0.00    +0.060 A 
BRANCH  55  57
ATOM     57  O   UNL     1      11.755   4.407  22.679  0.00  0.00    -0.503 OA
ATOM     58  H   UNL     1      11.312   4.472  21.815  0.00  0.00    +0.292 HD
ENDBRANCH  55  57
BRANCH  54  59
ATOM     59  O   UNL     1      13.193   5.983  24.344  0.00  0.00    -0.503 OA
ATOM     60  H   UNL     1      13.459   5.933  25.284  0.00  0.00    +0.292 HD
ENDBRANCH  54  59
ENDBRANCH  50  51
BRANCH  49  61
ATOM     61  O   UNL     1       2.307   5.692  25.050  0.00  0.00    -0.506 OA
ATOM     62  H   UNL     1       2.317   4.714  25.120  0.00  0.00    +0.292 HD
ENDBRANCH  49  61
BRANCH  46  63
ATOM     63  O   UNL     1       3.118   7.042  20.665  0.00  0.00    -0.507 OA
ATOM     64  H   UNL     1       2.357   6.463  20.504  0.00  0.00    +0.292 HD
ENDBRANCH  46  63
ENDBRANCH  39  40
ENDBRANCH   4  39
TORSDOF 20
ENDMDL
MODEL 2
REMARK VINA RESULT:      -7.5      2.201      5.669
REMARK  Name = 
REMARK  21 active torsions:
REMARK  status: ('A' for Active; 'I' for Inactive)
REMARK    1  A    between atoms: C_1  and  C_2
REMARK    2  A    between atoms: C_4  and  O_64
REMARK    3  A    between atoms: C_6  and  O_63
REMARK    4  A    between atoms: C_8  and  O_35
REMARK    5  A    between atoms: C_10  and  O_13
REMARK    6  A    between atoms: O_13  and  C_14
REMARK    7  A    between atoms: C_15  and  C_27
REMARK    8  A    between atoms: C_19  and  O_26
REMARK    9  A    between atoms: C_21  and  O_25
REMARK   10  A    between atoms: C_29  and  O_34
REMARK   11  A    between atoms: C_30  and  O_33
REMARK   12  A    between atoms: O_35  and  C_36
REMARK   13  A    between atoms: C_38  and  O_62
REMARK   14  A    between atoms: C_40  and  O_61
REMARK   15  A    between atoms: C_42  and  O_60
REMARK   16  A    between atoms: C_44  and  C_47
REMARK   17  A    between atoms: C_47  and  O_48
REMARK   18  A    between atoms: O_48  and  C_49
REMARK   19  A    between atoms: C_49  and  C_51
REMARK   20  A    between atoms: C_52  and  C_53
REMARK   21  A    between atoms: C_56  and  O_59
REMARK                            x       y       z     vdW  Elec       q    Type
REMARK                         _______ _______ _______ _____ _____    ______ ____
ROOT
ATOM      1  C   UNL     1      10.402   0.165  24.873  0.00  0.00    +0.041 C 
ATOM      2  C   UNL     1       9.997   0.385  23.414  0.00  0.00    +0.150 C 
ATOM      3  O   UNL     1       8.728   1.042  23.244  0.00  0.00    -0.334 OA
ATOM      4  C   UNL     1       7.594   0.334  23.788  0.00  0.00    +0.340 C 
ATOM      5  C   UNL     1       7.488  -1.118  23.050  0.00  0.00    +0.221 C 
ATOM      6  C   UNL     1       8.876  -1.817  22.947  0.00  0.00    +0.180 C 
ATOM      7  C   UNL     1      10.008  -0.885  22.552  0.00  0.00    +0.174 C 
ENDROOT
BRANCH   7   8
ATOM      8  O   UNL     1       9.841  -0.535  21.171  0.00  0.00    -0.387 OA
ATOM      9  H   UNL     1       9.139  -1.109  20.814  0.00  0.00    +0.210 HD
ENDBRANCH   7   8
BRANCH   6  10
ATOM     10  O   UNL     1       9.231  -2.458  24.182  0.00  0.00    -0.386 OA
ATOM     11  H   UNL     1       9.523  -3.353  23.952  0.00  0.00    +0.210 HD
ENDBRANCH   6  10
BRANCH   5  12
ATOM     12  O   UNL     1       6.654  -2.200  23.623  0.00  0.00    -0.337 OA
BRANCH  12  13
ATOM     13  C   UNL     1       5.896  -2.868  22.640  0.00  0.00    +0.282 C 
ATOM     14  O   UNL     1       4.882  -3.516  23.353  0.00  0.00    -0.339 OA
ATOM     15  C   UNL     1       5.202  -4.666  24.125  0.00  0.00    +0.190 C 
ATOM     16  C   UNL     1       5.672  -5.749  23.171  0.00  0.00    +0.178 C 
ATOM     17  C   UNL     1       6.885  -5.239  22.386  0.00  0.00    +0.179 C 
ATOM     18  C   UNL     1       6.597  -3.885  21.701  0.00  0.00    +0.201 C 
BRANCH  18  19
ATOM     19  O   UNL     1       5.727  -4.141  20.576  0.00  0.00    -0.384 OA
ATOM     20  H   UNL     1       5.013  -3.467  20.611  0.00  0.00    +0.210 HD
ENDBRANCH  18  19
BRANCH  17  21
ATOM     21  O   UNL     1       8.024  -5.175  23.238  0.00  0.00    -0.386 OA
ATOM     22  H   UNL     1       8.070  -4.288  23.639  0.00  0.00    +0.210 HD
ENDBRANCH  17  21
BRANCH  16  23
ATOM     23  O   UNL     1       4.579  -6.020  22.264  0.00  0.00    -0.386 OA
ATOM     24  H   UNL     1       4.473  -5.249  21.681  0.00  0.00    +0.210 HD
ENDBRANCH  16  23
BRANCH  15  25
ATOM     25  C   UNL     1       6.020  -4.407  25.402  0.00  0.00    +0.266 C 
BRANCH  25  26
ATOM     26  O   UNL     1       5.414  -5.074  26.499  0.00  0.00    -0.459 OA
BRANCH  26  27
ATOM     27  C   UNL     1       4.545  -4.363  27.276  0.00  0.00    +0.332 C 
ATOM     28  O   UNL     1       3.396  -4.628  27.554  0.00  0.00    -0.246 OA
BRANCH  27  29
ATOM     29  C   UNL     1       5.297  -3.246  27.904  0.00  0.00    +0.092 C 
ATOM     30  C   UNL     1       4.766  -2.016  27.908  0.00  0.00    +0.015 C 
BRANCH  30  31
ATOM     31  C   UNL     1       5.438  -0.762  28.227  0.00  0.00    -0.025 A 
ATOM     32  C   UNL     1       4.950   0.167  29.151  0.00  0.00    +0.011 A 
ATOM     33  C   UNL     1       5.677   1.327  29.415  0.00  0.00    +0.046 A 
ATOM     34  C   UNL     1       6.871   1.568  28.742  0.00  0.00    +0.117 A 
ATOM     35  C   UNL     1       7.383   0.660  27.834  0.00  0.00    +0.046 A 
ATOM     36  C   UNL     1       6.660  -0.510  27.574  0.00  0.00    +0.011 A 
BRANCH  34  37
ATOM     37  O   UNL     1       7.532   2.725  29.023  0.00  0.00    -0.507 OA
ATOM     38  H   UNL     1       8.154   2.556  29.749  0.00  0.00    +0.292 HD
ENDBRANCH  34  37
ENDBRANCH  30  31
ENDBRANCH  27  29
ENDBRANCH  26  27
ENDBRANCH  25  26
ENDBRANCH  15  25
ENDBRANCH  12  13
ENDBRANCH   5  12
BRANCH   4  39
ATOM     39  O   UNL     1       6.436   1.214  23.615  0.00  0.00    -0.453 OA
BRANCH  39  40
ATOM     40  C   UNL     1       5.791   1.835  24.718  0.00  0.00    +0.214 A 
ATOM     41  C   UNL     1       4.626   1.174  25.433  0.00  0.00    +0.238 A 
ATOM     42  O   UNL     1       4.310   0.012  25.224  0.00  0.00    -0.283 OA
ATOM     43  C   UNL     1       3.763   2.019  26.307  0.00  0.00    +0.109 A 
ATOM     44  C   UNL     1       4.090   3.366  26.415  0.00  0.00    +0.147 A 
ATOM     45  C   UNL     1       3.163   4.293  26.938  0.00  0.00    +0.092 A 
ATOM     46  C   UNL     1       1.944   3.843  27.435  0.00  0.00    +0.124 A 
ATOM     47  C   UNL     1       1.663   2.487  27.461  0.00  0.00    +0.091 A 
ATOM     48  O   UNL     1       5.299   3.854  25.987  0.00  0.00    -0.451 OA
ATOM     49  C   UNL     1       2.557   1.578  26.883  0.00  0.00    +0.135 A 
ATOM     50  C   UNL     1       6.098   3.112  25.103  0.00  0.00    +0.181 A 
BRANCH  50  51
ATOM     51  C   UNL     1       7.210   3.972  24.528  0.00  0.00    +0.025 A 
ATOM     52  C   UNL     1       8.480   4.034  25.154  0.00  0.00    +0.015 A 
ATOM     53  C   UNL     1       9.546   4.773  24.611  0.00  0.00    +0.050 A 
ATOM     54  C   UNL     1       9.353   5.485  23.441  0.00  0.00    +0.158 A 
ATOM     55  C   UNL     1       8.105   5.509  22.845  0.00  0.00    +0.159 A 
ATOM     56  C   UNL     1       7.057   4.753  23.367  0.00  0.00    +0.060 A 
BRANCH  55  57
ATOM     57  O   UNL     1       7.940   6.287  21.732  0.00  0.00    -0.503 OA
ATOM     58  H   UNL     1       8.137   5.745  20.948  0.00  0.00    +0.292 HD
ENDBRANCH  55  57
BRANCH  54  59
ATOM     59  O   UNL     1      10.395   6.148  22.862  0.00  0.00    -0.503 OA
ATOM     60  H   UNL     1      10.499   6.958  23.400  0.00  0.00    +0.292 HD
ENDBRANCH  54  59
ENDBRANCH  50  51
BRANCH  49  61
ATOM     61  O   UNL     1       2.120   0.282  26.892  0.00  0.00    -0.506 OA
ATOM     62  H   UNL     1       2.701  -0.244  27.480  0.00  0.00    +0.292 HD
ENDBRANCH  49  61
BRANCH  46  63
ATOM     63  O   UNL     1       0.980   4.684  27.905  0.00  0.00    -0.507 OA
ATOM     64  H   UNL     1       0.325   4.195  28.426  0.00  0.00    +0.292 HD
ENDBRANCH  46  63
ENDBRANCH  39  40
ENDBRANCH   4  39
TORSDOF 20
ENDMDL
MODEL 3
REMARK VINA RESULT:      -7.2      1.574      2.149
REMARK  Name = 
REMARK  21 active torsions:
REMARK  status: ('A' for Active; 'I' for Inactive)
REMARK    1  A    between atoms: C_1  and  C_2
REMARK    2  A    between atoms: C_4  and  O_64
REMARK    3  A    between atoms: C_6  and  O_63
REMARK    4  A    between atoms: C_8  and  O_35
REMARK    5  A    between atoms: C_10  and  O_13
REMARK    6  A    between atoms: O_13  and  C_14
REMARK    7  A    between atoms: C_15  and  C_27
REMARK    8  A    between atoms: C_19  and  O_26
REMARK    9  A    between atoms: C_21  and  O_25
REMARK   10  A    between atoms: C_29  and  O_34
REMARK   11  A    between atoms: C_30  and  O_33
REMARK   12  A    between atoms: O_35  and  C_36
REMARK   13  A    between atoms: C_38  and  O_62
REMARK   14  A    between atoms: C_40  and  O_61
REMARK   15  A    between atoms: C_42  and  O_60
REMARK   16  A    between atoms: C_44  and  C_47
REMARK   17  A    between atoms: C_47  and  O_48
REMARK   18  A    between atoms: O_48  and  C_49
REMARK   19  A    between atoms: C_49  and  C_51
REMARK   20  A    between atoms: C_52  and  C_53
REMARK   21  A    between atoms: C_56  and  O_59
REMARK                            x       y       z     vdW  Elec       q    Type
REMARK                         _______ _______ _______ _____ _____    ______ ____
ROOT
ATOM      1  C   UNL     1       4.080   1.096  26.579  0.00  0.00    +0.041 C 
ATOM      2  C   UNL     1       4.997   1.549  27.718  0.00  0.00    +0.150 C 
ATOM      3  O   UNL     1       5.620   2.829  27.504  0.00  0.00    -0.334 OA
ATOM      4  C   UNL     1       6.482   2.904  26.349  0.00  0.00    +0.340 C 
ATOM      5  C   UNL     1       7.679   1.809  26.522  0.00  0.00    +0.221 C 
ATOM      6  C   UNL     1       7.137   0.433  27.010  0.00  0.00    +0.180 C 
ATOM      7  C   UNL     1       6.085   0.536  28.100  0.00  0.00    +0.174 C 
ENDROOT
BRANCH   7   8
ATOM      8  O   UNL     1       6.731   0.952  29.311  0.00  0.00    -0.387 OA
ATOM      9  H   UNL     1       7.073   1.852  29.158  0.00  0.00    +0.210 HD
ENDBRANCH   7   8
BRANCH   6  10
ATOM     10  O   UNL     1       6.585  -0.326  25.923  0.00  0.00    -0.386 OA
ATOM     11  H   UNL     1       6.889  -1.239  26.043  0.00  0.00    +0.210 HD
ENDBRANCH   6  10
BRANCH   5  12
ATOM     12  O   UNL     1       8.512   1.406  25.366  0.00  0.00    -0.337 OA
BRANCH  12  13
ATOM     13  C   UNL     1       7.910   1.731  24.134  0.00  0.00    +0.282 C 
ATOM     14  O   UNL     1       7.944   0.542  23.397  0.00  0.00    -0.339 OA
ATOM     15  C   UNL     1       9.181   0.091  22.863  0.00  0.00    +0.190 C 
ATOM     16  C   UNL     1       9.649   1.117  21.847  0.00  0.00    +0.178 C 
ATOM     17  C   UNL     1       9.792   2.479  22.532  0.00  0.00    +0.179 C 
ATOM     18  C   UNL     1       8.502   2.883  23.279  0.00  0.00    +0.201 C 
BRANCH  18  19
ATOM     19  O   UNL     1       7.523   3.264  22.287  0.00  0.00    -0.384 OA
ATOM     20  H   UNL     1       7.859   4.080  21.856  0.00  0.00    +0.210 HD
ENDBRANCH  18  19
BRANCH  17  21
ATOM     21  O   UNL     1      10.927   2.474  23.392  0.00  0.00    -0.386 OA
ATOM     22  H   UNL     1      11.705   2.176  22.887  0.00  0.00    +0.210 HD
ENDBRANCH  17  21
BRANCH  16  23
ATOM     23  O   UNL     1       8.635   1.189  20.818  0.00  0.00    -0.386 OA
ATOM     24  H   UNL     1       8.173   0.335  20.790  0.00  0.00    +0.210 HD
ENDBRANCH  16  23
BRANCH  15  25
ATOM     25  C   UNL     1      10.197  -0.442  23.888  0.00  0.00    +0.266 C 
BRANCH  25  26
ATOM     26  O   UNL     1       9.583  -1.437  24.694  0.00  0.00    -0.459 OA
BRANCH  26  27
ATOM     27  C   UNL     1       9.547  -2.714  24.213  0.00  0.00    +0.332 C 
ATOM     28  O   UNL     1      10.477  -3.440  23.939  0.00  0.00    -0.246 OA
BRANCH  27  29
ATOM     29  C   UNL     1       8.134  -3.175  24.236  0.00  0.00    +0.092 C 
ATOM     30  C   UNL     1       7.868  -4.469  24.458  0.00  0.00    +0.015 C 
BRANCH  30  31
ATOM     31  C   UNL     1       6.599  -5.160  24.262  0.00  0.00    -0.025 A 
ATOM     32  C   UNL     1       5.789  -5.606  25.310  0.00  0.00    +0.011 A 
ATOM     33  C   UNL     1       4.575  -6.231  25.027  0.00  0.00    +0.046 A 
ATOM     34  C   UNL     1       4.186  -6.429  23.706  0.00  0.00    +0.117 A 
ATOM     35  C   UNL     1       4.961  -5.985  22.652  0.00  0.00    +0.046 A 
ATOM     36  C   UNL     1       6.176  -5.350  22.932  0.00  0.00    +0.011 A 
BRANCH  34  37
ATOM     37  O   UNL     1       3.000  -7.062  23.485  0.00  0.00    -0.507 OA
ATOM     38  H   UNL     1       3.150  -7.783  22.851  0.00  0.00    +0.292 HD
ENDBRANCH  34  37
ENDBRANCH  30  31
ENDBRANCH  27  29
ENDBRANCH  26  27
ENDBRANCH  25  26
ENDBRANCH  15  25
ENDBRANCH  12  13
ENDBRANCH   5  12
BRANCH   4  39
ATOM     39  O   UNL     1       6.916   4.301  26.247  0.00  0.00    -0.453 OA
BRANCH  39  40
ATOM     40  C   UNL     1       6.298   5.218  25.357  0.00  0.00    +0.214 A 
ATOM     41  C   UNL     1       4.803   5.184  25.090  0.00  0.00    +0.238 A 
ATOM     42  O   UNL     1       4.040   4.503  25.759  0.00  0.00    -0.283 OA
ATOM     43  C   UNL     1       4.285   5.894  23.887  0.00  0.00    +0.109 A 
ATOM     44  C   UNL     1       5.211   6.552  23.086  0.00  0.00    +0.147 A 
ATOM     45  C   UNL     1       4.872   6.961  21.778  0.00  0.00    +0.092 A 
ATOM     46  C   UNL     1       3.571   6.787  21.317  0.00  0.00    +0.124 A 
ATOM     47  C   UNL     1       2.603   6.259  22.155  0.00  0.00    +0.091 A 
ATOM     48  O   UNL     1       6.492   6.795  23.512  0.00  0.00    -0.451 OA
ATOM     49  C   UNL     1       2.958   5.796  23.427  0.00  0.00    +0.135 A 
ATOM     50  C   UNL     1       7.033   6.085  24.596  0.00  0.00    +0.181 A 
BRANCH  50  51
ATOM     51  C   UNL     1       8.537   6.286  24.677  0.00  0.00    +0.025 A 
ATOM     52  C   UNL     1       9.122   6.961  25.777  0.00  0.00    +0.015 A 
ATOM     53  C   UNL     1      10.515   7.108  25.909  0.00  0.00    +0.050 A 
ATOM     54  C   UNL     1      11.348   6.602  24.928  0.00  0.00    +0.158 A 
ATOM     55  C   UNL     1      10.806   6.005  23.803  0.00  0.00    +0.159 A 
ATOM     56  C   UNL     1       9.428   5.834  23.687  0.00  0.00    +0.060 A 
BRANCH  55  57
ATOM     57  O   UNL     1      11.664   5.587  22.823  0.00  0.00    -0.503 OA
ATOM     58  H   UNL     1      11.184   5.584  21.976  0.00  0.00    +0.292 HD
ENDBRANCH  55  57
BRANCH  54  59
ATOM     59  O   UNL     1      12.701   6.671  25.075  0.00  0.00    -0.503 OA
ATOM     60  H   UNL     1      12.912   5.980  25.734  0.00  0.00    +0.292 HD
ENDBRANCH  54  59
ENDBRANCH  50  51
BRANCH  49  61
ATOM     61  O   UNL     1       1.930   5.215  24.118  0.00  0.00    -0.506 OA
ATOM     62  H   UNL     1       2.224   4.338  24.444  0.00  0.00    +0.292 HD
ENDBRANCH  49  61
BRANCH  46  63
ATOM     63  O   UNL     1       3.185   7.108  20.050  0.00  0.00    -0.507 OA
ATOM     64  H   UNL     1       2.935   6.311  19.557  0.00  0.00    +0.292 HD
ENDBRANCH  46  63
ENDBRANCH  39  40
ENDBRANCH   4  39
TORSDOF 20
ENDMDL
MODEL 4
REMARK VINA RESULT:      -7.1      2.449      9.760
REMARK  Name = 
REMARK  21 active torsions:
REMARK  status: ('A' for Active; 'I' for Inactive)
REMARK    1  A    between atoms: C_1  and  C_2
REMARK    2  A    between atoms: C_4  and  O_64
REMARK    3  A    between atoms: C_6  and  O_63
REMARK    4  A    between atoms: C_8  and  O_35
REMARK    5  A    between atoms: C_10  and  O_13
REMARK    6  A    between atoms: O_13  and  C_14
REMARK    7  A    between atoms: C_15  and  C_27
REMARK    8  A    between atoms: C_19  and  O_26
REMARK    9  A    between atoms: C_21  and  O_25
REMARK   10  A    between atoms: C_29  and  O_34
REMARK   11  A    between atoms: C_30  and  O_33
REMARK   12  A    between atoms: O_35  and  C_36
REMARK   13  A    between atoms: C_38  and  O_62
REMARK   14  A    between atoms: C_40  and  O_61
REMARK   15  A    between atoms: C_42  and  O_60
REMARK   16  A    between atoms: C_44  and  C_47
REMARK   17  A    between atoms: C_47  and  O_48
REMARK   18  A    between atoms: O_48  and  C_49
REMARK   19  A    between atoms: C_49  and  C_51
REMARK   20  A    between atoms: C_52  and  C_53
REMARK   21  A    between atoms: C_56  and  O_59
REMARK                            x       y       z     vdW  Elec       q    Type
REMARK                         _______ _______ _______ _____ _____    ______ ____
ROOT
ATOM      1  C   UNL     1       8.686  -1.981  22.849  0.00  0.00    +0.041 C 
ATOM      2  C   UNL     1       9.183  -1.377  24.165  0.00  0.00    +0.150 C 
ATOM      3  O   UNL     1       8.506  -1.869  25.336  0.00  0.00    -0.334 OA
ATOM      4  C   UNL     1       7.087  -1.607  25.378  0.00  0.00    +0.340 C 
ATOM      5  C   UNL     1       6.857   0.008  25.331  0.00  0.00    +0.221 C 
ATOM      6  C   UNL     1       7.750   0.688  24.252  0.00  0.00    +0.180 C 
ATOM      7  C   UNL     1       9.172   0.157  24.204  0.00  0.00    +0.174 C 
ENDROOT
BRANCH   7   8
ATOM      8  O   UNL     1       9.863   0.617  25.374  0.00  0.00    -0.387 OA
ATOM      9  H   UNL     1       9.339   1.351  25.745  0.00  0.00    +0.210 HD
ENDBRANCH   7   8
BRANCH   6  10
ATOM     10  O   UNL     1       7.177   0.557  22.942  0.00  0.00    -0.386 OA
ATOM     11  H   UNL     1       7.161  -0.391  22.743  0.00  0.00    +0.210 HD
ENDBRANCH   6  10
BRANCH   5  12
ATOM     12  O   UNL     1       5.526   0.575  25.014  0.00  0.00    -0.337 OA
BRANCH  12  13
ATOM     13  C   UNL     1       4.763   0.830  26.172  0.00  0.00    +0.282 C 
ATOM     14  O   UNL     1       3.764   1.713  25.751  0.00  0.00    -0.339 OA
ATOM     15  C   UNL     1       4.104   3.066  25.475  0.00  0.00    +0.190 C 
ATOM     16  C   UNL     1       4.574   3.700  26.772  0.00  0.00    +0.178 C 
ATOM     17  C   UNL     1       5.773   2.914  27.313  0.00  0.00    +0.179 C 
ATOM     18  C   UNL     1       5.464   1.406  27.431  0.00  0.00    +0.201 C 
BRANCH  18  19
ATOM     19  O   UNL     1       4.584   1.227  28.563  0.00  0.00    -0.384 OA
ATOM     20  H   UNL     1       3.780   1.763  28.386  0.00  0.00    +0.210 HD
ENDBRANCH  18  19
BRANCH  17  21
ATOM     21  O   UNL     1       6.920   3.163  26.508  0.00  0.00    -0.386 OA
ATOM     22  H   UNL     1       6.671   3.084  25.569  0.00  0.00    +0.210 HD
ENDBRANCH  17  21
BRANCH  16  23
ATOM     23  O   UNL     1       3.474   3.621  27.707  0.00  0.00    -0.386 OA
ATOM     24  H   UNL     1       2.752   3.126  27.283  0.00  0.00    +0.210 HD
ENDBRANCH  16  23
BRANCH  15  25
ATOM     25  C   UNL     1       4.933   3.300  24.202  0.00  0.00    +0.266 C 
BRANCH  25  26
ATOM     26  O   UNL     1       5.651   4.520  24.318  0.00  0.00    -0.459 OA
BRANCH  26  27
ATOM     27  C   UNL     1       5.980   5.177  23.168  0.00  0.00    +0.332 C 
ATOM     28  O   UNL     1       5.314   5.970  22.539  0.00  0.00    -0.246 OA
BRANCH  27  29
ATOM     29  C   UNL     1       7.410   4.901  22.872  0.00  0.00    +0.092 C 
ATOM     30  C   UNL     1       8.317   5.014  23.851  0.00  0.00    +0.015 C 
BRANCH  30  31
ATOM     31  C   UNL     1       9.769   5.047  23.715  0.00  0.00    -0.025 A 
ATOM     32  C   UNL     1      10.542   6.192  23.922  0.00  0.00    +0.011 A 
ATOM     33  C   UNL     1      11.930   6.121  23.798  0.00  0.00    +0.046 A 
ATOM     34  C   UNL     1      12.536   4.920  23.447  0.00  0.00    +0.117 A 
ATOM     35  C   UNL     1      11.796   3.769  23.250  0.00  0.00    +0.046 A 
ATOM     36  C   UNL     1      10.404   3.835  23.381  0.00  0.00    +0.011 A 
BRANCH  34  37
ATOM     37  O   UNL     1      13.892   4.910  23.320  0.00  0.00    -0.507 OA
ATOM     38  H   UNL     1      14.284   4.998  24.204  0.00  0.00    +0.292 HD
ENDBRANCH  34  37
ENDBRANCH  30  31
ENDBRANCH  27  29
ENDBRANCH  26  27
ENDBRANCH  25  26
ENDBRANCH  15  25
ENDBRANCH  12  13
ENDBRANCH   5  12
BRANCH   4  39
ATOM     39  O   UNL     1       6.578  -2.282  26.575  0.00  0.00    -0.453 OA
BRANCH  39  40
ATOM     40  C   UNL     1       5.260  -2.805  26.641  0.00  0.00    +0.214 A 
ATOM     41  C   UNL     1       4.337  -2.491  27.806  0.00  0.00    +0.238 A 
ATOM     42  O   UNL     1       4.607  -1.636  28.636  0.00  0.00    -0.283 OA
ATOM     43  C   UNL     1       3.141  -3.356  28.011  0.00  0.00    +0.109 A 
ATOM     44  C   UNL     1       2.943  -4.396  27.111  0.00  0.00    +0.147 A 
ATOM     45  C   UNL     1       2.049  -5.447  27.406  0.00  0.00    +0.092 A 
ATOM     46  C   UNL     1       1.287  -5.396  28.570  0.00  0.00    +0.124 A 
ATOM     47  C   UNL     1       1.372  -4.296  29.407  0.00  0.00    +0.091 A 
ATOM     48  O   UNL     1       3.631  -4.468  25.926  0.00  0.00    -0.451 OA
ATOM     49  C   UNL     1       2.307  -3.289  29.143  0.00  0.00    +0.135 A 
ATOM     50  C   UNL     1       4.805  -3.722  25.733  0.00  0.00    +0.181 A 
BRANCH  50  51
ATOM     51  C   UNL     1       5.552  -4.198  24.499  0.00  0.00    +0.025 A 
ATOM     52  C   UNL     1       6.623  -5.120  24.607  0.00  0.00    +0.015 A 
ATOM     53  C   UNL     1       7.291  -5.626  23.477  0.00  0.00    +0.050 A 
ATOM     54  C   UNL     1       6.916  -5.197  22.217  0.00  0.00    +0.158 A 
ATOM     55  C   UNL     1       5.926  -4.240  22.080  0.00  0.00    +0.159 A 
ATOM     56  C   UNL     1       5.244  -3.761  23.197  0.00  0.00    +0.060 A 
BRANCH  55  57
ATOM     57  O   UNL     1       5.639  -3.789  20.820  0.00  0.00    -0.503 OA
ATOM     58  H   UNL     1       5.091  -2.989  20.899  0.00  0.00    +0.292 HD
ENDBRANCH  55  57
BRANCH  54  59
ATOM     59  O   UNL     1       7.503  -5.730  21.108  0.00  0.00    -0.503 OA
ATOM     60  H   UNL     1       6.809  -6.291  20.710  0.00  0.00    +0.292 HD
ENDBRANCH  54  59
ENDBRANCH  50  51
BRANCH  49  61
ATOM     61  O   UNL     1       2.354  -2.306  30.094  0.00  0.00    -0.506 OA
ATOM     62  H   UNL     1       1.966  -2.652  30.925  0.00  0.00    +0.292 HD
ENDBRANCH  49  61
BRANCH  46  63
ATOM     63  O   UNL     1       0.443  -6.398  28.948  0.00  0.00    -0.507 OA
ATOM     64  H   UNL     1       0.100  -6.237  29.840  0.00  0.00    +0.292 HD
ENDBRANCH  46  63
ENDBRANCH  39  40
ENDBRANCH   4  39
TORSDOF 20
ENDMDL
MODEL 5
REMARK VINA RESULT:      -7.1      2.318      9.194
REMARK  Name = 
REMARK  21 active torsions:
REMARK  status: ('A' for Active; 'I' for Inactive)
REMARK    1  A    between atoms: C_1  and  C_2
REMARK    2  A    between atoms: C_4  and  O_64
REMARK    3  A    between atoms: C_6  and  O_63
REMARK    4  A    between atoms: C_8  and  O_35
REMARK    5  A    between atoms: C_10  and  O_13
REMARK    6  A    between atoms: O_13  and  C_14
REMARK    7  A    between atoms: C_15  and  C_27
REMARK    8  A    between atoms: C_19  and  O_26
REMARK    9  A    between atoms: C_21  and  O_25
REMARK   10  A    between atoms: C_29  and  O_34
REMARK   11  A    between atoms: C_30  and  O_33
REMARK   12  A    between atoms: O_35  and  C_36
REMARK   13  A    between atoms: C_38  and  O_62
REMARK   14  A    between atoms: C_40  and  O_61
REMARK   15  A    between atoms: C_42  and  O_60
REMARK   16  A    between atoms: C_44  and  C_47
REMARK   17  A    between atoms: C_47  and  O_48
REMARK   18  A    between atoms: O_48  and  C_49
REMARK   19  A    between atoms: C_49  and  C_51
REMARK   20  A    between atoms: C_52  and  C_53
REMARK   21  A    between atoms: C_56  and  O_59
REMARK                            x       y       z     vdW  Elec       q    Type
REMARK                         _______ _______ _______ _____ _____    ______ ____
ROOT
ATOM      1  C   UNL     1      10.099  -0.735  21.774  0.00  0.00    +0.041 C 
ATOM      2  C   UNL     1       9.985  -0.505  23.283  0.00  0.00    +0.150 C 
ATOM      3  O   UNL     1       8.633  -0.489  23.779  0.00  0.00    -0.334 OA
ATOM      4  C   UNL     1       7.793   0.549  23.232  0.00  0.00    +0.340 C 
ATOM      5  C   UNL     1       8.456   1.996  23.591  0.00  0.00    +0.221 C 
ATOM      6  C   UNL     1       9.991   2.009  23.331  0.00  0.00    +0.180 C 
ATOM      7  C   UNL     1      10.705   0.750  23.792  0.00  0.00    +0.174 C 
ENDROOT
BRANCH   7   8
ATOM      8  O   UNL     1      10.731   0.747  25.226  0.00  0.00    -0.387 OA
ATOM      9  H   UNL     1      10.160   1.478  25.523  0.00  0.00    +0.210 HD
ENDBRANCH   7   8
BRANCH   6  10
ATOM     10  O   UNL     1      10.284   2.209  21.940  0.00  0.00    -0.386 OA
ATOM     11  H   UNL     1      10.056   1.381  21.490  0.00  0.00    +0.210 HD
ENDBRANCH   6  10
BRANCH   5  12
ATOM     12  O   UNL     1       8.026   3.224  22.884  0.00  0.00    -0.337 OA
BRANCH  12  13
ATOM     13  C   UNL     1       8.446   4.397  23.544  0.00  0.00    +0.282 C 
ATOM     14  O   UNL     1       7.710   4.418  24.733  0.00  0.00    -0.339 OA
ATOM     15  C   UNL     1       6.326   4.741  24.687  0.00  0.00    +0.190 C 
ATOM     16  C   UNL     1       6.199   6.173  24.201  0.00  0.00    +0.178 C 
ATOM     17  C   UNL     1       6.855   6.298  22.822  0.00  0.00    +0.179 C 
ATOM     18  C   UNL     1       8.304   5.765  22.826  0.00  0.00    +0.201 C 
BRANCH  18  19
ATOM     19  O   UNL     1       9.123   6.731  23.521  0.00  0.00    -0.384 OA
ATOM     20  H   UNL     1       9.491   7.335  22.839  0.00  0.00    +0.210 HD
ENDBRANCH  18  19
BRANCH  17  21
ATOM     21  O   UNL     1       6.051   5.650  21.841  0.00  0.00    -0.386 OA
ATOM     22  H   UNL     1       5.245   5.309  22.268  0.00  0.00    +0.210 HD
ENDBRANCH  17  21
BRANCH  16  23
ATOM     23  O   UNL     1       6.896   7.009  25.153  0.00  0.00    -0.386 OA
ATOM     24  H   UNL     1       6.985   7.897  24.766  0.00  0.00    +0.210 HD
ENDBRANCH  16  23
BRANCH  15  25
ATOM     25  C   UNL     1       5.411   3.672  24.068  0.00  0.00    +0.266 C 
BRANCH  25  26
ATOM     26  O   UNL     1       4.178   3.634  24.771  0.00  0.00    -0.459 OA
BRANCH  26  27
ATOM     27  C   UNL     1       3.052   3.318  24.067  0.00  0.00    +0.332 C 
ATOM     28  O   UNL     1       2.111   2.642  24.419  0.00  0.00    -0.246 OA
BRANCH  27  29
ATOM     29  C   UNL     1       3.065   4.101  22.804  0.00  0.00    +0.092 C 
ATOM     30  C   UNL     1       2.014   4.030  21.976  0.00  0.00    +0.015 C 
BRANCH  30  31
ATOM     31  C   UNL     1       1.939   4.497  20.596  0.00  0.00    -0.025 A 
ATOM     32  C   UNL     1       1.797   3.646  19.496  0.00  0.00    +0.011 A 
ATOM     33  C   UNL     1       1.704   4.185  18.213  0.00  0.00    +0.046 A 
ATOM     34  C   UNL     1       1.776   5.562  18.031  0.00  0.00    +0.117 A 
ATOM     35  C   UNL     1       1.902   6.426  19.102  0.00  0.00    +0.046 A 
ATOM     36  C   UNL     1       1.987   5.889  20.392  0.00  0.00    +0.011 A 
BRANCH  34  37
ATOM     37  O   UNL     1       1.699   6.035  16.756  0.00  0.00    -0.507 OA
ATOM     38  H   UNL     1       2.560   5.904  16.326  0.00  0.00    +0.292 HD
ENDBRANCH  34  37
ENDBRANCH  30  31
ENDBRANCH  27  29
ENDBRANCH  26  27
ENDBRANCH  25  26
ENDBRANCH  15  25
ENDBRANCH  12  13
ENDBRANCH   5  12
BRANCH   4  39
ATOM     39  O   UNL     1       6.450   0.320  23.770  0.00  0.00    -0.453 OA
BRANCH  39  40
ATOM     40  C   UNL     1       6.050  -0.941  24.285  0.00  0.00    +0.214 A 
ATOM     41  C   UNL     1       5.874  -2.149  23.380  0.00  0.00    +0.238 A 
ATOM     42  O   UNL     1       6.243  -2.148  22.216  0.00  0.00    -0.283 OA
ATOM     43  C   UNL     1       5.099  -3.312  23.899  0.00  0.00    +0.109 A 
ATOM     44  C   UNL     1       4.590  -3.216  25.189  0.00  0.00    +0.147 A 
ATOM     45  C   UNL     1       3.587  -4.101  25.637  0.00  0.00    +0.092 A 
ATOM     46  C   UNL     1       3.166  -5.140  24.813  0.00  0.00    +0.124 A 
ATOM     47  C   UNL     1       3.764  -5.331  23.578  0.00  0.00    +0.091 A 
ATOM     48  O   UNL     1       5.009  -2.242  26.061  0.00  0.00    -0.451 OA
ATOM     49  C   UNL     1       4.712  -4.413  23.112  0.00  0.00    +0.135 A 
ATOM     50  C   UNL     1       5.674  -1.098  25.590  0.00  0.00    +0.181 A 
BRANCH  50  51
ATOM     51  C   UNL     1       5.749  -0.034  26.672  0.00  0.00    +0.025 A 
ATOM     52  C   UNL     1       4.659   0.841  26.910  0.00  0.00    +0.015 A 
ATOM     53  C   UNL     1       4.676   1.794  27.944  0.00  0.00    +0.050 A 
ATOM     54  C   UNL     1       5.797   1.906  28.746  0.00  0.00    +0.158 A 
ATOM     55  C   UNL     1       6.909   1.121  28.493  0.00  0.00    +0.159 A 
ATOM     56  C   UNL     1       6.880   0.157  27.487  0.00  0.00    +0.060 A 
BRANCH  55  57
ATOM     57  O   UNL     1       8.023   1.319  29.262  0.00  0.00    -0.503 OA
ATOM     58  H   UNL     1       8.766   0.843  28.852  0.00  0.00    +0.292 HD
ENDBRANCH  55  57
BRANCH  54  59
ATOM     59  O   UNL     1       5.804   2.773  29.798  0.00  0.00    -0.503 OA
ATOM     60  H   UNL     1       6.627   2.564  30.282  0.00  0.00    +0.292 HD
ENDBRANCH  54  59
ENDBRANCH  50  51
BRANCH  49  61
ATOM     61  O   UNL     1       5.157  -4.664  21.843  0.00  0.00    -0.506 OA
ATOM     62  H   UNL     1       6.102  -4.922  21.884  0.00  0.00    +0.292 HD
ENDBRANCH  49  61
BRANCH  46  63
ATOM     63  O   UNL     1       2.166  -6.000  25.156  0.00  0.00    -0.507 OA
ATOM     64  H   UNL     1       1.881  -6.516  24.387  0.00  0.00    +0.292 HD
ENDBRANCH  46  63
ENDBRANCH  39  40
ENDBRANCH   4  39
TORSDOF 20
ENDMDL
MODEL 6
REMARK VINA RESULT:      -7.0      2.549      5.934
REMARK  Name = 
REMARK  21 active torsions:
REMARK  status: ('A' for Active; 'I' for Inactive)
REMARK    1  A    between atoms: C_1  and  C_2
REMARK    2  A    between atoms: C_4  and  O_64
REMARK    3  A    between atoms: C_6  and  O_63
REMARK    4  A    between atoms: C_8  and  O_35
REMARK    5  A    between atoms: C_10  and  O_13
REMARK    6  A    between atoms: O_13  and  C_14
REMARK    7  A    between atoms: C_15  and  C_27
REMARK    8  A    between atoms: C_19  and  O_26
REMARK    9  A    between atoms: C_21  and  O_25
REMARK   10  A    between atoms: C_29  and  O_34
REMARK   11  A    between atoms: C_30  and  O_33
REMARK   12  A    between atoms: O_35  and  C_36
REMARK   13  A    between atoms: C_38  and  O_62
REMARK   14  A    between atoms: C_40  and  O_61
REMARK   15  A    between atoms: C_42  and  O_60
REMARK   16  A    between atoms: C_44  and  C_47
REMARK   17  A    between atoms: C_47  and  O_48
REMARK   18  A    between atoms: O_48  and  C_49
REMARK   19  A    between atoms: C_49  and  C_51
REMARK   20  A    between atoms: C_52  and  C_53
REMARK   21  A    between atoms: C_56  and  O_59
REMARK                            x       y       z     vdW  Elec       q    Type
REMARK                         _______ _______ _______ _____ _____    ______ ____
ROOT
ATOM      1  C   UNL     1      10.767   0.293  24.299  0.00  0.00    +0.041 C 
ATOM      2  C   UNL     1       9.946   0.494  23.023  0.00  0.00    +0.150 C 
ATOM      3  O   UNL     1       8.565   0.827  23.254  0.00  0.00    -0.334 OA
ATOM      4  C   UNL     1       7.806  -0.171  23.969  0.00  0.00    +0.340 C 
ATOM      5  C   UNL     1       7.831  -1.556  23.109  0.00  0.00    +0.221 C 
ATOM      6  C   UNL     1       9.259  -1.884  22.581  0.00  0.00    +0.180 C 
ATOM      7  C   UNL     1      10.006  -0.679  22.036  0.00  0.00    +0.174 C 
ENDROOT
BRANCH   7   8
ATOM      8  O   UNL     1       9.401  -0.299  20.793  0.00  0.00    -0.387 OA
ATOM      9  H   UNL     1       9.062  -1.114  20.379  0.00  0.00    +0.210 HD
ENDBRANCH   7   8
BRANCH   6  10
ATOM     10  O   UNL     1      10.067  -2.491  23.601  0.00  0.00    -0.386 OA
ATOM     11  H   UNL     1       9.586  -3.279  23.899  0.00  0.00    +0.210 HD
ENDBRANCH   6  10
BRANCH   5  12
ATOM     12  O   UNL     1       7.443  -2.843  23.732  0.00  0.00    -0.337 OA
BRANCH  12  13
ATOM     13  C   UNL     1       7.155  -3.836  22.774  0.00  0.00    +0.282 C 
ATOM     14  O   UNL     1       5.838  -3.577  22.380  0.00  0.00    -0.339 OA
ATOM     15  C   UNL     1       4.773  -3.889  23.268  0.00  0.00    +0.190 C 
ATOM     16  C   UNL     1       4.762  -5.393  23.469  0.00  0.00    +0.178 C 
ATOM     17  C   UNL     1       6.116  -5.838  24.031  0.00  0.00    +0.179 C 
ATOM     18  C   UNL     1       7.290  -5.331  23.165  0.00  0.00    +0.201 C 
BRANCH  18  19
ATOM     19  O   UNL     1       7.311  -6.119  21.954  0.00  0.00    -0.384 OA
ATOM     20  H   UNL     1       8.162  -6.610  21.950  0.00  0.00    +0.210 HD
ENDBRANCH  18  19
BRANCH  17  21
ATOM     21  O   UNL     1       6.237  -5.426  25.389  0.00  0.00    -0.386 OA
ATOM     22  H   UNL     1       6.447  -4.476  25.414  0.00  0.00    +0.210 HD
ENDBRANCH  17  21
BRANCH  16  23
ATOM     23  O   UNL     1       4.548  -5.994  22.171  0.00  0.00    -0.386 OA
ATOM     24  H   UNL     1       3.684  -5.696  21.839  0.00  0.00    +0.210 HD
ENDBRANCH  16  23
BRANCH  15  25
ATOM     25  C   UNL     1       4.646  -2.982  24.504  0.00  0.00    +0.266 C 
BRANCH  25  26
ATOM     26  O   UNL     1       4.002  -3.692  25.552  0.00  0.00    -0.459 OA
BRANCH  26  27
ATOM     27  C   UNL     1       2.938  -3.096  26.164  0.00  0.00    +0.332 C 
ATOM     28  O   UNL     1       2.548  -1.955  26.050  0.00  0.00    -0.246 OA
BRANCH  27  29
ATOM     29  C   UNL     1       2.182  -4.145  26.898  0.00  0.00    +0.092 C 
ATOM     30  C   UNL     1       2.838  -4.967  27.729  0.00  0.00    +0.015 C 
BRANCH  30  31
ATOM     31  C   UNL     1       2.344  -6.202  28.326  0.00  0.00    -0.025 A 
ATOM     32  C   UNL     1       1.402  -7.036  27.717  0.00  0.00    +0.011 A 
ATOM     33  C   UNL     1       1.009  -8.214  28.350  0.00  0.00    +0.046 A 
ATOM     34  C   UNL     1       1.538  -8.545  29.593  0.00  0.00    +0.117 A 
ATOM     35  C   UNL     1       2.481  -7.746  30.212  0.00  0.00    +0.046 A 
ATOM     36  C   UNL     1       2.884  -6.566  29.575  0.00  0.00    +0.011 A 
BRANCH  34  37
ATOM     37  O   UNL     1       1.107  -9.697  30.177  0.00  0.00    -0.507 OA
ATOM     38  H   UNL     1       1.396 -10.446  29.631  0.00  0.00    +0.292 HD
ENDBRANCH  34  37
ENDBRANCH  30  31
ENDBRANCH  27  29
ENDBRANCH  26  27
ENDBRANCH  25  26
ENDBRANCH  15  25
ENDBRANCH  12  13
ENDBRANCH   5  12
BRANCH   4  39
ATOM     39  O   UNL     1       6.479   0.406  24.198  0.00  0.00    -0.453 OA
BRANCH  39  40
ATOM     40  C   UNL     1       6.154   1.097  25.395  0.00  0.00    +0.214 A 
ATOM     41  C   UNL     1       5.680   0.360  26.636  0.00  0.00    +0.238 A 
ATOM     42  O   UNL     1       5.733  -0.857  26.728  0.00  0.00    -0.283 OA
ATOM     43  C   UNL     1       5.001   1.143  27.706  0.00  0.00    +0.109 A 
ATOM     44  C   UNL     1       4.851   2.510  27.499  0.00  0.00    +0.147 A 
ATOM     45  C   UNL     1       3.950   3.264  28.280  0.00  0.00    +0.092 A 
ATOM     46  C   UNL     1       3.270   2.654  29.330  0.00  0.00    +0.124 A 
ATOM     47  C   UNL     1       3.514   1.325  29.634  0.00  0.00    +0.091 A 
ATOM     48  O   UNL     1       5.537   3.171  26.512  0.00  0.00    -0.451 OA
ATOM     49  C   UNL     1       4.359   0.565  28.818  0.00  0.00    +0.135 A 
ATOM     50  C   UNL     1       6.122   2.463  25.449  0.00  0.00    +0.181 A 
BRANCH  50  51
ATOM     51  C   UNL     1       6.537   3.408  24.334  0.00  0.00    +0.025 A 
ATOM     52  C   UNL     1       5.633   3.754  23.299  0.00  0.00    +0.015 A 
ATOM     53  C   UNL     1       5.969   4.674  22.289  0.00  0.00    +0.050 A 
ATOM     54  C   UNL     1       7.227   5.246  22.282  0.00  0.00    +0.158 A 
ATOM     55  C   UNL     1       8.161   4.873  23.233  0.00  0.00    +0.159 A 
ATOM     56  C   UNL     1       7.818   3.984  24.251  0.00  0.00    +0.060 A 
BRANCH  55  57
ATOM     57  O   UNL     1       9.417   5.407  23.144  0.00  0.00    -0.503 OA
ATOM     58  H   UNL     1      10.041   4.796  23.573  0.00  0.00    +0.292 HD
ENDBRANCH  55  57
BRANCH  54  59
ATOM     59  O   UNL     1       7.545   6.193  21.354  0.00  0.00    -0.503 OA
ATOM     60  H   UNL     1       8.303   6.672  21.743  0.00  0.00    +0.292 HD
ENDBRANCH  54  59
ENDBRANCH  50  51
BRANCH  49  61
ATOM     61  O   UNL     1       4.444  -0.753  29.173  0.00  0.00    -0.506 OA
ATOM     62  H   UNL     1       5.017  -0.832  29.964  0.00  0.00    +0.292 HD
ENDBRANCH  49  61
BRANCH  46  63
ATOM     63  O   UNL     1       2.345   3.303  30.091  0.00  0.00    -0.507 OA
ATOM     64  H   UNL     1       1.745   3.820  29.533  0.00  0.00    +0.292 HD
ENDBRANCH  46  63
ENDBRANCH  39  40
ENDBRANCH   4  39
TORSDOF 20
ENDMDL
MODEL 7
REMARK VINA RESULT:      -7.0      2.344      7.261
REMARK  Name = 
REMARK  21 active torsions:
REMARK  status: ('A' for Active; 'I' for Inactive)
REMARK    1  A    between atoms: C_1  and  C_2
REMARK    2  A    between atoms: C_4  and  O_64
REMARK    3  A    between atoms: C_6  and  O_63
REMARK    4  A    between atoms: C_8  and  O_35
REMARK    5  A    between atoms: C_10  and  O_13
REMARK    6  A    between atoms: O_13  and  C_14
REMARK    7  A    between atoms: C_15  and  C_27
REMARK    8  A    between atoms: C_19  and  O_26
REMARK    9  A    between atoms: C_21  and  O_25
REMARK   10  A    between atoms: C_29  and  O_34
REMARK   11  A    between atoms: C_30  and  O_33
REMARK   12  A    between atoms: O_35  and  C_36
REMARK   13  A    between atoms: C_38  and  O_62
REMARK   14  A    between atoms: C_40  and  O_61
REMARK   15  A    between atoms: C_42  and  O_60
REMARK   16  A    between atoms: C_44  and  C_47
REMARK   17  A    between atoms: C_47  and  O_48
REMARK   18  A    between atoms: O_48  and  C_49
REMARK   19  A    between atoms: C_49  and  C_51
REMARK   20  A    between atoms: C_52  and  C_53
REMARK   21  A    between atoms: C_56  and  O_59
REMARK                            x       y       z     vdW  Elec       q    Type
REMARK                         _______ _______ _______ _____ _____    ______ ____
ROOT
ATOM      1  C   UNL     1       7.995   6.891  27.188  0.00  0.00    +0.041 C 
ATOM      2  C   UNL     1       7.101   6.400  28.329  0.00  0.00    +0.150 C 
ATOM      3  O   UNL     1       7.257   5.004  28.644  0.00  0.00    -0.334 OA
ATOM      4  C   UNL     1       6.935   4.095  27.570  0.00  0.00    +0.340 C 
ATOM      5  C   UNL     1       5.375   4.323  27.148  0.00  0.00    +0.221 C 
ATOM      6  C   UNL     1       5.024   5.835  27.028  0.00  0.00    +0.180 C 
ATOM      7  C   UNL     1       5.607   6.693  28.138  0.00  0.00    +0.174 C 
ENDROOT
BRANCH   7   8
ATOM      8  O   UNL     1       4.897   6.403  29.351  0.00  0.00    -0.387 OA
ATOM      9  H   UNL     1       5.284   5.589  29.720  0.00  0.00    +0.210 HD
ENDBRANCH   7   8
BRANCH   6  10
ATOM     10  O   UNL     1       5.455   6.374  25.770  0.00  0.00    -0.386 OA
ATOM     11  H   UNL     1       6.376   6.651  25.891  0.00  0.00    +0.210 HD
ENDBRANCH   6  10
BRANCH   5  12
ATOM     12  O   UNL     1       4.852   3.796  25.866  0.00  0.00    -0.337 OA
BRANCH  12  13
ATOM     13  C   UNL     1       3.839   2.834  26.057  0.00  0.00    +0.282 C 
ATOM     14  O   UNL     1       3.497   2.418  24.766  0.00  0.00    -0.339 OA
ATOM     15  C   UNL     1       2.745   3.288  23.932  0.00  0.00    +0.190 C 
ATOM     16  C   UNL     1       1.386   3.491  24.578  0.00  0.00    +0.178 C 
ATOM     17  C   UNL     1       1.576   4.076  25.981  0.00  0.00    +0.179 C 
ATOM     18  C   UNL     1       2.551   3.230  26.827  0.00  0.00    +0.201 C 
BRANCH  18  19
ATOM     19  O   UNL     1       1.861   2.020  27.211  0.00  0.00    -0.384 OA
ATOM     20  H   UNL     1       2.551   1.362  27.446  0.00  0.00    +0.210 HD
ENDBRANCH  18  19
BRANCH  17  21
ATOM     21  O   UNL     1       1.991   5.435  25.888  0.00  0.00    -0.386 OA
ATOM     22  H   UNL     1       2.610   5.527  25.142  0.00  0.00    +0.210 HD
ENDBRANCH  17  21
BRANCH  16  23
ATOM     23  O   UNL     1       0.761   2.190  24.670  0.00  0.00    -0.386 OA
ATOM     24  H   UNL     1       0.337   2.120  25.542  0.00  0.00    +0.210 HD
ENDBRANCH  16  23
BRANCH  15  25
ATOM     25  C   UNL     1       3.496   4.521  23.401  0.00  0.00    +0.266 C 
BRANCH  25  26
ATOM     26  O   UNL     1       4.447   4.117  22.427  0.00  0.00    -0.459 OA
BRANCH  26  27
ATOM     27  C   UNL     1       5.722   4.590  22.547  0.00  0.00    +0.332 C 
ATOM     28  O   UNL     1       6.097   5.612  23.077  0.00  0.00    -0.246 OA
BRANCH  27  29
ATOM     29  C   UNL     1       6.651   3.537  22.060  0.00  0.00    +0.092 C 
ATOM     30  C   UNL     1       6.389   2.252  22.334  0.00  0.00    +0.015 C 
BRANCH  30  31
ATOM     31  C   UNL     1       7.287   1.113  22.183  0.00  0.00    -0.025 A 
ATOM     32  C   UNL     1       7.034  -0.151  22.724  0.00  0.00    +0.011 A 
ATOM     33  C   UNL     1       7.937  -1.191  22.503  0.00  0.00    +0.046 A 
ATOM     34  C   UNL     1       9.095  -0.961  21.766  0.00  0.00    +0.117 A 
ATOM     35  C   UNL     1       9.362   0.275  21.209  0.00  0.00    +0.046 A 
ATOM     36  C   UNL     1       8.454   1.318  21.422  0.00  0.00    +0.011 A 
BRANCH  34  37
ATOM     37  O   UNL     1       9.952  -2.005  21.596  0.00  0.00    -0.507 OA
ATOM     38  H   UNL     1       9.488  -2.710  21.114  0.00  0.00    +0.292 HD
ENDBRANCH  34  37
ENDBRANCH  30  31
ENDBRANCH  27  29
ENDBRANCH  26  27
ENDBRANCH  25  26
ENDBRANCH  15  25
ENDBRANCH  12  13
ENDBRANCH   5  12
BRANCH   4  39
ATOM     39  O   UNL     1       7.267   2.751  28.053  0.00  0.00    -0.453 OA
BRANCH  39  40
ATOM     40  C   UNL     1       6.803   1.580  27.398  0.00  0.00    +0.214 A 
ATOM     41  C   UNL     1       5.763   0.674  28.032  0.00  0.00    +0.238 A 
ATOM     42  O   UNL     1       5.141   0.998  29.032  0.00  0.00    -0.283 OA
ATOM     43  C   UNL     1       5.605  -0.706  27.491  0.00  0.00    +0.109 A 
ATOM     44  C   UNL     1       6.424  -1.073  26.428  0.00  0.00    +0.147 A 
ATOM     45  C   UNL     1       6.582  -2.429  26.073  0.00  0.00    +0.092 A 
ATOM     46  C   UNL     1       5.840  -3.405  26.732  0.00  0.00    +0.124 A 
ATOM     47  C   UNL     1       4.917  -3.040  27.699  0.00  0.00    +0.091 A 
ATOM     48  O   UNL     1       7.138  -0.145  25.712  0.00  0.00    -0.451 OA
ATOM     49  C   UNL     1       4.811  -1.701  28.092  0.00  0.00    +0.135 A 
ATOM     50  C   UNL     1       7.366   1.139  26.232  0.00  0.00    +0.181 A 
BRANCH  50  51
ATOM     51  C   UNL     1       8.429   1.866  25.425  0.00  0.00    +0.025 A 
ATOM     52  C   UNL     1       9.603   1.197  24.997  0.00  0.00    +0.015 A 
ATOM     53  C   UNL     1      10.574   1.827  24.198  0.00  0.00    +0.050 A 
ATOM     54  C   UNL     1      10.400   3.149  23.833  0.00  0.00    +0.158 A 
ATOM     55  C   UNL     1       9.304   3.855  24.297  0.00  0.00    +0.159 A 
ATOM     56  C   UNL     1       8.327   3.222  25.064  0.00  0.00    +0.060 A 
BRANCH  55  57
ATOM     57  O   UNL     1       9.210   5.181  23.973  0.00  0.00    -0.503 OA
ATOM     58  H   UNL     1       9.886   5.380  23.301  0.00  0.00    +0.292 HD
ENDBRANCH  55  57
BRANCH  54  59
ATOM     59  O   UNL     1      11.293   3.754  22.999  0.00  0.00    -0.503 OA
ATOM     60  H   UNL     1      11.784   4.373  23.575  0.00  0.00    +0.292 HD
ENDBRANCH  54  59
ENDBRANCH  50  51
BRANCH  49  61
ATOM     61  O   UNL     1       3.931  -1.487  29.117  0.00  0.00    -0.506 OA
ATOM     62  H   UNL     1       3.392  -0.694  28.911  0.00  0.00    +0.292 HD
ENDBRANCH  49  61
BRANCH  46  63
ATOM     63  O   UNL     1       5.979  -4.737  26.481  0.00  0.00    -0.507 OA
ATOM     64  H   UNL     1       5.798  -5.256  27.280  0.00  0.00    +0.292 HD
ENDBRANCH  46  63
ENDBRANCH  39  40
ENDBRANCH   4  39
TORSDOF 20
ENDMDL
MODEL 8
REMARK VINA RESULT:      -6.9      4.172      8.528
REMARK  Name = 
REMARK  21 active torsions:
REMARK  status: ('A' for Active; 'I' for Inactive)
REMARK    1  A    between atoms: C_1  and  C_2
REMARK    2  A    between atoms: C_4  and  O_64
REMARK    3  A    between atoms: C_6  and  O_63
REMARK    4  A    between atoms: C_8  and  O_35
REMARK    5  A    between atoms: C_10  and  O_13
REMARK    6  A    between atoms: O_13  and  C_14
REMARK    7  A    between atoms: C_15  and  C_27
REMARK    8  A    between atoms: C_19  and  O_26
REMARK    9  A    between atoms: C_21  and  O_25
REMARK   10  A    between atoms: C_29  and  O_34
REMARK   11  A    between atoms: C_30  and  O_33
REMARK   12  A    between atoms: O_35  and  C_36
REMARK   13  A    between atoms: C_38  and  O_62
REMARK   14  A    between atoms: C_40  and  O_61
REMARK   15  A    between atoms: C_42  and  O_60
REMARK   16  A    between atoms: C_44  and  C_47
REMARK   17  A    between atoms: C_47  and  O_48
REMARK   18  A    between atoms: O_48  and  C_49
REMARK   19  A    between atoms: C_49  and  C_51
REMARK   20  A    between atoms: C_52  and  C_53
REMARK   21  A    between atoms: C_56  and  O_59
REMARK                            x       y       z     vdW  Elec       q    Type
REMARK                         _______ _______ _______ _____ _____    ______ ____
ROOT
ATOM      1  C   UNL     1       6.624  -5.609  23.053  0.00  0.00    +0.041 C 
ATOM      2  C   UNL     1       5.219  -5.179  22.625  0.00  0.00    +0.150 C 
ATOM      3  O   UNL     1       4.948  -3.776  22.801  0.00  0.00    -0.334 OA
ATOM      4  C   UNL     1       5.027  -3.305  24.163  0.00  0.00    +0.340 C 
ATOM      5  C   UNL     1       3.936  -4.122  25.059  0.00  0.00    +0.221 C 
ATOM      6  C   UNL     1       3.965  -5.649  24.753  0.00  0.00    +0.180 C 
ATOM      7  C   UNL     1       4.083  -5.980  23.276  0.00  0.00    +0.174 C 
ENDROOT
BRANCH   7   8
ATOM      8  O   UNL     1       2.837  -5.658  22.642  0.00  0.00    -0.387 OA
ATOM      9  H   UNL     1       2.239  -5.330  23.338  0.00  0.00    +0.210 HD
ENDBRANCH   7   8
BRANCH   6  10
ATOM     10  O   UNL     1       5.039  -6.301  25.448  0.00  0.00    -0.386 OA
ATOM     11  H   UNL     1       5.719  -6.493  24.783  0.00  0.00    +0.210 HD
ENDBRANCH   6  10
BRANCH   5  12
ATOM     12  O   UNL     1       4.011  -4.115  26.538  0.00  0.00    -0.337 OA
BRANCH  12  13
ATOM     13  C   UNL     1       3.116  -3.192  27.115  0.00  0.00    +0.282 C 
ATOM     14  O   UNL     1       3.323  -3.311  28.493  0.00  0.00    -0.339 OA
ATOM     15  C   UNL     1       2.835  -4.461  29.172  0.00  0.00    +0.190 C 
ATOM     16  C   UNL     1       1.321  -4.452  29.070  0.00  0.00    +0.178 C 
ATOM     17  C   UNL     1       0.914  -4.452  27.593  0.00  0.00    +0.179 C 
ATOM     18  C   UNL     1       1.599  -3.312  26.810  0.00  0.00    +0.201 C 
BRANCH  18  19
ATOM     19  O   UNL     1       0.960  -2.074  27.190  0.00  0.00    -0.384 OA
ATOM     20  H   UNL     1       0.181  -2.313  27.739  0.00  0.00    +0.210 HD
ENDBRANCH  18  19
BRANCH  17  21
ATOM     21  O   UNL     1       1.175  -5.728  27.017  0.00  0.00    -0.386 OA
ATOM     22  H   UNL     1       0.328  -6.157  26.801  0.00  0.00    +0.210 HD
ENDBRANCH  17  21
BRANCH  16  23
ATOM     23  O   UNL     1       0.858  -3.238  29.706  0.00  0.00    -0.386 OA
ATOM     24  H   UNL     1       0.873  -3.378  30.668  0.00  0.00    +0.210 HD
ENDBRANCH  16  23
BRANCH  15  25
ATOM     25  C   UNL     1       3.583  -5.773  28.885  0.00  0.00    +0.266 C 
BRANCH  25  26
ATOM     26  O   UNL     1       4.358  -6.139  30.017  0.00  0.00    -0.459 OA
BRANCH  26  27
ATOM     27  C   UNL     1       5.703  -6.296  29.844  0.00  0.00    +0.332 C 
ATOM     28  O   UNL     1       6.450  -7.056  30.420  0.00  0.00    -0.246 OA
BRANCH  27  29
ATOM     29  C   UNL     1       6.114  -5.485  28.669  0.00  0.00    +0.092 C 
ATOM     30  C   UNL     1       7.154  -5.886  27.925  0.00  0.00    +0.015 C 
BRANCH  30  31
ATOM     31  C   UNL     1       7.869  -5.116  26.914  0.00  0.00    -0.025 A 
ATOM     32  C   UNL     1       7.670  -3.750  26.694  0.00  0.00    +0.011 A 
ATOM     33  C   UNL     1       8.423  -3.090  25.724  0.00  0.00    +0.046 A 
ATOM     34  C   UNL     1       9.351  -3.794  24.964  0.00  0.00    +0.117 A 
ATOM     35  C   UNL     1       9.578  -5.142  25.171  0.00  0.00    +0.046 A 
ATOM     36  C   UNL     1       8.830  -5.807  26.150  0.00  0.00    +0.011 A 
BRANCH  34  37
ATOM     37  O   UNL     1      10.046  -3.105  24.017  0.00  0.00    -0.507 OA
ATOM     38  H   UNL     1       9.999  -3.598  23.182  0.00  0.00    +0.292 HD
ENDBRANCH  34  37
ENDBRANCH  30  31
ENDBRANCH  27  29
ENDBRANCH  26  27
ENDBRANCH  25  26
ENDBRANCH  15  25
ENDBRANCH  12  13
ENDBRANCH   5  12
BRANCH   4  39
ATOM     39  O   UNL     1       4.837  -1.853  24.109  0.00  0.00    -0.453 OA
BRANCH  39  40
ATOM     40  C   UNL     1       5.928  -0.947  24.180  0.00  0.00    +0.214 A 
ATOM     41  C   UNL     1       6.994  -0.900  23.099  0.00  0.00    +0.238 A 
ATOM     42  O   UNL     1       6.870  -1.494  22.038  0.00  0.00    -0.283 OA
ATOM     43  C   UNL     1       8.285  -0.224  23.410  0.00  0.00    +0.109 A 
ATOM     44  C   UNL     1       8.427   0.330  24.678  0.00  0.00    +0.147 A 
ATOM     45  C   UNL     1       9.699   0.688  25.171  0.00  0.00    +0.092 A 
ATOM     46  C   UNL     1      10.815   0.573  24.347  0.00  0.00    +0.124 A 
ATOM     47  C   UNL     1      10.668   0.154  23.035  0.00  0.00    +0.091 A 
ATOM     48  O   UNL     1       7.352   0.513  25.511  0.00  0.00    -0.451 OA
ATOM     49  C   UNL     1       9.415  -0.262  22.571  0.00  0.00    +0.135 A 
ATOM     50  C   UNL     1       6.146  -0.171  25.285  0.00  0.00    +0.181 A 
BRANCH  50  51
ATOM     51  C   UNL     1       5.229  -0.062  26.491  0.00  0.00    +0.025 A 
ATOM     52  C   UNL     1       5.677  -0.442  27.782  0.00  0.00    +0.015 A 
ATOM     53  C   UNL     1       4.872  -0.294  28.926  0.00  0.00    +0.050 A 
ATOM     54  C   UNL     1       3.593   0.214  28.795  0.00  0.00    +0.158 A 
ATOM     55  C   UNL     1       3.096   0.522  27.541  0.00  0.00    +0.159 A 
ATOM     56  C   UNL     1       3.904   0.403  26.412  0.00  0.00    +0.060 A 
BRANCH  55  57
ATOM     57  O   UNL     1       1.800   0.950  27.451  0.00  0.00    -0.503 OA
ATOM     58  H   UNL     1       1.233   0.308  27.914  0.00  0.00    +0.292 HD
ENDBRANCH  55  57
BRANCH  54  59
ATOM     59  O   UNL     1       2.825   0.431  29.901  0.00  0.00    -0.503 OA
ATOM     60  H   UNL     1       2.069   0.957  29.574  0.00  0.00    +0.292 HD
ENDBRANCH  54  59
ENDBRANCH  50  51
BRANCH  49  61
ATOM     61  O   UNL     1       9.423  -0.738  21.289  0.00  0.00    -0.506 OA
ATOM     62  H   UNL     1      10.246  -1.252  21.148  0.00  0.00    +0.292 HD
ENDBRANCH  49  61
BRANCH  46  63
ATOM     63  O   UNL     1      12.081   0.849  24.771  0.00  0.00    -0.507 OA
ATOM     64  H   UNL     1      12.612   0.040  24.808  0.00  0.00    +0.292 HD
ENDBRANCH  46  63
ENDBRANCH  39  40
ENDBRANCH   4  39
TORSDOF 20
ENDMDL
MODEL 9
REMARK VINA RESULT:      -6.8      2.848      9.379
REMARK  Name = 
REMARK  21 active torsions:
REMARK  status: ('A' for Active; 'I' for Inactive)
REMARK    1  A    between atoms: C_1  and  C_2
REMARK    2  A    between atoms: C_4  and  O_64
REMARK    3  A    between atoms: C_6  and  O_63
REMARK    4  A    between atoms: C_8  and  O_35
REMARK    5  A    between atoms: C_10  and  O_13
REMARK    6  A    between atoms: O_13  and  C_14
REMARK    7  A    between atoms: C_15  and  C_27
REMARK    8  A    between atoms: C_19  and  O_26
REMARK    9  A    between atoms: C_21  and  O_25
REMARK   10  A    between atoms: C_29  and  O_34
REMARK   11  A    between atoms: C_30  and  O_33
REMARK   12  A    between atoms: O_35  and  C_36
REMARK   13  A    between atoms: C_38  and  O_62
REMARK   14  A    between atoms: C_40  and  O_61
REMARK   15  A    between atoms: C_42  and  O_60
REMARK   16  A    between atoms: C_44  and  C_47
REMARK   17  A    between atoms: C_47  and  O_48
REMARK   18  A    between atoms: O_48  and  C_49
REMARK   19  A    between atoms: C_49  and  C_51
REMARK   20  A    between atoms: C_52  and  C_53
REMARK   21  A    between atoms: C_56  and  O_59
REMARK                            x       y       z     vdW  Elec       q    Type
REMARK                         _______ _______ _______ _____ _____    ______ ____
ROOT
ATOM      1  C   UNL     1       9.362  -1.131  21.892  0.00  0.00    +0.041 C 
ATOM      2  C   UNL     1      10.092  -0.826  23.202  0.00  0.00    +0.150 C 
ATOM      3  O   UNL     1       9.357  -1.183  24.387  0.00  0.00    -0.334 OA
ATOM      4  C   UNL     1       8.098  -0.499  24.555  0.00  0.00    +0.340 C 
ATOM      5  C   UNL     1       8.386   1.105  24.632  0.00  0.00    +0.221 C 
ATOM      6  C   UNL     1       9.390   1.566  23.534  0.00  0.00    +0.180 C 
ATOM      7  C   UNL     1      10.568   0.626  23.344  0.00  0.00    +0.174 C 
ENDROOT
BRANCH   7   8
ATOM      8  O   UNL     1      11.429   0.746  24.485  0.00  0.00    -0.387 OA
ATOM      9  H   UNL     1      11.480   1.694  24.705  0.00  0.00    +0.210 HD
ENDBRANCH   7   8
BRANCH   6  10
ATOM     10  O   UNL     1       8.738   1.733  22.266  0.00  0.00    -0.386 OA
ATOM     11  H   UNL     1       7.879   2.141  22.452  0.00  0.00    +0.210 HD
ENDBRANCH   6  10
BRANCH   5  12
ATOM     12  O   UNL     1       7.287   2.083  24.456  0.00  0.00    -0.337 OA
BRANCH  12  13
ATOM     13  C   UNL     1       7.445   3.219  25.276  0.00  0.00    +0.282 C 
ATOM     14  O   UNL     1       6.158   3.753  25.395  0.00  0.00    -0.339 OA
ATOM     15  C   UNL     1       5.581   4.428  24.285  0.00  0.00    +0.190 C 
ATOM     16  C   UNL     1       6.420   5.661  24.005  0.00  0.00    +0.178 C 
ATOM     17  C   UNL     1       7.864   5.237  23.720  0.00  0.00    +0.179 C 
ATOM     18  C   UNL     1       8.428   4.338  24.841  0.00  0.00    +0.201 C 
BRANCH  18  19
ATOM     19  O   UNL     1       8.693   5.180  25.985  0.00  0.00    -0.384 OA
ATOM     20  H   UNL     1       7.859   5.659  26.184  0.00  0.00    +0.210 HD
ENDBRANCH  18  19
BRANCH  17  21
ATOM     21  O   UNL     1       7.943   4.611  22.443  0.00  0.00    -0.386 OA
ATOM     22  H   UNL     1       7.442   5.142  21.799  0.00  0.00    +0.210 HD
ENDBRANCH  17  21
BRANCH  16  23
ATOM     23  O   UNL     1       6.376   6.484  25.193  0.00  0.00    -0.386 OA
ATOM     24  H   UNL     1       5.635   7.107  25.101  0.00  0.00    +0.210 HD
ENDBRANCH  16  23
BRANCH  15  25
ATOM     25  C   UNL     1       5.168   3.537  23.101  0.00  0.00    +0.266 C 
BRANCH  25  26
ATOM     26  O   UNL     1       4.050   2.742  23.469  0.00  0.00    -0.459 OA
BRANCH  26  27
ATOM     27  C   UNL     1       2.827   3.100  22.981  0.00  0.00    +0.332 C 
ATOM     28  O   UNL     1       1.743   2.983  23.510  0.00  0.00    -0.246 OA
BRANCH  27  29
ATOM     29  C   UNL     1       3.037   3.849  21.714  0.00  0.00    +0.092 C 
ATOM     30  C   UNL     1       1.996   4.459  21.131  0.00  0.00    +0.015 C 
BRANCH  30  31
ATOM     31  C   UNL     1       1.934   5.008  19.782  0.00  0.00    -0.025 A 
ATOM     32  C   UNL     1       2.184   6.349  19.477  0.00  0.00    +0.011 A 
ATOM     33  C   UNL     1       2.130   6.778  18.151  0.00  0.00    +0.046 A 
ATOM     34  C   UNL     1       1.806   5.879  17.142  0.00  0.00    +0.117 A 
ATOM     35  C   UNL     1       1.568   4.544  17.413  0.00  0.00    +0.046 A 
ATOM     36  C   UNL     1       1.629   4.108  18.742  0.00  0.00    +0.011 A 
BRANCH  34  37
ATOM     37  O   UNL     1       1.748   6.354  15.867  0.00  0.00    -0.507 OA
ATOM     38  H   UNL     1       2.385   7.083  15.781  0.00  0.00    +0.292 HD
ENDBRANCH  34  37
ENDBRANCH  30  31
ENDBRANCH  27  29
ENDBRANCH  26  27
ENDBRANCH  25  26
ENDBRANCH  15  25
ENDBRANCH  12  13
ENDBRANCH   5  12
BRANCH   4  39
ATOM     39  O   UNL     1       7.465  -1.083  25.741  0.00  0.00    -0.453 OA
BRANCH  39  40
ATOM     40  C   UNL     1       6.054  -1.164  25.879  0.00  0.00    +0.214 A 
ATOM     41  C   UNL     1       5.300  -0.291  26.867  0.00  0.00    +0.238 A 
ATOM     42  O   UNL     1       5.834   0.642  27.448  0.00  0.00    -0.283 OA
ATOM     43  C   UNL     1       3.910  -0.682  27.237  0.00  0.00    +0.109 A 
ATOM     44  C   UNL     1       3.389  -1.826  26.642  0.00  0.00    +0.147 A 
ATOM     45  C   UNL     1       2.237  -2.450  27.164  0.00  0.00    +0.092 A 
ATOM     46  C   UNL     1       1.560  -1.866  28.230  0.00  0.00    +0.124 A 
ATOM     47  C   UNL     1       1.989  -0.652  28.743  0.00  0.00    +0.091 A 
ATOM     48  O   UNL     1       3.989  -2.414  25.557  0.00  0.00    -0.451 OA
ATOM     49  C   UNL     1       3.168  -0.070  28.264  0.00  0.00    +0.135 A 
ATOM     50  C   UNL     1       5.323  -2.121  25.230  0.00  0.00    +0.181 A 
BRANCH  50  51
ATOM     51  C   UNL     1       5.859  -3.111  24.210  0.00  0.00    +0.025 A 
ATOM     52  C   UNL     1       6.751  -4.143  24.596  0.00  0.00    +0.015 A 
ATOM     53  C   UNL     1       7.214  -5.110  23.686  0.00  0.00    +0.050 A 
ATOM     54  C   UNL     1       6.812  -5.047  22.364  0.00  0.00    +0.158 A 
ATOM     55  C   UNL     1       6.004  -4.008  21.937  0.00  0.00    +0.159 A 
ATOM     56  C   UNL     1       5.522  -3.067  22.845  0.00  0.00    +0.060 A 
BRANCH  55  57
ATOM     57  O   UNL     1       5.693  -3.943  20.606  0.00  0.00    -0.503 OA
ATOM     58  H   UNL     1       4.775  -4.244  20.491  0.00  0.00    +0.292 HD
ENDBRANCH  55  57
BRANCH  54  59
ATOM     59  O   UNL     1       7.193  -6.017  21.485  0.00  0.00    -0.503 OA
ATOM     60  H   UNL     1       8.170  -5.994  21.503  0.00  0.00    +0.292 HD
ENDBRANCH  54  59
ENDBRANCH  50  51
BRANCH  49  61
ATOM     61  O   UNL     1       3.530   1.077  28.916  0.00  0.00    -0.506 OA
ATOM     62  H   UNL     1       3.189   1.040  29.835  0.00  0.00    +0.292 HD
ENDBRANCH  49  61
BRANCH  46  63
ATOM     63  O   UNL     1       0.473  -2.437  28.821  0.00  0.00    -0.507 OA
ATOM     64  H   UNL     1      -0.335  -2.220  28.333  0.00  0.00    +0.292 HD
ENDBRANCH  46  63
ENDBRANCH  39  40
ENDBRANCH   4  39
TORSDOF 20
ENDMDL
