MODEL 1
REMARK VINA RESULT:      -7.1      0.000      0.000
REMARK  Name = 
REMARK  18 active torsions:
REMARK  status: ('A' for Active; 'I' for Inactive)
REMARK    1  A    between atoms: C_3  and  O_54
REMARK    2  A    between atoms: C_4  and  O_53
REMARK    3  A    between atoms: C_6  and  C_7
REMARK    4  A    between atoms: C_8  and  O_36
REMARK    5  A    between atoms: C_12  and  O_35
REMARK    6  A    between atoms: C_14  and  O_18
REMARK    7  A    between atoms: O_18  and  C_19
REMARK    8  A    between atoms: C_21  and  O_34
REMARK    9  A    between atoms: C_23  and  O_33
REMARK   10  A    between atoms: C_25  and  O_32
REMARK   11  A    between atoms: C_27  and  C_30
REMARK   12  A    between atoms: C_30  and  O_31
REMARK   13  A    between atoms: O_36  and  C_37
REMARK   14  A    between atoms: C_39  and  O_52
REMARK   15  A    between atoms: C_41  and  O_51
REMARK   16  A    between atoms: C_43  and  O_50
REMARK   17  A    between atoms: C_45  and  C_48
REMARK   18  A    between atoms: C_48  and  O_49
REMARK                            x       y       z     vdW  Elec       q    Type
REMARK                         _______ _______ _______ _____ _____    ______ ____
ROOT
ATOM      1  C   UNL     1       6.895  -2.884  26.140  0.00  0.00    +0.181 A 
ATOM      2  O   UNL     1       7.383  -1.580  26.237  0.00  0.00    -0.451 OA
ATOM      3  C   UNL     1       8.291  -1.120  25.321  0.00  0.00    +0.147 A 
ATOM      4  C   UNL     1       8.944  -1.952  24.436  0.00  0.00    +0.109 A 
ATOM      5  C   UNL     1       9.945  -1.428  23.615  0.00  0.00    +0.135 A 
ATOM      6  C   UNL     1      10.278  -0.068  23.676  0.00  0.00    +0.092 A 
ATOM      7  C   UNL     1       9.607   0.784  24.563  0.00  0.00    +0.131 A 
ATOM      8  C   UNL     1       8.519  -3.352  24.384  0.00  0.00    +0.238 A 
ATOM      9  O   UNL     1       9.151  -4.167  23.719  0.00  0.00    -0.283 OA
ATOM     10  C   UNL     1       8.571   0.247  25.341  0.00  0.00    +0.093 A 
ATOM     11  C   UNL     1       7.293  -3.740  25.166  0.00  0.00    +0.214 A 
ENDROOT
BRANCH   1  13
ATOM     12  C   UNL     1       4.912  -2.225  27.561  0.00  0.00    +0.015 A 
ATOM     13  C   UNL     1       5.900  -3.177  27.224  0.00  0.00    +0.025 A 
ATOM     14  C   UNL     1       5.931  -4.366  27.974  0.00  0.00    +0.060 A 
ATOM     15  C   UNL     1       4.979  -4.612  28.958  0.00  0.00    +0.159 A 
ATOM     16  C   UNL     1       4.042  -3.648  29.297  0.00  0.00    +0.158 A 
ATOM     17  C   UNL     1       4.001  -2.448  28.604  0.00  0.00    +0.050 A 
BRANCH  16  18
ATOM     18  O   UNL     1       3.194  -3.919  30.331  0.00  0.00    -0.503 OA
ATOM     19  H   UNL     1       3.731  -4.116  31.118  0.00  0.00    +0.292 HD
ENDBRANCH  16  18
BRANCH  15  20
ATOM     20  O   UNL     1       4.979  -5.821  29.591  0.00  0.00    -0.503 OA
ATOM     21  H   UNL     1       4.379  -5.707  30.354  0.00  0.00    +0.292 HD
ENDBRANCH  15  20
ENDBRANCH   1  13
BRANCH   5  22
ATOM     22  O   UNL     1      10.661  -2.206  22.744  0.00  0.00    -0.506 OA
ATOM     23  H   UNL     1      10.937  -1.653  21.977  0.00  0.00    +0.292 HD
ENDBRANCH   5  22
BRANCH  11  24
ATOM     24  O   UNL     1       6.716  -4.967  24.833  0.00  0.00    -0.453 OA
BRANCH  24  25
ATOM     25  C   UNL     1       5.982  -4.967  23.587  0.00  0.00    +0.340 C 
ATOM     26  O   UNL     1       4.884  -4.064  23.676  0.00  0.00    -0.331 OA
ATOM     27  C   UNL     1       3.524  -4.500  23.716  0.00  0.00    +0.179 C 
ATOM     28  C   UNL     1       3.229  -5.994  23.456  0.00  0.00    +0.177 C 
ATOM     29  C   UNL     1       4.403  -6.897  23.818  0.00  0.00    +0.180 C 
ATOM     30  C   UNL     1       5.651  -6.392  23.116  0.00  0.00    +0.214 C 
BRANCH  30  31
ATOM     31  O   UNL     1       5.421  -6.426  21.693  0.00  0.00    -0.383 OA
ATOM     32  H   UNL     1       5.532  -5.534  21.317  0.00  0.00    +0.210 HD
ENDBRANCH  30  31
BRANCH  29  33
ATOM     33  O   UNL     1       4.525  -6.976  25.245  0.00  0.00    -0.386 OA
ATOM     34  H   UNL     1       5.325  -7.481  25.492  0.00  0.00    +0.210 HD
ENDBRANCH  29  33
BRANCH  28  35
ATOM     35  O   UNL     1       2.048  -6.447  24.135  0.00  0.00    -0.386 OA
ATOM     36  H   UNL     1       1.568  -7.016  23.497  0.00  0.00    +0.210 HD
ENDBRANCH  28  35
BRANCH  27  37
ATOM     37  C   UNL     1       2.852  -3.939  24.984  0.00  0.00    +0.190 C 
BRANCH  37  38
ATOM     38  O   UNL     1       2.973  -4.823  26.095  0.00  0.00    -0.392 OA
ATOM     39  H   UNL     1       2.663  -4.326  26.881  0.00  0.00    +0.210 HD
ENDBRANCH  37  38
ENDBRANCH  27  37
ENDBRANCH  24  25
ENDBRANCH  11  24
BRANCH   7  40
ATOM     40  O   UNL     1      10.055   2.092  24.625  0.00  0.00    -0.461 OA
BRANCH  40  41
ATOM     41  C   UNL     1       9.676   2.921  23.511  0.00  0.00    +0.339 C 
ATOM     42  O   UNL     1       9.888   4.310  23.774  0.00  0.00    -0.331 OA
ATOM     43  C   UNL     1       8.764   5.112  24.157  0.00  0.00    +0.179 C 
ATOM     44  C   UNL     1       7.562   4.890  23.226  0.00  0.00    +0.177 C 
ATOM     45  C   UNL     1       7.126   3.422  23.249  0.00  0.00    +0.180 C 
ATOM     46  C   UNL     1       8.309   2.513  22.892  0.00  0.00    +0.214 C 
BRANCH  46  47
ATOM     47  O   UNL     1       8.444   2.569  21.447  0.00  0.00    -0.383 OA
ATOM     48  H   UNL     1       7.595   2.239  21.082  0.00  0.00    +0.210 HD
ENDBRANCH  46  47
BRANCH  45  49
ATOM     49  O   UNL     1       6.494   3.113  24.486  0.00  0.00    -0.386 OA
ATOM     50  H   UNL     1       7.151   2.771  25.119  0.00  0.00    +0.210 HD
ENDBRANCH  45  49
BRANCH  44  51
ATOM     51  O   UNL     1       7.950   5.247  21.885  0.00  0.00    -0.386 OA
ATOM     52  H   UNL     1       7.444   6.045  21.641  0.00  0.00    +0.210 HD
ENDBRANCH  44  51
BRANCH  43  53
ATOM     53  C   UNL     1       8.410   4.993  25.652  0.00  0.00    +0.190 C 
BRANCH  53  54
ATOM     54  O   UNL     1       9.074   5.967  26.448  0.00  0.00    -0.392 OA
ATOM     55  H   UNL     1       8.824   5.828  27.381  0.00  0.00    +0.210 HD
ENDBRANCH  53  54
ENDBRANCH  43  53
ENDBRANCH  40  41
ENDBRANCH   7  40
TORSDOF 18
ENDMDL
MODEL 2
REMARK VINA RESULT:      -7.1      2.234      9.212
REMARK  Name = 
REMARK  18 active torsions:
REMARK  status: ('A' for Active; 'I' for Inactive)
REMARK    1  A    between atoms: C_3  and  O_54
REMARK    2  A    between atoms: C_4  and  O_53
REMARK    3  A    between atoms: C_6  and  C_7
REMARK    4  A    between atoms: C_8  and  O_36
REMARK    5  A    between atoms: C_12  and  O_35
REMARK    6  A    between atoms: C_14  and  O_18
REMARK    7  A    between atoms: O_18  and  C_19
REMARK    8  A    between atoms: C_21  and  O_34
REMARK    9  A    between atoms: C_23  and  O_33
REMARK   10  A    between atoms: C_25  and  O_32
REMARK   11  A    between atoms: C_27  and  C_30
REMARK   12  A    between atoms: C_30  and  O_31
REMARK   13  A    between atoms: O_36  and  C_37
REMARK   14  A    between atoms: C_39  and  O_52
REMARK   15  A    between atoms: C_41  and  O_51
REMARK   16  A    between atoms: C_43  and  O_50
REMARK   17  A    between atoms: C_45  and  C_48
REMARK   18  A    between atoms: C_48  and  O_49
REMARK                            x       y       z     vdW  Elec       q    Type
REMARK                         _______ _______ _______ _____ _____    ______ ____
ROOT
ATOM      1  C   UNL     1       5.958   0.055  24.327  0.00  0.00    +0.181 A 
ATOM      2  O   UNL     1       5.241  -1.000  24.893  0.00  0.00    -0.451 OA
ATOM      3  C   UNL     1       5.629  -2.292  24.663  0.00  0.00    +0.147 A 
ATOM      4  C   UNL     1       6.555  -2.632  23.699  0.00  0.00    +0.109 A 
ATOM      5  C   UNL     1       6.810  -3.980  23.439  0.00  0.00    +0.135 A 
ATOM      6  C   UNL     1       6.144  -4.983  24.156  0.00  0.00    +0.092 A 
ATOM      7  C   UNL     1       5.213  -4.643  25.147  0.00  0.00    +0.131 A 
ATOM      8  C   UNL     1       7.253  -1.540  23.017  0.00  0.00    +0.238 A 
ATOM      9  O   UNL     1       7.984  -1.775  22.059  0.00  0.00    -0.283 OA
ATOM     10  C   UNL     1       5.011  -3.283  25.427  0.00  0.00    +0.093 A 
ATOM     11  C   UNL     1       7.041  -0.143  23.534  0.00  0.00    +0.214 A 
ENDROOT
BRANCH   1  13
ATOM     12  C   UNL     1       4.885   1.585  26.028  0.00  0.00    +0.015 A 
ATOM     13  C   UNL     1       5.382   1.383  24.721  0.00  0.00    +0.025 A 
ATOM     14  C   UNL     1       5.264   2.452  23.815  0.00  0.00    +0.060 A 
ATOM     15  C   UNL     1       4.742   3.676  24.223  0.00  0.00    +0.159 A 
ATOM     16  C   UNL     1       4.227   3.839  25.499  0.00  0.00    +0.158 A 
ATOM     17  C   UNL     1       4.293   2.797  26.411  0.00  0.00    +0.050 A 
BRANCH  16  18
ATOM     18  O   UNL     1       3.650   5.037  25.805  0.00  0.00    -0.503 OA
ATOM     19  H   UNL     1       2.760   5.052  25.411  0.00  0.00    +0.292 HD
ENDBRANCH  16  18
BRANCH  15  20
ATOM     20  O   UNL     1       4.741   4.719  23.343  0.00  0.00    -0.503 OA
ATOM     21  H   UNL     1       5.534   4.584  22.788  0.00  0.00    +0.292 HD
ENDBRANCH  15  20
ENDBRANCH   1  13
BRANCH   5  22
ATOM     22  O   UNL     1       7.686  -4.387  22.467  0.00  0.00    -0.506 OA
ATOM     23  H   UNL     1       8.498  -3.833  22.521  0.00  0.00    +0.292 HD
ENDBRANCH   5  22
BRANCH  11  24
ATOM     24  O   UNL     1       7.962   0.816  23.107  0.00  0.00    -0.453 OA
BRANCH  24  25
ATOM     25  C   UNL     1       8.954   1.177  24.096  0.00  0.00    +0.340 C 
ATOM     26  O   UNL     1       8.669   2.474  24.612  0.00  0.00    -0.331 OA
ATOM     27  C   UNL     1       9.484   3.614  24.334  0.00  0.00    +0.179 C 
ATOM     28  C   UNL     1      10.831   3.390  23.611  0.00  0.00    +0.177 C 
ATOM     29  C   UNL     1      10.830   2.137  22.742  0.00  0.00    +0.180 C 
ATOM     30  C   UNL     1      10.384   0.952  23.581  0.00  0.00    +0.214 C 
BRANCH  30  31
ATOM     31  O   UNL     1      11.310   0.794  24.676  0.00  0.00    -0.383 OA
ATOM     32  H   UNL     1      11.341   1.612  25.204  0.00  0.00    +0.210 HD
ENDBRANCH  30  31
BRANCH  29  33
ATOM     33  O   UNL     1      10.027   2.364  21.575  0.00  0.00    -0.386 OA
ATOM     34  H   UNL     1       9.117   2.032  21.717  0.00  0.00    +0.210 HD
ENDBRANCH  29  33
BRANCH  28  35
ATOM     35  O   UNL     1      11.225   4.522  22.821  0.00  0.00    -0.386 OA
ATOM     36  H   UNL     1      11.543   4.161  21.966  0.00  0.00    +0.210 HD
ENDBRANCH  28  35
BRANCH  27  37
ATOM     37  C   UNL     1       8.612   4.717  23.708  0.00  0.00    +0.190 C 
BRANCH  37  38
ATOM     38  O   UNL     1       8.070   4.327  22.448  0.00  0.00    -0.392 OA
ATOM     39  H   UNL     1       7.205   4.781  22.365  0.00  0.00    +0.210 HD
ENDBRANCH  37  38
ENDBRANCH  27  37
ENDBRANCH  24  25
ENDBRANCH  11  24
BRANCH   7  40
ATOM     40  O   UNL     1       4.535  -5.689  25.747  0.00  0.00    -0.461 OA
BRANCH  40  41
ATOM     41  C   UNL     1       5.240  -6.338  26.821  0.00  0.00    +0.339 C 
ATOM     42  O   UNL     1       4.404  -7.239  27.550  0.00  0.00    -0.331 OA
ATOM     43  C   UNL     1       3.851  -6.801  28.796  0.00  0.00    +0.179 C 
ATOM     44  C   UNL     1       4.917  -6.163  29.700  0.00  0.00    +0.177 C 
ATOM     45  C   UNL     1       5.552  -4.951  29.012  0.00  0.00    +0.180 C 
ATOM     46  C   UNL     1       6.120  -5.356  27.646  0.00  0.00    +0.214 C 
BRANCH  46  47
ATOM     47  O   UNL     1       7.387  -6.014  27.910  0.00  0.00    -0.383 OA
ATOM     48  H   UNL     1       8.044  -5.585  27.319  0.00  0.00    +0.210 HD
ENDBRANCH  46  47
BRANCH  45  49
ATOM     49  O   UNL     1       4.632  -3.865  28.973  0.00  0.00    -0.386 OA
ATOM     50  H   UNL     1       3.913  -4.062  28.347  0.00  0.00    +0.210 HD
ENDBRANCH  45  49
BRANCH  44  51
ATOM     51  O   UNL     1       5.938  -7.144  29.967  0.00  0.00    -0.386 OA
ATOM     52  H   UNL     1       6.105  -7.622  29.133  0.00  0.00    +0.210 HD
ENDBRANCH  44  51
BRANCH  43  53
ATOM     53  C   UNL     1       2.589  -5.932  28.634  0.00  0.00    +0.190 C 
BRANCH  53  54
ATOM     54  O   UNL     1       1.976  -6.095  27.360  0.00  0.00    -0.392 OA
ATOM     55  H   UNL     1       1.783  -7.042  27.228  0.00  0.00    +0.210 HD
ENDBRANCH  53  54
ENDBRANCH  43  53
ENDBRANCH  40  41
ENDBRANCH   7  40
TORSDOF 18
ENDMDL
MODEL 3
REMARK VINA RESULT:      -6.7      2.358      9.237
REMARK  Name = 
REMARK  18 active torsions:
REMARK  status: ('A' for Active; 'I' for Inactive)
REMARK    1  A    between atoms: C_3  and  O_54
REMARK    2  A    between atoms: C_4  and  O_53
REMARK    3  A    between atoms: C_6  and  C_7
REMARK    4  A    between atoms: C_8  and  O_36
REMARK    5  A    between atoms: C_12  and  O_35
REMARK    6  A    between atoms: C_14  and  O_18
REMARK    7  A    between atoms: O_18  and  C_19
REMARK    8  A    between atoms: C_21  and  O_34
REMARK    9  A    between atoms: C_23  and  O_33
REMARK   10  A    between atoms: C_25  and  O_32
REMARK   11  A    between atoms: C_27  and  C_30
REMARK   12  A    between atoms: C_30  and  O_31
REMARK   13  A    between atoms: O_36  and  C_37
REMARK   14  A    between atoms: C_39  and  O_52
REMARK   15  A    between atoms: C_41  and  O_51
REMARK   16  A    between atoms: C_43  and  O_50
REMARK   17  A    between atoms: C_45  and  C_48
REMARK   18  A    between atoms: C_48  and  O_49
REMARK                            x       y       z     vdW  Elec       q    Type
REMARK                         _______ _______ _______ _____ _____    ______ ____
ROOT
ATOM      1  C   UNL     1       5.912   0.095  24.465  0.00  0.00    +0.181 A 
ATOM      2  O   UNL     1       5.184  -0.939  25.054  0.00  0.00    -0.451 OA
ATOM      3  C   UNL     1       5.543  -2.241  24.830  0.00  0.00    +0.147 A 
ATOM      4  C   UNL     1       6.444  -2.609  23.854  0.00  0.00    +0.109 A 
ATOM      5  C   UNL     1       6.668  -3.965  23.603  0.00  0.00    +0.135 A 
ATOM      6  C   UNL     1       5.995  -4.947  24.342  0.00  0.00    +0.092 A 
ATOM      7  C   UNL     1       5.089  -4.579  25.346  0.00  0.00    +0.131 A 
ATOM      8  C   UNL     1       7.151  -1.538  23.148  0.00  0.00    +0.238 A 
ATOM      9  O   UNL     1       7.860  -1.797  22.180  0.00  0.00    -0.283 OA
ATOM     10  C   UNL     1       4.919  -3.212  25.615  0.00  0.00    +0.093 A 
ATOM     11  C   UNL     1       6.976  -0.132  23.655  0.00  0.00    +0.214 A 
ENDROOT
BRANCH   1  13
ATOM     12  C   UNL     1       5.115   2.419  23.872  0.00  0.00    +0.015 A 
ATOM     13  C   UNL     1       5.369   1.438  24.856  0.00  0.00    +0.025 A 
ATOM     14  C   UNL     1       5.139   1.797  26.196  0.00  0.00    +0.060 A 
ATOM     15  C   UNL     1       4.616   3.044  26.519  0.00  0.00    +0.159 A 
ATOM     16  C   UNL     1       4.409   4.004  25.540  0.00  0.00    +0.158 A 
ATOM     17  C   UNL     1       4.657   3.701  24.211  0.00  0.00    +0.050 A 
BRANCH  16  18
ATOM     18  O   UNL     1       3.977   5.236  25.936  0.00  0.00    -0.503 OA
ATOM     19  H   UNL     1       4.756   5.758  26.198  0.00  0.00    +0.292 HD
ENDBRANCH  16  18
BRANCH  15  20
ATOM     20  O   UNL     1       4.308   3.316  27.821  0.00  0.00    -0.503 OA
ATOM     21  H   UNL     1       5.018   3.913  28.130  0.00  0.00    +0.292 HD
ENDBRANCH  15  20
ENDBRANCH   1  13
BRANCH   5  22
ATOM     22  O   UNL     1       7.518  -4.398  22.620  0.00  0.00    -0.506 OA
ATOM     23  H   UNL     1       7.543  -3.723  21.903  0.00  0.00    +0.292 HD
ENDBRANCH   5  22
BRANCH  11  24
ATOM     24  O   UNL     1       7.908   0.804  23.202  0.00  0.00    -0.453 OA
BRANCH  24  25
ATOM     25  C   UNL     1       8.918   1.164  24.172  0.00  0.00    +0.340 C 
ATOM     26  O   UNL     1       8.679   2.485  24.648  0.00  0.00    -0.331 OA
ATOM     27  C   UNL     1       9.529   3.589  24.329  0.00  0.00    +0.179 C 
ATOM     28  C   UNL     1      10.863   3.297  23.606  0.00  0.00    +0.177 C 
ATOM     29  C   UNL     1      10.815   2.018  22.778  0.00  0.00    +0.180 C 
ATOM     30  C   UNL     1      10.336   0.876  23.657  0.00  0.00    +0.214 C 
BRANCH  30  31
ATOM     31  O   UNL     1      11.263   0.723  24.751  0.00  0.00    -0.383 OA
ATOM     32  H   UNL     1      11.203   1.492  25.347  0.00  0.00    +0.210 HD
ENDBRANCH  30  31
BRANCH  29  33
ATOM     33  O   UNL     1      10.012   2.233  21.609  0.00  0.00    -0.386 OA
ATOM     34  H   UNL     1      10.181   1.535  20.945  0.00  0.00    +0.210 HD
ENDBRANCH  29  33
BRANCH  28  35
ATOM     35  O   UNL     1      11.289   4.390  22.778  0.00  0.00    -0.386 OA
ATOM     36  H   UNL     1      10.921   4.215  21.885  0.00  0.00    +0.210 HD
ENDBRANCH  28  35
BRANCH  27  37
ATOM     37  C   UNL     1       8.689   4.699  23.672  0.00  0.00    +0.190 C 
BRANCH  37  38
ATOM     38  O   UNL     1       8.202   4.320  22.387  0.00  0.00    -0.392 OA
ATOM     39  H   UNL     1       7.517   3.636  22.541  0.00  0.00    +0.210 HD
ENDBRANCH  37  38
ENDBRANCH  27  37
ENDBRANCH  24  25
ENDBRANCH  11  24
BRANCH   7  40
ATOM     40  O   UNL     1       4.402  -5.606  25.969  0.00  0.00    -0.461 OA
BRANCH  40  41
ATOM     41  C   UNL     1       3.508  -6.346  25.119  0.00  0.00    +0.339 C 
ATOM     42  O   UNL     1       2.700  -5.491  24.308  0.00  0.00    -0.331 OA
ATOM     43  C   UNL     1       1.352  -5.233  24.719  0.00  0.00    +0.179 C 
ATOM     44  C   UNL     1       0.612  -6.529  25.087  0.00  0.00    +0.177 C 
ATOM     45  C   UNL     1       1.326  -7.251  26.233  0.00  0.00    +0.180 C 
ATOM     46  C   UNL     1       2.792  -7.509  25.863  0.00  0.00    +0.214 C 
BRANCH  46  47
ATOM     47  O   UNL     1       2.793  -8.664  24.982  0.00  0.00    -0.383 OA
ATOM     48  H   UNL     1       3.714  -8.753  24.653  0.00  0.00    +0.210 HD
ENDBRANCH  46  47
BRANCH  45  49
ATOM     49  O   UNL     1       1.139  -6.547  27.456  0.00  0.00    -0.386 OA
ATOM     50  H   UNL     1       1.518  -5.652  27.385  0.00  0.00    +0.210 HD
ENDBRANCH  45  49
BRANCH  44  51
ATOM     51  O   UNL     1       0.586  -7.386  23.930  0.00  0.00    -0.386 OA
ATOM     52  H   UNL     1      -0.311  -7.333  23.550  0.00  0.00    +0.210 HD
ENDBRANCH  44  51
BRANCH  43  53
ATOM     53  C   UNL     1       1.241  -4.138  25.797  0.00  0.00    +0.190 C 
BRANCH  53  54
ATOM     54  O   UNL     1       1.434  -2.832  25.268  0.00  0.00    -0.392 OA
ATOM     55  H   UNL     1       2.012  -2.897  24.484  0.00  0.00    +0.210 HD
ENDBRANCH  53  54
ENDBRANCH  43  53
ENDBRANCH  40  41
ENDBRANCH   7  40
TORSDOF 18
ENDMDL
MODEL 4
REMARK VINA RESULT:      -6.7      1.691      2.252
REMARK  Name = 
REMARK  18 active torsions:
REMARK  status: ('A' for Active; 'I' for Inactive)
REMARK    1  A    between atoms: C_3  and  O_54
REMARK    2  A    between atoms: C_4  and  O_53
REMARK    3  A    between atoms: C_6  and  C_7
REMARK    4  A    between atoms: C_8  and  O_36
REMARK    5  A    between atoms: C_12  and  O_35
REMARK    6  A    between atoms: C_14  and  O_18
REMARK    7  A    between atoms: O_18  and  C_19
REMARK    8  A    between atoms: C_21  and  O_34
REMARK    9  A    between atoms: C_23  and  O_33
REMARK   10  A    between atoms: C_25  and  O_32
REMARK   11  A    between atoms: C_27  and  C_30
REMARK   12  A    between atoms: C_30  and  O_31
REMARK   13  A    between atoms: O_36  and  C_37
REMARK   14  A    between atoms: C_39  and  O_52
REMARK   15  A    between atoms: C_41  and  O_51
REMARK   16  A    between atoms: C_43  and  O_50
REMARK   17  A    between atoms: C_45  and  C_48
REMARK   18  A    between atoms: C_48  and  O_49
REMARK                            x       y       z     vdW  Elec       q    Type
REMARK                         _______ _______ _______ _____ _____    ______ ____
ROOT
ATOM      1  C   UNL     1       7.584  -2.046  25.113  0.00  0.00    +0.181 A 
ATOM      2  O   UNL     1       7.726  -0.730  25.557  0.00  0.00    -0.451 OA
ATOM      3  C   UNL     1       8.239   0.222  24.719  0.00  0.00    +0.147 A 
ATOM      4  C   UNL     1       8.856  -0.089  23.525  0.00  0.00    +0.109 A 
ATOM      5  C   UNL     1       9.463   0.927  22.782  0.00  0.00    +0.135 A 
ATOM      6  C   UNL     1       9.438   2.253  23.234  0.00  0.00    +0.092 A 
ATOM      7  C   UNL     1       8.799   2.577  24.438  0.00  0.00    +0.131 A 
ATOM      8  C   UNL     1       8.809  -1.484  23.083  0.00  0.00    +0.238 A 
ATOM      9  O   UNL     1       9.454  -1.845  22.103  0.00  0.00    -0.283 OA
ATOM     10  C   UNL     1       8.152   1.550  25.142  0.00  0.00    +0.093 A 
ATOM     11  C   UNL     1       7.947  -2.437  23.866  0.00  0.00    +0.214 A 
ENDROOT
BRANCH   1  13
ATOM     12  C   UNL     1       5.796  -2.531  26.831  0.00  0.00    +0.015 A 
ATOM     13  C   UNL     1       6.985  -2.920  26.175  0.00  0.00    +0.025 A 
ATOM     14  C   UNL     1       7.590  -4.118  26.596  0.00  0.00    +0.060 A 
ATOM     15  C   UNL     1       6.995  -4.912  27.570  0.00  0.00    +0.159 A 
ATOM     16  C   UNL     1       5.848  -4.493  28.226  0.00  0.00    +0.158 A 
ATOM     17  C   UNL     1       5.240  -3.301  27.864  0.00  0.00    +0.050 A 
BRANCH  16  18
ATOM     18  O   UNL     1       5.366  -5.278  29.232  0.00  0.00    -0.503 OA
ATOM     19  H   UNL     1       5.693  -4.921  30.076  0.00  0.00    +0.292 HD
ENDBRANCH  16  18
BRANCH  15  20
ATOM     20  O   UNL     1       7.559  -6.117  27.876  0.00  0.00    -0.503 OA
ATOM     21  H   UNL     1       8.512  -6.004  27.692  0.00  0.00    +0.292 HD
ENDBRANCH  15  20
ENDBRANCH   1  13
BRANCH   5  22
ATOM     22  O   UNL     1      10.128   0.680  21.611  0.00  0.00    -0.506 OA
ATOM     23  H   UNL     1       9.660   1.142  20.877  0.00  0.00    +0.292 HD
ENDBRANCH   5  22
BRANCH  11  24
ATOM     24  O   UNL     1       7.645  -3.648  23.240  0.00  0.00    -0.453 OA
BRANCH  24  25
ATOM     25  C   UNL     1       6.534  -3.585  22.316  0.00  0.00    +0.340 C 
ATOM     26  O   UNL     1       5.322  -3.376  23.036  0.00  0.00    -0.331 OA
ATOM     27  C   UNL     1       4.312  -4.379  23.159  0.00  0.00    +0.179 C 
ATOM     28  C   UNL     1       4.454  -5.665  22.316  0.00  0.00    +0.177 C 
ATOM     29  C   UNL     1       5.904  -5.985  21.970  0.00  0.00    +0.180 C 
ATOM     30  C   UNL     1       6.541  -4.764  21.330  0.00  0.00    +0.214 C 
BRANCH  30  31
ATOM     31  O   UNL     1       5.806  -4.440  20.132  0.00  0.00    -0.383 OA
ATOM     32  H   UNL     1       5.641  -3.481  20.093  0.00  0.00    +0.210 HD
ENDBRANCH  30  31
BRANCH  29  33
ATOM     33  O   UNL     1       6.584  -6.454  23.142  0.00  0.00    -0.386 OA
ATOM     34  H   UNL     1       6.093  -7.197  23.547  0.00  0.00    +0.210 HD
ENDBRANCH  29  33
BRANCH  28  35
ATOM     35  O   UNL     1       3.848  -6.804  22.946  0.00  0.00    -0.386 OA
ATOM     36  H   UNL     1       3.204  -6.447  23.594  0.00  0.00    +0.210 HD
ENDBRANCH  28  35
BRANCH  27  37
ATOM     37  C   UNL     1       4.035  -4.634  24.652  0.00  0.00    +0.190 C 
BRANCH  37  38
ATOM     38  O   UNL     1       4.846  -5.680  25.180  0.00  0.00    -0.392 OA
ATOM     39  H   UNL     1       5.162  -5.371  26.056  0.00  0.00    +0.210 HD
ENDBRANCH  37  38
ENDBRANCH  27  37
ENDBRANCH  24  25
ENDBRANCH  11  24
BRANCH   7  40
ATOM     40  O   UNL     1       8.894   3.892  24.857  0.00  0.00    -0.461 OA
BRANCH  40  41
ATOM     41  C   UNL     1       8.364   4.865  23.939  0.00  0.00    +0.339 C 
ATOM     42  O   UNL     1       8.271   6.166  24.525  0.00  0.00    -0.331 OA
ATOM     43  C   UNL     1       6.996   6.608  25.005  0.00  0.00    +0.179 C 
ATOM     44  C   UNL     1       5.884   6.372  23.972  0.00  0.00    +0.177 C 
ATOM     45  C   UNL     1       5.770   4.883  23.632  0.00  0.00    +0.180 C 
ATOM     46  C   UNL     1       7.125   4.345  23.156  0.00  0.00    +0.214 C 
BRANCH  46  47
ATOM     47  O   UNL     1       7.269   4.767  21.773  0.00  0.00    -0.383 OA
ATOM     48  H   UNL     1       8.235   4.837  21.610  0.00  0.00    +0.210 HD
ENDBRANCH  46  47
BRANCH  45  49
ATOM     49  O   UNL     1       5.199   4.168  24.723  0.00  0.00    -0.386 OA
ATOM     50  H   UNL     1       4.721   4.782  25.309  0.00  0.00    +0.210 HD
ENDBRANCH  45  49
BRANCH  44  51
ATOM     51  O   UNL     1       6.207   7.107  22.776  0.00  0.00    -0.386 OA
ATOM     52  H   UNL     1       7.099   7.483  22.899  0.00  0.00    +0.210 HD
ENDBRANCH  44  51
BRANCH  43  53
ATOM     53  C   UNL     1       6.651   6.070  26.408  0.00  0.00    +0.190 C 
BRANCH  53  54
ATOM     54  O   UNL     1       5.306   6.342  26.779  0.00  0.00    -0.392 OA
ATOM     55  H   UNL     1       5.201   7.307  26.882  0.00  0.00    +0.210 HD
ENDBRANCH  53  54
ENDBRANCH  43  53
ENDBRANCH  40  41
ENDBRANCH   7  40
TORSDOF 18
ENDMDL
MODEL 5
REMARK VINA RESULT:      -6.7      1.985      4.708
REMARK  Name = 
REMARK  18 active torsions:
REMARK  status: ('A' for Active; 'I' for Inactive)
REMARK    1  A    between atoms: C_3  and  O_54
REMARK    2  A    between atoms: C_4  and  O_53
REMARK    3  A    between atoms: C_6  and  C_7
REMARK    4  A    between atoms: C_8  and  O_36
REMARK    5  A    between atoms: C_12  and  O_35
REMARK    6  A    between atoms: C_14  and  O_18
REMARK    7  A    between atoms: O_18  and  C_19
REMARK    8  A    between atoms: C_21  and  O_34
REMARK    9  A    between atoms: C_23  and  O_33
REMARK   10  A    between atoms: C_25  and  O_32
REMARK   11  A    between atoms: C_27  and  C_30
REMARK   12  A    between atoms: C_30  and  O_31
REMARK   13  A    between atoms: O_36  and  C_37
REMARK   14  A    between atoms: C_39  and  O_52
REMARK   15  A    between atoms: C_41  and  O_51
REMARK   16  A    between atoms: C_43  and  O_50
REMARK   17  A    between atoms: C_45  and  C_48
REMARK   18  A    between atoms: C_48  and  O_49
REMARK                            x       y       z     vdW  Elec       q    Type
REMARK                         _______ _______ _______ _____ _____    ______ ____
ROOT
ATOM      1  C   UNL     1       5.769  -1.952  24.681  0.00  0.00    +0.181 A 
ATOM      2  O   UNL     1       6.678  -0.969  24.286  0.00  0.00    -0.451 OA
ATOM      3  C   UNL     1       6.764   0.203  24.987  0.00  0.00    +0.147 A 
ATOM      4  C   UNL     1       5.830   0.580  25.929  0.00  0.00    +0.109 A 
ATOM      5  C   UNL     1       5.918   1.845  26.514  0.00  0.00    +0.135 A 
ATOM      6  C   UNL     1       6.952   2.723  26.162  0.00  0.00    +0.092 A 
ATOM      7  C   UNL     1       7.913   2.339  25.217  0.00  0.00    +0.131 A 
ATOM      8  C   UNL     1       4.801  -0.398  26.290  0.00  0.00    +0.238 A 
ATOM      9  O   UNL     1       3.866  -0.074  27.016  0.00  0.00    -0.283 OA
ATOM     10  C   UNL     1       7.834   1.045  24.680  0.00  0.00    +0.093 A 
ATOM     11  C   UNL     1       4.940  -1.793  25.744  0.00  0.00    +0.214 A 
ENDROOT
BRANCH   1  13
ATOM     12  C   UNL     1       7.054  -3.472  23.125  0.00  0.00    +0.015 A 
ATOM     13  C   UNL     1       5.851  -3.160  23.796  0.00  0.00    +0.025 A 
ATOM     14  C   UNL     1       4.745  -3.996  23.556  0.00  0.00    +0.060 A 
ATOM     15  C   UNL     1       4.864  -5.119  22.745  0.00  0.00    +0.159 A 
ATOM     16  C   UNL     1       6.044  -5.385  22.067  0.00  0.00    +0.158 A 
ATOM     17  C   UNL     1       7.147  -4.565  22.250  0.00  0.00    +0.050 A 
BRANCH  16  18
ATOM     18  O   UNL     1       6.066  -6.453  21.219  0.00  0.00    -0.503 OA
ATOM     19  H   UNL     1       6.086  -7.264  21.757  0.00  0.00    +0.292 HD
ENDBRANCH  16  18
BRANCH  15  20
ATOM     20  O   UNL     1       3.798  -5.962  22.621  0.00  0.00    -0.503 OA
ATOM     21  H   UNL     1       4.186  -6.832  22.402  0.00  0.00    +0.292 HD
ENDBRANCH  15  20
ENDBRANCH   1  13
BRANCH   5  22
ATOM     22  O   UNL     1       5.000   2.297  27.424  0.00  0.00    -0.506 OA
ATOM     23  H   UNL     1       4.134   2.414  26.969  0.00  0.00    +0.292 HD
ENDBRANCH   5  22
BRANCH  11  24
ATOM     24  O   UNL     1       4.167  -2.776  26.365  0.00  0.00    -0.453 OA
BRANCH  24  25
ATOM     25  C   UNL     1       4.658  -3.197  27.658  0.00  0.00    +0.340 C 
ATOM     26  O   UNL     1       5.987  -3.694  27.529  0.00  0.00    -0.331 OA
ATOM     27  C   UNL     1       6.316  -5.075  27.686  0.00  0.00    +0.179 C 
ATOM     28  C   UNL     1       5.221  -6.032  28.207  0.00  0.00    +0.177 C 
ATOM     29  C   UNL     1       3.813  -5.544  27.886  0.00  0.00    +0.180 C 
ATOM     30  C   UNL     1       3.659  -4.116  28.378  0.00  0.00    +0.214 C 
BRANCH  30  31
ATOM     31  O   UNL     1       3.875  -4.099  29.804  0.00  0.00    -0.383 OA
ATOM     32  H   UNL     1       3.816  -5.005  30.159  0.00  0.00    +0.210 HD
ENDBRANCH  30  31
BRANCH  29  33
ATOM     33  O   UNL     1       3.556  -5.712  26.485  0.00  0.00    -0.386 OA
ATOM     34  H   UNL     1       3.474  -4.841  26.046  0.00  0.00    +0.210 HD
ENDBRANCH  29  33
BRANCH  28  35
ATOM     35  O   UNL     1       5.387  -7.373  27.722  0.00  0.00    -0.386 OA
ATOM     36  H   UNL     1       4.536  -7.618  27.301  0.00  0.00    +0.210 HD
ENDBRANCH  28  35
BRANCH  27  37
ATOM     37  C   UNL     1       7.029  -5.571  26.413  0.00  0.00    +0.190 C 
BRANCH  37  38
ATOM     38  O   UNL     1       8.390  -5.915  26.656  0.00  0.00    -0.392 OA
ATOM     39  H   UNL     1       8.821  -5.109  27.013  0.00  0.00    +0.210 HD
ENDBRANCH  37  38
ENDBRANCH  27  37
ENDBRANCH  24  25
ENDBRANCH  11  24
BRANCH   7  40
ATOM     40  O   UNL     1       8.849   3.294  24.860  0.00  0.00    -0.461 OA
BRANCH  40  41
ATOM     41  C   UNL     1       8.621   3.927  23.589  0.00  0.00    +0.339 C 
ATOM     42  O   UNL     1       9.516   5.018  23.359  0.00  0.00    -0.331 OA
ATOM     43  C   UNL     1       9.041   6.350  23.584  0.00  0.00    +0.179 C 
ATOM     44  C   UNL     1       7.677   6.588  22.919  0.00  0.00    +0.177 C 
ATOM     45  C   UNL     1       6.631   5.614  23.467  0.00  0.00    +0.180 C 
ATOM     46  C   UNL     1       7.113   4.168  23.294  0.00  0.00    +0.214 C 
BRANCH  46  47
ATOM     47  O   UNL     1       6.874   3.822  21.905  0.00  0.00    -0.383 OA
ATOM     48  H   UNL     1       7.679   4.095  21.414  0.00  0.00    +0.210 HD
ENDBRANCH  46  47
BRANCH  45  49
ATOM     49  O   UNL     1       6.278   5.965  24.801  0.00  0.00    -0.386 OA
ATOM     50  H   UNL     1       7.004   5.735  25.408  0.00  0.00    +0.210 HD
ENDBRANCH  45  49
BRANCH  44  51
ATOM     51  O   UNL     1       7.818   6.382  21.500  0.00  0.00    -0.386 OA
ATOM     52  H   UNL     1       7.860   5.419  21.350  0.00  0.00    +0.210 HD
ENDBRANCH  44  51
BRANCH  43  53
ATOM     53  C   UNL     1       9.079   6.770  25.066  0.00  0.00    +0.190 C 
BRANCH  53  54
ATOM     54  O   UNL     1       9.074   5.655  25.949  0.00  0.00    -0.392 OA
ATOM     55  H   UNL     1       9.393   5.950  26.823  0.00  0.00    +0.210 HD
ENDBRANCH  53  54
ENDBRANCH  43  53
ENDBRANCH  40  41
ENDBRANCH   7  40
TORSDOF 18
ENDMDL
MODEL 6
REMARK VINA RESULT:      -6.7      2.235      5.269
REMARK  Name = 
REMARK  18 active torsions:
REMARK  status: ('A' for Active; 'I' for Inactive)
REMARK    1  A    between atoms: C_3  and  O_54
REMARK    2  A    between atoms: C_4  and  O_53
REMARK    3  A    between atoms: C_6  and  C_7
REMARK    4  A    between atoms: C_8  and  O_36
REMARK    5  A    between atoms: C_12  and  O_35
REMARK    6  A    between atoms: C_14  and  O_18
REMARK    7  A    between atoms: O_18  and  C_19
REMARK    8  A    between atoms: C_21  and  O_34
REMARK    9  A    between atoms: C_23  and  O_33
REMARK   10  A    between atoms: C_25  and  O_32
REMARK   11  A    between atoms: C_27  and  C_30
REMARK   12  A    between atoms: C_30  and  O_31
REMARK   13  A    between atoms: O_36  and  C_37
REMARK   14  A    between atoms: C_39  and  O_52
REMARK   15  A    between atoms: C_41  and  O_51
REMARK   16  A    between atoms: C_43  and  O_50
REMARK   17  A    between atoms: C_45  and  C_48
REMARK   18  A    between atoms: C_48  and  O_49
REMARK                            x       y       z     vdW  Elec       q    Type
REMARK                         _______ _______ _______ _____ _____    ______ ____
ROOT
ATOM      1  C   UNL     1       4.817  -2.421  25.290  0.00  0.00    +0.181 A 
ATOM      2  O   UNL     1       5.600  -1.307  24.983  0.00  0.00    -0.451 OA
ATOM      3  C   UNL     1       5.467  -0.156  25.711  0.00  0.00    +0.147 A 
ATOM      4  C   UNL     1       4.423   0.055  26.588  0.00  0.00    +0.109 A 
ATOM      5  C   UNL     1       4.287   1.302  27.203  0.00  0.00    +0.135 A 
ATOM      6  C   UNL     1       5.205   2.328  26.946  0.00  0.00    +0.092 A 
ATOM      7  C   UNL     1       6.276   2.114  26.067  0.00  0.00    +0.131 A 
ATOM      8  C   UNL     1       3.524  -1.070  26.853  0.00  0.00    +0.238 A 
ATOM      9  O   UNL     1       2.503  -0.904  27.514  0.00  0.00    -0.283 OA
ATOM     10  C   UNL     1       6.423   0.839  25.501  0.00  0.00    +0.093 A 
ATOM     11  C   UNL     1       3.901  -2.414  26.292  0.00  0.00    +0.214 A 
ENDROOT
BRANCH   1  13
ATOM     12  C   UNL     1       6.475  -3.874  24.056  0.00  0.00    +0.015 A 
ATOM     13  C   UNL     1       5.135  -3.578  24.390  0.00  0.00    +0.025 A 
ATOM     14  C   UNL     1       4.135  -4.378  23.808  0.00  0.00    +0.060 A 
ATOM     15  C   UNL     1       4.469  -5.455  22.995  0.00  0.00    +0.159 A 
ATOM     16  C   UNL     1       5.788  -5.704  22.650  0.00  0.00    +0.158 A 
ATOM     17  C   UNL     1       6.801  -4.917  23.176  0.00  0.00    +0.050 A 
BRANCH  16  18
ATOM     18  O   UNL     1       6.038  -6.723  21.778  0.00  0.00    -0.503 OA
ATOM     19  H   UNL     1       5.212  -7.221  21.652  0.00  0.00    +0.292 HD
ENDBRANCH  16  18
BRANCH  15  20
ATOM     20  O   UNL     1       3.474  -6.269  22.534  0.00  0.00    -0.503 OA
ATOM     21  H   UNL     1       2.643  -5.833  22.807  0.00  0.00    +0.292 HD
ENDBRANCH  15  20
ENDBRANCH   1  13
BRANCH   5  22
ATOM     22  O   UNL     1       3.251   1.591  28.051  0.00  0.00    -0.506 OA
ATOM     23  H   UNL     1       3.311   1.003  28.838  0.00  0.00    +0.292 HD
ENDBRANCH   5  22
BRANCH  11  24
ATOM     24  O   UNL     1       3.236  -3.515  26.834  0.00  0.00    -0.453 OA
BRANCH  24  25
ATOM     25  C   UNL     1       3.626  -3.844  28.187  0.00  0.00    +0.340 C 
ATOM     26  O   UNL     1       5.046  -3.933  28.270  0.00  0.00    -0.331 OA
ATOM     27  C   UNL     1       5.734  -5.170  28.470  0.00  0.00    +0.179 C 
ATOM     28  C   UNL     1       4.898  -6.425  28.804  0.00  0.00    +0.177 C 
ATOM     29  C   UNL     1       3.474  -6.344  28.265  0.00  0.00    +0.180 C 
ATOM     30  C   UNL     1       2.840  -5.046  28.734  0.00  0.00    +0.214 C 
BRANCH  30  31
ATOM     31  O   UNL     1       2.824  -5.041  30.176  0.00  0.00    -0.383 OA
ATOM     32  H   UNL     1       2.533  -5.910  30.508  0.00  0.00    +0.210 HD
ENDBRANCH  30  31
BRANCH  29  33
ATOM     33  O   UNL     1       3.492  -6.505  26.840  0.00  0.00    -0.386 OA
ATOM     34  H   UNL     1       3.544  -7.453  26.604  0.00  0.00    +0.210 HD
ENDBRANCH  29  33
BRANCH  28  35
ATOM     35  O   UNL     1       5.517  -7.636  28.345  0.00  0.00    -0.386 OA
ATOM     36  H   UNL     1       6.420  -7.642  28.727  0.00  0.00    +0.210 HD
ENDBRANCH  28  35
BRANCH  27  37
ATOM     37  C   UNL     1       6.744  -5.375  27.325  0.00  0.00    +0.190 C 
BRANCH  37  38
ATOM     38  O   UNL     1       7.881  -6.128  27.737  0.00  0.00    -0.392 OA
ATOM     39  H   UNL     1       7.769  -7.028  27.365  0.00  0.00    +0.210 HD
ENDBRANCH  37  38
ENDBRANCH  27  37
ENDBRANCH  24  25
ENDBRANCH  11  24
BRANCH   7  40
ATOM     40  O   UNL     1       7.086   3.203  25.799  0.00  0.00    -0.461 OA
BRANCH  40  41
ATOM     41  C   UNL     1       6.550   4.146  24.854  0.00  0.00    +0.339 C 
ATOM     42  O   UNL     1       6.015   3.504  23.695  0.00  0.00    -0.331 OA
ATOM     43  C   UNL     1       6.811   3.468  22.505  0.00  0.00    +0.179 C 
ATOM     44  C   UNL     1       7.394   4.850  22.168  0.00  0.00    +0.177 C 
ATOM     45  C   UNL     1       8.276   5.357  23.312  0.00  0.00    +0.180 C 
ATOM     46  C   UNL     1       7.483   5.369  24.625  0.00  0.00    +0.214 C 
BRANCH  46  47
ATOM     47  O   UNL     1       6.650   6.558  24.587  0.00  0.00    -0.383 OA
ATOM     48  H   UNL     1       7.232   7.305  24.846  0.00  0.00    +0.210 HD
ENDBRANCH  46  47
BRANCH  45  49
ATOM     49  O   UNL     1       9.494   4.621  23.362  0.00  0.00    -0.386 OA
ATOM     50  H   UNL     1       9.709   4.273  22.478  0.00  0.00    +0.210 HD
ENDBRANCH  45  49
BRANCH  44  51
ATOM     51  O   UNL     1       6.304   5.770  21.966  0.00  0.00    -0.386 OA
ATOM     52  H   UNL     1       6.452   6.211  21.109  0.00  0.00    +0.210 HD
ENDBRANCH  44  51
BRANCH  43  53
ATOM     53  C   UNL     1       7.865   2.344  22.508  0.00  0.00    +0.190 C 
BRANCH  53  54
ATOM     54  O   UNL     1       8.835   2.505  21.480  0.00  0.00    -0.392 OA
ATOM     55  H   UNL     1       8.915   3.455  21.274  0.00  0.00    +0.210 HD
ENDBRANCH  53  54
ENDBRANCH  43  53
ENDBRANCH  40  41
ENDBRANCH   7  40
TORSDOF 18
ENDMDL
MODEL 7
REMARK VINA RESULT:      -6.6      1.507      2.492
REMARK  Name = 
REMARK  18 active torsions:
REMARK  status: ('A' for Active; 'I' for Inactive)
REMARK    1  A    between atoms: C_3  and  O_54
REMARK    2  A    between atoms: C_4  and  O_53
REMARK    3  A    between atoms: C_6  and  C_7
REMARK    4  A    between atoms: C_8  and  O_36
REMARK    5  A    between atoms: C_12  and  O_35
REMARK    6  A    between atoms: C_14  and  O_18
REMARK    7  A    between atoms: O_18  and  C_19
REMARK    8  A    between atoms: C_21  and  O_34
REMARK    9  A    between atoms: C_23  and  O_33
REMARK   10  A    between atoms: C_25  and  O_32
REMARK   11  A    between atoms: C_27  and  C_30
REMARK   12  A    between atoms: C_30  and  O_31
REMARK   13  A    between atoms: O_36  and  C_37
REMARK   14  A    between atoms: C_39  and  O_52
REMARK   15  A    between atoms: C_41  and  O_51
REMARK   16  A    between atoms: C_43  and  O_50
REMARK   17  A    between atoms: C_45  and  C_48
REMARK   18  A    between atoms: C_48  and  O_49
REMARK                            x       y       z     vdW  Elec       q    Type
REMARK                         _______ _______ _______ _____ _____    ______ ____
ROOT
ATOM      1  C   UNL     1       7.839  -2.848  25.529  0.00  0.00    +0.181 A 
ATOM      2  O   UNL     1       7.829  -1.518  25.951  0.00  0.00    -0.451 OA
ATOM      3  C   UNL     1       8.338  -0.539  25.140  0.00  0.00    +0.147 A 
ATOM      4  C   UNL     1       9.089  -0.817  24.017  0.00  0.00    +0.109 A 
ATOM      5  C   UNL     1       9.677   0.233  23.309  0.00  0.00    +0.135 A 
ATOM      6  C   UNL     1       9.499   1.560  23.723  0.00  0.00    +0.092 A 
ATOM      7  C   UNL     1       8.725   1.849  24.854  0.00  0.00    +0.131 A 
ATOM      8  C   UNL     1       9.199  -2.219  23.607  0.00  0.00    +0.238 A 
ATOM      9  O   UNL     1       9.961  -2.541  22.700  0.00  0.00    -0.283 OA
ATOM     10  C   UNL     1       8.102   0.783  25.520  0.00  0.00    +0.093 A 
ATOM     11  C   UNL     1       8.349  -3.228  24.330  0.00  0.00    +0.214 A 
ENDROOT
BRANCH   1  13
ATOM     12  C   UNL     1       7.822  -4.985  26.876  0.00  0.00    +0.015 A 
ATOM     13  C   UNL     1       7.216  -3.751  26.552  0.00  0.00    +0.025 A 
ATOM     14  C   UNL     1       6.000  -3.444  27.188  0.00  0.00    +0.060 A 
ATOM     15  C   UNL     1       5.463  -4.297  28.147  0.00  0.00    +0.159 A 
ATOM     16  C   UNL     1       6.056  -5.520  28.422  0.00  0.00    +0.158 A 
ATOM     17  C   UNL     1       7.237  -5.875  27.790  0.00  0.00    +0.050 A 
BRANCH  16  18
ATOM     18  O   UNL     1       5.429  -6.347  29.308  0.00  0.00    -0.503 OA
ATOM     19  H   UNL     1       5.984  -7.138  29.426  0.00  0.00    +0.292 HD
ENDBRANCH  16  18
BRANCH  15  20
ATOM     20  O   UNL     1       4.337  -3.915  28.816  0.00  0.00    -0.503 OA
ATOM     21  H   UNL     1       4.505  -4.150  29.750  0.00  0.00    +0.292 HD
ENDBRANCH  15  20
ENDBRANCH   1  13
BRANCH   5  22
ATOM     22  O   UNL     1      10.468   0.024  22.210  0.00  0.00    -0.506 OA
ATOM     23  H   UNL     1      11.349  -0.298  22.510  0.00  0.00    +0.292 HD
ENDBRANCH   5  22
BRANCH  11  24
ATOM     24  O   UNL     1       8.209  -4.471  23.709  0.00  0.00    -0.453 OA
BRANCH  24  25
ATOM     25  C   UNL     1       7.357  -4.464  22.540  0.00  0.00    +0.340 C 
ATOM     26  O   UNL     1       6.392  -3.422  22.654  0.00  0.00    -0.331 OA
ATOM     27  C   UNL     1       5.000  -3.675  22.857  0.00  0.00    +0.179 C 
ATOM     28  C   UNL     1       4.500  -5.133  22.752  0.00  0.00    +0.177 C 
ATOM     29  C   UNL     1       5.586  -6.152  23.078  0.00  0.00    +0.180 C 
ATOM     30  C   UNL     1       6.808  -5.864  22.224  0.00  0.00    +0.214 C 
BRANCH  30  31
ATOM     31  O   UNL     1       6.430  -5.970  20.836  0.00  0.00    -0.383 OA
ATOM     32  H   UNL     1       6.300  -5.081  20.459  0.00  0.00    +0.210 HD
ENDBRANCH  30  31
BRANCH  29  33
ATOM     33  O   UNL     1       5.842  -6.144  24.489  0.00  0.00    -0.386 OA
ATOM     34  H   UNL     1       5.177  -6.685  24.960  0.00  0.00    +0.210 HD
ENDBRANCH  29  33
BRANCH  28  35
ATOM     35  O   UNL     1       3.348  -5.379  23.573  0.00  0.00    -0.386 OA
ATOM     36  H   UNL     1       3.329  -4.658  24.238  0.00  0.00    +0.210 HD
ENDBRANCH  28  35
BRANCH  27  37
ATOM     37  C   UNL     1       4.535  -2.943  24.130  0.00  0.00    +0.190 C 
BRANCH  37  38
ATOM     38  O   UNL     1       5.126  -1.652  24.256  0.00  0.00    -0.392 OA
ATOM     39  H   UNL     1       5.575  -1.467  23.405  0.00  0.00    +0.210 HD
ENDBRANCH  37  38
ENDBRANCH  27  37
ENDBRANCH  24  25
ENDBRANCH  11  24
BRANCH   7  40
ATOM     40  O   UNL     1       8.671   3.175  25.247  0.00  0.00    -0.461 OA
BRANCH  40  41
ATOM     41  C   UNL     1       7.658   3.963  24.598  0.00  0.00    +0.339 C 
ATOM     42  O   UNL     1       8.106   4.497  23.350  0.00  0.00    -0.331 OA
ATOM     43  C   UNL     1       8.540   5.862  23.307  0.00  0.00    +0.179 C 
ATOM     44  C   UNL     1       7.537   6.800  23.997  0.00  0.00    +0.177 C 
ATOM     45  C   UNL     1       7.352   6.408  25.465  0.00  0.00    +0.180 C 
ATOM     46  C   UNL     1       6.933   4.936  25.571  0.00  0.00    +0.214 C 
BRANCH  46  47
ATOM     47  O   UNL     1       5.515   4.893  25.263  0.00  0.00    -0.383 OA
ATOM     48  H   UNL     1       5.073   5.447  25.942  0.00  0.00    +0.210 HD
ENDBRANCH  46  47
BRANCH  45  49
ATOM     49  O   UNL     1       8.511   6.749  26.218  0.00  0.00    -0.386 OA
ATOM     50  H   UNL     1       9.127   7.264  25.666  0.00  0.00    +0.210 HD
ENDBRANCH  45  49
BRANCH  44  51
ATOM     51  O   UNL     1       6.271   6.696  23.317  0.00  0.00    -0.386 OA
ATOM     52  H   UNL     1       6.098   5.747  23.171  0.00  0.00    +0.210 HD
ENDBRANCH  44  51
BRANCH  43  53
ATOM     53  C   UNL     1       9.990   6.058  23.789  0.00  0.00    +0.190 C 
BRANCH  53  54
ATOM     54  O   UNL     1      10.887   5.117  23.212  0.00  0.00    -0.392 OA
ATOM     55  H   UNL     1      11.773   5.255  23.599  0.00  0.00    +0.210 HD
ENDBRANCH  53  54
ENDBRANCH  43  53
ENDBRANCH  40  41
ENDBRANCH   7  40
TORSDOF 18
ENDMDL
MODEL 8
REMARK VINA RESULT:      -6.5      2.227      9.643
REMARK  Name = 
REMARK  18 active torsions:
REMARK  status: ('A' for Active; 'I' for Inactive)
REMARK    1  A    between atoms: C_3  and  O_54
REMARK    2  A    between atoms: C_4  and  O_53
REMARK    3  A    between atoms: C_6  and  C_7
REMARK    4  A    between atoms: C_8  and  O_36
REMARK    5  A    between atoms: C_12  and  O_35
REMARK    6  A    between atoms: C_14  and  O_18
REMARK    7  A    between atoms: O_18  and  C_19
REMARK    8  A    between atoms: C_21  and  O_34
REMARK    9  A    between atoms: C_23  and  O_33
REMARK   10  A    between atoms: C_25  and  O_32
REMARK   11  A    between atoms: C_27  and  C_30
REMARK   12  A    between atoms: C_30  and  O_31
REMARK   13  A    between atoms: O_36  and  C_37
REMARK   14  A    between atoms: C_39  and  O_52
REMARK   15  A    between atoms: C_41  and  O_51
REMARK   16  A    between atoms: C_43  and  O_50
REMARK   17  A    between atoms: C_45  and  C_48
REMARK   18  A    between atoms: C_48  and  O_49
REMARK                            x       y       z     vdW  Elec       q    Type
REMARK                         _______ _______ _______ _____ _____    ______ ____
ROOT
ATOM      1  C   UNL     1       6.622   1.771  22.976  0.00  0.00    +0.181 A 
ATOM      2  O   UNL     1       6.062   0.538  23.311  0.00  0.00    -0.451 OA
ATOM      3  C   UNL     1       6.811  -0.603  23.213  0.00  0.00    +0.147 A 
ATOM      4  C   UNL     1       8.029  -0.642  22.567  0.00  0.00    +0.109 A 
ATOM      5  C   UNL     1       8.678  -1.868  22.402  0.00  0.00    +0.135 A 
ATOM      6  C   UNL     1       8.108  -3.049  22.896  0.00  0.00    +0.092 A 
ATOM      7  C   UNL     1       6.878  -3.013  23.567  0.00  0.00    +0.131 A 
ATOM      8  C   UNL     1       8.596   0.630  22.114  0.00  0.00    +0.238 A 
ATOM      9  O   UNL     1       9.605   0.645  21.416  0.00  0.00    -0.283 OA
ATOM     10  C   UNL     1       6.270  -1.764  23.767  0.00  0.00    +0.093 A 
ATOM     11  C   UNL     1       7.901   1.896  22.538  0.00  0.00    +0.214 A 
ENDROOT
BRANCH   1  13
ATOM     12  C   UNL     1       4.564   2.742  24.075  0.00  0.00    +0.015 A 
ATOM     13  C   UNL     1       5.643   2.890  23.175  0.00  0.00    +0.025 A 
ATOM     14  C   UNL     1       5.719   4.095  22.454  0.00  0.00    +0.060 A 
ATOM     15  C   UNL     1       4.804   5.118  22.680  0.00  0.00    +0.159 A 
ATOM     16  C   UNL     1       3.732   4.937  23.541  0.00  0.00    +0.158 A 
ATOM     17  C   UNL     1       3.603   3.749  24.244  0.00  0.00    +0.050 A 
BRANCH  16  18
ATOM     18  O   UNL     1       2.823   5.948  23.650  0.00  0.00    -0.503 OA
ATOM     19  H   UNL     1       2.208   5.882  22.899  0.00  0.00    +0.292 HD
ENDBRANCH  16  18
BRANCH  15  20
ATOM     20  O   UNL     1       4.973   6.311  22.038  0.00  0.00    -0.503 OA
ATOM     21  H   UNL     1       5.941   6.428  21.972  0.00  0.00    +0.292 HD
ENDBRANCH  15  20
ENDBRANCH   1  13
BRANCH   5  22
ATOM     22  O   UNL     1       9.868  -1.983  21.734  0.00  0.00    -0.506 OA
ATOM     23  H   UNL     1      10.580  -2.177  22.385  0.00  0.00    +0.292 HD
ENDBRANCH   5  22
BRANCH  11  24
ATOM     24  O   UNL     1       8.633   3.075  22.396  0.00  0.00    -0.453 OA
BRANCH  24  25
ATOM     25  C   UNL     1       9.573   3.331  23.465  0.00  0.00    +0.340 C 
ATOM     26  O   UNL     1       8.879   3.413  24.706  0.00  0.00    -0.331 OA
ATOM     27  C   UNL     1       8.730   4.636  25.430  0.00  0.00    +0.179 C 
ATOM     28  C   UNL     1       9.520   5.872  24.946  0.00  0.00    +0.177 C 
ATOM     29  C   UNL     1       9.834   5.822  23.455  0.00  0.00    +0.180 C 
ATOM     30  C   UNL     1      10.512   4.501  23.135  0.00  0.00    +0.214 C 
BRANCH  30  31
ATOM     31  O   UNL     1      11.732   4.418  23.901  0.00  0.00    -0.383 OA
ATOM     32  H   UNL     1      11.588   4.780  24.794  0.00  0.00    +0.210 HD
ENDBRANCH  30  31
BRANCH  29  33
ATOM     33  O   UNL     1       8.635   6.061  22.705  0.00  0.00    -0.386 OA
ATOM     34  H   UNL     1       7.915   6.356  23.298  0.00  0.00    +0.210 HD
ENDBRANCH  29  33
BRANCH  28  35
ATOM     35  O   UNL     1       8.854   7.106  25.255  0.00  0.00    -0.386 OA
ATOM     36  H   UNL     1       8.223   7.266  24.522  0.00  0.00    +0.210 HD
ENDBRANCH  28  35
BRANCH  27  37
ATOM     37  C   UNL     1       7.232   4.903  25.667  0.00  0.00    +0.190 C 
BRANCH  37  38
ATOM     38  O   UNL     1       6.967   5.360  26.991  0.00  0.00    -0.392 OA
ATOM     39  H   UNL     1       7.252   4.643  27.595  0.00  0.00    +0.210 HD
ENDBRANCH  37  38
ENDBRANCH  27  37
ENDBRANCH  24  25
ENDBRANCH  11  24
BRANCH   7  40
ATOM     40  O   UNL     1       6.342  -4.230  23.947  0.00  0.00    -0.461 OA
BRANCH  40  41
ATOM     41  C   UNL     1       4.927  -4.221  24.204  0.00  0.00    +0.339 C 
ATOM     42  O   UNL     1       4.630  -4.117  25.598  0.00  0.00    -0.331 OA
ATOM     43  C   UNL     1       4.283  -5.309  26.313  0.00  0.00    +0.179 C 
ATOM     44  C   UNL     1       3.219  -6.130  25.568  0.00  0.00    +0.177 C 
ATOM     45  C   UNL     1       3.725  -6.540  24.183  0.00  0.00    +0.180 C 
ATOM     46  C   UNL     1       4.158  -5.301  23.390  0.00  0.00    +0.214 C 
BRANCH  46  47
ATOM     47  O   UNL     1       2.939  -4.691  22.889  0.00  0.00    -0.383 OA
ATOM     48  H   UNL     1       2.563  -4.181  23.639  0.00  0.00    +0.210 HD
ENDBRANCH  46  47
BRANCH  45  49
ATOM     49  O   UNL     1       4.725  -7.548  24.300  0.00  0.00    -0.386 OA
ATOM     50  H   UNL     1       5.463  -7.355  23.693  0.00  0.00    +0.210 HD
ENDBRANCH  45  49
BRANCH  44  51
ATOM     51  O   UNL     1       2.037  -5.320  25.419  0.00  0.00    -0.386 OA
ATOM     52  H   UNL     1       1.677  -5.494  24.529  0.00  0.00    +0.210 HD
ENDBRANCH  44  51
BRANCH  43  53
ATOM     53  C   UNL     1       5.505  -6.141  26.745  0.00  0.00    +0.190 C 
BRANCH  53  54
ATOM     54  O   UNL     1       5.137  -7.351  27.396  0.00  0.00    -0.392 OA
ATOM     55  H   UNL     1       5.930  -7.915  27.473  0.00  0.00    +0.210 HD
ENDBRANCH  53  54
ENDBRANCH  43  53
ENDBRANCH  40  41
ENDBRANCH   7  40
TORSDOF 18
ENDMDL
MODEL 9
REMARK VINA RESULT:      -6.5      1.773      3.125
REMARK  Name = 
REMARK  18 active torsions:
REMARK  status: ('A' for Active; 'I' for Inactive)
REMARK    1  A    between atoms: C_3  and  O_54
REMARK    2  A    between atoms: C_4  and  O_53
REMARK    3  A    between atoms: C_6  and  C_7
REMARK    4  A    between atoms: C_8  and  O_36
REMARK    5  A    between atoms: C_12  and  O_35
REMARK    6  A    between atoms: C_14  and  O_18
REMARK    7  A    between atoms: O_18  and  C_19
REMARK    8  A    between atoms: C_21  and  O_34
REMARK    9  A    between atoms: C_23  and  O_33
REMARK   10  A    between atoms: C_25  and  O_32
REMARK   11  A    between atoms: C_27  and  C_30
REMARK   12  A    between atoms: C_30  and  O_31
REMARK   13  A    between atoms: O_36  and  C_37
REMARK   14  A    between atoms: C_39  and  O_52
REMARK   15  A    between atoms: C_41  and  O_51
REMARK   16  A    between atoms: C_43  and  O_50
REMARK   17  A    between atoms: C_45  and  C_48
REMARK   18  A    between atoms: C_48  and  O_49
REMARK                            x       y       z     vdW  Elec       q    Type
REMARK                         _______ _______ _______ _____ _____    ______ ____
ROOT
ATOM      1  C   UNL     1       6.209  -1.177  24.742  0.00  0.00    +0.181 A 
ATOM      2  O   UNL     1       5.891   0.177  24.855  0.00  0.00    -0.451 OA
ATOM      3  C   UNL     1       6.268   1.053  23.872  0.00  0.00    +0.147 A 
ATOM      4  C   UNL     1       7.163   0.717  22.878  0.00  0.00    +0.109 A 
ATOM      5  C   UNL     1       7.592   1.700  21.983  0.00  0.00    +0.135 A 
ATOM      6  C   UNL     1       7.112   3.012  22.081  0.00  0.00    +0.092 A 
ATOM      7  C   UNL     1       6.191   3.355  23.080  0.00  0.00    +0.131 A 
ATOM      8  C   UNL     1       7.591  -0.681  22.797  0.00  0.00    +0.238 A 
ATOM      9  O   UNL     1       8.486  -1.010  22.024  0.00  0.00    -0.283 OA
ATOM     10  C   UNL     1       5.735   2.341  23.936  0.00  0.00    +0.093 A 
ATOM     11  C   UNL     1       6.897  -1.678  23.685  0.00  0.00    +0.214 A 
ENDROOT
BRANCH   1  13
ATOM     12  C   UNL     1       4.439  -1.634  26.487  0.00  0.00    +0.015 A 
ATOM     13  C   UNL     1       5.686  -1.961  25.909  0.00  0.00    +0.025 A 
ATOM     14  C   UNL     1       6.418  -3.004  26.504  0.00  0.00    +0.060 A 
ATOM     15  C   UNL     1       5.892  -3.722  27.573  0.00  0.00    +0.159 A 
ATOM     16  C   UNL     1       4.683  -3.360  28.148  0.00  0.00    +0.158 A 
ATOM     17  C   UNL     1       3.948  -2.315  27.611  0.00  0.00    +0.050 A 
BRANCH  16  18
ATOM     18  O   UNL     1       4.268  -4.051  29.248  0.00  0.00    -0.503 OA
ATOM     19  H   UNL     1       3.439  -3.648  29.561  0.00  0.00    +0.292 HD
ENDBRANCH  16  18
BRANCH  15  20
ATOM     20  O   UNL     1       6.587  -4.794  28.056  0.00  0.00    -0.503 OA
ATOM     21  H   UNL     1       6.104  -5.577  27.726  0.00  0.00    +0.292 HD
ENDBRANCH  15  20
ENDBRANCH   1  13
BRANCH   5  22
ATOM     22  O   UNL     1       8.510   1.444  20.999  0.00  0.00    -0.506 OA
ATOM     23  H   UNL     1       8.232   1.909  20.177  0.00  0.00    +0.292 HD
ENDBRANCH   5  22
BRANCH  11  24
ATOM     24  O   UNL     1       7.070  -3.022  23.351  0.00  0.00    -0.453 OA
BRANCH  24  25
ATOM     25  C   UNL     1       6.127  -3.524  22.377  0.00  0.00    +0.340 C 
ATOM     26  O   UNL     1       4.822  -3.565  22.948  0.00  0.00    -0.331 OA
ATOM     27  C   UNL     1       4.149  -4.787  23.257  0.00  0.00    +0.179 C 
ATOM     28  C   UNL     1       4.782  -6.111  22.773  0.00  0.00    +0.177 C 
ATOM     29  C   UNL     1       6.294  -6.013  22.605  0.00  0.00    +0.180 C 
ATOM     30  C   UNL     1       6.619  -4.823  21.719  0.00  0.00    +0.214 C 
BRANCH  30  31
ATOM     31  O   UNL     1       5.990  -5.024  20.437  0.00  0.00    -0.383 OA
ATOM     32  H   UNL     1       5.022  -5.059  20.544  0.00  0.00    +0.210 HD
ENDBRANCH  30  31
BRANCH  29  33
ATOM     33  O   UNL     1       6.917  -5.970  23.896  0.00  0.00    -0.386 OA
ATOM     34  H   UNL     1       7.334  -6.830  24.104  0.00  0.00    +0.210 HD
ENDBRANCH  29  33
BRANCH  28  35
ATOM     35  O   UNL     1       4.464  -7.217  23.631  0.00  0.00    -0.386 OA
ATOM     36  H   UNL     1       5.323  -7.599  23.913  0.00  0.00    +0.210 HD
ENDBRANCH  28  35
BRANCH  27  37
ATOM     37  C   UNL     1       3.762  -4.785  24.748  0.00  0.00    +0.190 C 
BRANCH  37  38
ATOM     38  O   UNL     1       2.539  -5.477  24.988  0.00  0.00    -0.392 OA
ATOM     39  H   UNL     1       2.783  -6.369  25.311  0.00  0.00    +0.210 HD
ENDBRANCH  37  38
ENDBRANCH  27  37
ENDBRANCH  24  25
ENDBRANCH  11  24
BRANCH   7  40
ATOM     40  O   UNL     1       5.834   4.689  23.164  0.00  0.00    -0.461 OA
BRANCH  40  41
ATOM     41  C   UNL     1       6.132   5.324  24.420  0.00  0.00    +0.339 C 
ATOM     42  O   UNL     1       6.670   6.637  24.248  0.00  0.00    -0.331 OA
ATOM     43  C   UNL     1       8.087   6.814  24.351  0.00  0.00    +0.179 C 
ATOM     44  C   UNL     1       8.657   6.129  25.603  0.00  0.00    +0.177 C 
ATOM     45  C   UNL     1       8.368   4.625  25.575  0.00  0.00    +0.180 C 
ATOM     46  C   UNL     1       6.863   4.379  25.416  0.00  0.00    +0.214 C 
BRANCH  46  47
ATOM     47  O   UNL     1       6.276   4.582  26.728  0.00  0.00    -0.383 OA
ATOM     48  H   UNL     1       6.794   4.023  27.347  0.00  0.00    +0.210 HD
ENDBRANCH  46  47
BRANCH  45  49
ATOM     49  O   UNL     1       9.180   3.984  24.596  0.00  0.00    -0.386 OA
ATOM     50  H   UNL     1       9.016   3.023  24.606  0.00  0.00    +0.210 HD
ENDBRANCH  45  49
BRANCH  44  51
ATOM     51  O   UNL     1       8.034   6.708  26.766  0.00  0.00    -0.386 OA
ATOM     52  H   UNL     1       8.745   7.084  27.319  0.00  0.00    +0.210 HD
ENDBRANCH  44  51
BRANCH  43  53
ATOM     53  C   UNL     1       8.844   6.452  23.059  0.00  0.00    +0.190 C 
BRANCH  53  54
ATOM     54  O   UNL     1       7.998   6.446  21.916  0.00  0.00    -0.392 OA
ATOM     55  H   UNL     1       7.902   5.526  21.605  0.00  0.00    +0.210 HD
ENDBRANCH  53  54
ENDBRANCH  43  53
ENDBRANCH  40  41
ENDBRANCH   7  40
TORSDOF 18
ENDMDL
