MODEL 1
REMARK VINA RESULT:      -6.6      0.000      0.000
REMARK  Name = 
REMARK  18 active torsions:
REMARK  status: ('A' for Active; 'I' for Inactive)
REMARK    1  A    between atoms: C_3  and  O_44
REMARK    2  A    between atoms: C_4  and  O_43
REMARK    3  A    between atoms: C_6  and  C_7
REMARK    4  A    between atoms: C_8  and  O_20
REMARK    5  A    between atoms: C_12  and  O_19
REMARK    6  A    between atoms: C_14  and  O_18
REMARK    7  A    between atoms: O_20  and  C_21
REMARK    8  A    between atoms: C_22  and  O_42
REMARK    9  A    between atoms: C_23  and  O_30
REMARK   10  A    between atoms: C_24  and  O_29
REMARK   11  A    between atoms: C_25  and  C_27
REMARK   12  A    between atoms: C_27  and  O_28
REMARK   13  A    between atoms: O_30  and  C_31
REMARK   14  A    between atoms: C_32  and  O_41
REMARK   15  A    between atoms: C_33  and  O_40
REMARK   16  A    between atoms: C_34  and  O_39
REMARK   17  A    between atoms: C_35  and  C_37
REMARK   18  A    between atoms: C_37  and  O_38
REMARK                            x       y       z     vdW  Elec       q    Type
REMARK                         _______ _______ _______ _____ _____    ______ ____
ROOT
ATOM      1  C   UNL     1       5.035  -1.475  26.703  0.00  0.00    +0.340 C 
ATOM      2  O   UNL     1       3.975  -0.864  27.491  0.00  0.00    -0.331 OA
ATOM      3  C   UNL     1       3.512   0.478  27.159  0.00  0.00    +0.179 C 
ATOM      4  C   UNL     1       4.507   1.421  26.439  0.00  0.00    +0.177 C 
ATOM      5  C   UNL     1       5.459   0.639  25.546  0.00  0.00    +0.187 C 
ATOM      6  C   UNL     1       6.144  -0.409  26.458  0.00  0.00    +0.214 C 
ENDROOT
BRANCH   6   7
ATOM      7  O   UNL     1       7.357  -0.907  25.920  0.00  0.00    -0.383 OA
ATOM      8  H   UNL     1       7.184  -1.294  25.036  0.00  0.00    +0.210 HD
ENDBRANCH   6   7
BRANCH   4   9
ATOM      9  O   UNL     1       5.255   2.163  27.416  0.00  0.00    -0.386 OA
ATOM     10  H   UNL     1       5.911   1.567  27.826  0.00  0.00    +0.210 HD
ENDBRANCH   4   9
BRANCH   5  11
ATOM     11  O   UNL     1       6.168   1.425  24.597  0.00  0.00    -0.340 OA
BRANCH  11  12
ATOM     12  C   UNL     1       6.639   0.954  23.350  0.00  0.00    +0.282 C 
ATOM     13  O   UNL     1       7.988   0.469  23.402  0.00  0.00    -0.341 OA
ATOM     14  C   UNL     1       8.991   1.442  23.771  0.00  0.00    +0.178 C 
ATOM     15  C   UNL     1       8.952   2.686  22.880  0.00  0.00    +0.177 C 
ATOM     16  C   UNL     1       7.529   3.257  22.828  0.00  0.00    +0.179 C 
ATOM     17  C   UNL     1       6.543   2.160  22.375  0.00  0.00    +0.201 C 
BRANCH  17  18
ATOM     18  O   UNL     1       5.209   2.678  22.324  0.00  0.00    -0.384 OA
ATOM     19  H   UNL     1       4.938   2.842  23.247  0.00  0.00    +0.210 HD
ENDBRANCH  17  18
BRANCH  16  20
ATOM     20  O   UNL     1       7.512   4.377  21.936  0.00  0.00    -0.386 OA
ATOM     21  H   UNL     1       7.558   4.011  21.031  0.00  0.00    +0.210 HD
ENDBRANCH  16  20
BRANCH  15  22
ATOM     22  O   UNL     1       9.387   2.386  21.540  0.00  0.00    -0.386 OA
ATOM     23  H   UNL     1       8.666   2.618  20.925  0.00  0.00    +0.210 HD
ENDBRANCH  15  22
BRANCH  14  24
ATOM     24  C   UNL     1      10.360   0.740  23.721  0.00  0.00    +0.190 C 
BRANCH  24  25
ATOM     25  O   UNL     1      10.478  -0.115  22.594  0.00  0.00    -0.392 OA
ATOM     26  H   UNL     1       9.698   0.039  22.029  0.00  0.00    +0.210 HD
ENDBRANCH  24  25
ENDBRANCH  14  24
ENDBRANCH  11  12
ENDBRANCH   5  11
BRANCH   3  27
ATOM     27  C   UNL     1       3.066   1.172  28.476  0.00  0.00    +0.190 C 
BRANCH  27  28
ATOM     28  O   UNL     1       3.873   0.797  29.586  0.00  0.00    -0.392 OA
ATOM     29  H   UNL     1       4.797   0.830  29.277  0.00  0.00    +0.210 HD
ENDBRANCH  27  28
ENDBRANCH   3  27
BRANCH   1  30
ATOM     30  O   UNL     1       4.558  -1.954  25.423  0.00  0.00    -0.453 OA
BRANCH  30  41
ATOM     31  C   UNL     1       5.089  -4.162  24.715  0.00  0.00    +0.181 A 
ATOM     32  O   UNL     1       4.809  -5.515  24.561  0.00  0.00    -0.451 OA
ATOM     33  C   UNL     1       3.671  -6.051  25.061  0.00  0.00    +0.147 A 
ATOM     34  C   UNL     1       2.705  -5.314  25.701  0.00  0.00    +0.109 A 
ATOM     35  C   UNL     1       1.598  -5.987  26.233  0.00  0.00    +0.135 A 
ATOM     36  C   UNL     1       1.436  -7.372  26.054  0.00  0.00    +0.091 A 
ATOM     37  C   UNL     1       2.389  -8.068  25.324  0.00  0.00    +0.124 A 
ATOM     38  C   UNL     1       2.907  -3.827  25.745  0.00  0.00    +0.238 A 
ATOM     39  O   UNL     1       2.033  -3.120  26.233  0.00  0.00    -0.283 OA
ATOM     40  C   UNL     1       3.522  -7.429  24.856  0.00  0.00    +0.092 A 
ATOM     41  C   UNL     1       4.197  -3.269  25.192  0.00  0.00    +0.214 A 
BRANCH  31  43
ATOM     42  C   UNL     1       7.533  -4.341  25.175  0.00  0.00    +0.015 A 
ATOM     43  C   UNL     1       6.503  -3.886  24.319  0.00  0.00    +0.025 A 
ATOM     44  C   UNL     1       6.883  -3.108  23.216  0.00  0.00    +0.060 A 
ATOM     45  C   UNL     1       8.223  -2.806  22.997  0.00  0.00    +0.159 A 
ATOM     46  C   UNL     1       9.207  -3.218  23.885  0.00  0.00    +0.158 A 
ATOM     47  C   UNL     1       8.871  -4.002  24.974  0.00  0.00    +0.050 A 
BRANCH  46  48
ATOM     48  O   UNL     1      10.490  -2.809  23.664  0.00  0.00    -0.503 OA
ATOM     49  H   UNL     1      10.540  -2.477  22.751  0.00  0.00    +0.292 HD
ENDBRANCH  46  48
BRANCH  45  50
ATOM     50  O   UNL     1       8.567  -2.063  21.901  0.00  0.00    -0.503 OA
ATOM     51  H   UNL     1       8.374  -2.649  21.141  0.00  0.00    +0.292 HD
ENDBRANCH  45  50
ENDBRANCH  31  43
BRANCH  37  52
ATOM     52  O   UNL     1       2.252  -9.401  25.031  0.00  0.00    -0.507 OA
ATOM     53  H   UNL     1       2.974  -9.665  24.428  0.00  0.00    +0.292 HD
ENDBRANCH  37  52
BRANCH  35  54
ATOM     54  O   UNL     1       0.622  -5.374  26.983  0.00  0.00    -0.506 OA
ATOM     55  H   UNL     1       1.048  -4.667  27.525  0.00  0.00    +0.292 HD
ENDBRANCH  35  54
ENDBRANCH  30  41
ENDBRANCH   1  30
TORSDOF 18
ENDMDL
MODEL 2
REMARK VINA RESULT:      -6.5      3.188      4.689
REMARK  Name = 
REMARK  18 active torsions:
REMARK  status: ('A' for Active; 'I' for Inactive)
REMARK    1  A    between atoms: C_3  and  O_44
REMARK    2  A    between atoms: C_4  and  O_43
REMARK    3  A    between atoms: C_6  and  C_7
REMARK    4  A    between atoms: C_8  and  O_20
REMARK    5  A    between atoms: C_12  and  O_19
REMARK    6  A    between atoms: C_14  and  O_18
REMARK    7  A    between atoms: O_20  and  C_21
REMARK    8  A    between atoms: C_22  and  O_42
REMARK    9  A    between atoms: C_23  and  O_30
REMARK   10  A    between atoms: C_24  and  O_29
REMARK   11  A    between atoms: C_25  and  C_27
REMARK   12  A    between atoms: C_27  and  O_28
REMARK   13  A    between atoms: O_30  and  C_31
REMARK   14  A    between atoms: C_32  and  O_41
REMARK   15  A    between atoms: C_33  and  O_40
REMARK   16  A    between atoms: C_34  and  O_39
REMARK   17  A    between atoms: C_35  and  C_37
REMARK   18  A    between atoms: C_37  and  O_38
REMARK                            x       y       z     vdW  Elec       q    Type
REMARK                         _______ _______ _______ _____ _____    ______ ____
ROOT
ATOM      1  C   UNL     1       6.804   1.293  27.018  0.00  0.00    +0.340 C 
ATOM      2  O   UNL     1       5.701   1.208  27.965  0.00  0.00    -0.331 OA
ATOM      3  C   UNL     1       4.487   1.981  27.729  0.00  0.00    +0.179 C 
ATOM      4  C   UNL     1       4.614   3.275  26.889  0.00  0.00    +0.177 C 
ATOM      5  C   UNL     1       5.721   3.151  25.852  0.00  0.00    +0.187 C 
ATOM      6  C   UNL     1       7.008   2.789  26.634  0.00  0.00    +0.214 C 
ENDROOT
BRANCH   6   7
ATOM      7  O   UNL     1       8.195   3.074  25.915  0.00  0.00    -0.383 OA
ATOM      8  H   UNL     1       8.862   2.380  26.102  0.00  0.00    +0.210 HD
ENDBRANCH   6   7
BRANCH   4   9
ATOM      9  O   UNL     1       4.885   4.386  27.759  0.00  0.00    -0.386 OA
ATOM     10  H   UNL     1       4.189   5.059  27.632  0.00  0.00    +0.210 HD
ENDBRANCH   4   9
BRANCH   5  11
ATOM     11  O   UNL     1       5.687   4.133  24.823  0.00  0.00    -0.340 OA
BRANCH  11  12
ATOM     12  C   UNL     1       6.353   4.024  23.581  0.00  0.00    +0.282 C 
ATOM     13  O   UNL     1       7.575   4.774  23.527  0.00  0.00    -0.341 OA
ATOM     14  C   UNL     1       7.441   6.204  23.689  0.00  0.00    +0.178 C 
ATOM     15  C   UNL     1       6.447   6.813  22.695  0.00  0.00    +0.177 C 
ATOM     16  C   UNL     1       5.113   6.058  22.750  0.00  0.00    +0.179 C 
ATOM     17  C   UNL     1       5.355   4.552  22.515  0.00  0.00    +0.201 C 
BRANCH  17  18
ATOM     18  O   UNL     1       4.117   3.834  22.564  0.00  0.00    -0.384 OA
ATOM     19  H   UNL     1       3.469   4.427  22.989  0.00  0.00    +0.210 HD
ENDBRANCH  17  18
BRANCH  16  20
ATOM     20  O   UNL     1       4.231   6.607  21.763  0.00  0.00    -0.386 OA
ATOM     21  H   UNL     1       4.059   7.531  22.029  0.00  0.00    +0.210 HD
ENDBRANCH  16  20
BRANCH  15  22
ATOM     22  O   UNL     1       6.958   6.768  21.349  0.00  0.00    -0.386 OA
ATOM     23  H   UNL     1       7.911   6.561  21.391  0.00  0.00    +0.210 HD
ENDBRANCH  15  22
BRANCH  14  24
ATOM     24  C   UNL     1       8.844   6.821  23.553  0.00  0.00    +0.190 C 
BRANCH  24  25
ATOM     25  O   UNL     1       9.704   6.015  22.761  0.00  0.00    -0.392 OA
ATOM     26  H   UNL     1       9.396   6.082  21.838  0.00  0.00    +0.210 HD
ENDBRANCH  24  25
ENDBRANCH  14  24
ENDBRANCH  11  12
ENDBRANCH   5  11
BRANCH   3  27
ATOM     27  C   UNL     1       3.888   2.366  29.110  0.00  0.00    +0.190 C 
BRANCH  27  28
ATOM     28  O   UNL     1       4.880   2.453  30.126  0.00  0.00    -0.392 OA
ATOM     29  H   UNL     1       4.453   2.154  30.951  0.00  0.00    +0.210 HD
ENDBRANCH  27  28
ENDBRANCH   3  27
BRANCH   1  30
ATOM     30  O   UNL     1       6.551   0.533  25.814  0.00  0.00    -0.453 OA
BRANCH  30  41
ATOM     31  C   UNL     1       8.209  -0.867  24.838  0.00  0.00    +0.181 A 
ATOM     32  O   UNL     1       8.850  -2.087  24.657  0.00  0.00    -0.451 OA
ATOM     33  C   UNL     1       8.488  -3.177  25.374  0.00  0.00    +0.147 A 
ATOM     34  C   UNL     1       7.455  -3.179  26.279  0.00  0.00    +0.109 A 
ATOM     35  C   UNL     1       7.212  -4.348  27.010  0.00  0.00    +0.135 A 
ATOM     36  C   UNL     1       7.954  -5.518  26.773  0.00  0.00    +0.091 A 
ATOM     37  C   UNL     1       8.931  -5.504  25.788  0.00  0.00    +0.124 A 
ATOM     38  C   UNL     1       6.645  -1.918  26.383  0.00  0.00    +0.238 A 
ATOM     39  O   UNL     1       5.664  -1.898  27.116  0.00  0.00    -0.283 OA
ATOM     40  C   UNL     1       9.229  -4.337  25.110  0.00  0.00    +0.092 A 
ATOM     41  C   UNL     1       7.091  -0.719  25.579  0.00  0.00    +0.214 A 
BRANCH  31  43
ATOM     42  C   UNL     1      10.219   0.599  24.665  0.00  0.00    +0.015 A 
ATOM     43  C   UNL     1       8.964   0.214  24.137  0.00  0.00    +0.025 A 
ATOM     44  C   UNL     1       8.469   0.959  23.056  0.00  0.00    +0.060 A 
ATOM     45  C   UNL     1       9.196   2.028  22.547  0.00  0.00    +0.159 A 
ATOM     46  C   UNL     1      10.399   2.418  23.121  0.00  0.00    +0.158 A 
ATOM     47  C   UNL     1      10.927   1.696  24.177  0.00  0.00    +0.050 A 
BRANCH  46  48
ATOM     48  O   UNL     1      11.018   3.532  22.634  0.00  0.00    -0.503 OA
ATOM     49  H   UNL     1      11.102   3.425  21.670  0.00  0.00    +0.292 HD
ENDBRANCH  46  48
BRANCH  45  50
ATOM     50  O   UNL     1       8.699   2.722  21.478  0.00  0.00    -0.503 OA
ATOM     51  H   UNL     1       8.115   2.083  21.024  0.00  0.00    +0.292 HD
ENDBRANCH  45  50
ENDBRANCH  31  43
BRANCH  37  52
ATOM     52  O   UNL     1       9.630  -6.631  25.438  0.00  0.00    -0.507 OA
ATOM     53  H   UNL     1       9.057  -7.198  24.886  0.00  0.00    +0.292 HD
ENDBRANCH  37  52
BRANCH  35  54
ATOM     54  O   UNL     1       6.278  -4.438  28.015  0.00  0.00    -0.506 OA
ATOM     55  H   UNL     1       6.503  -3.769  28.706  0.00  0.00    +0.292 HD
ENDBRANCH  35  54
ENDBRANCH  30  41
ENDBRANCH   1  30
TORSDOF 18
ENDMDL
MODEL 3
REMARK VINA RESULT:      -6.5      2.334      8.497
REMARK  Name = 
REMARK  18 active torsions:
REMARK  status: ('A' for Active; 'I' for Inactive)
REMARK    1  A    between atoms: C_3  and  O_44
REMARK    2  A    between atoms: C_4  and  O_43
REMARK    3  A    between atoms: C_6  and  C_7
REMARK    4  A    between atoms: C_8  and  O_20
REMARK    5  A    between atoms: C_12  and  O_19
REMARK    6  A    between atoms: C_14  and  O_18
REMARK    7  A    between atoms: O_20  and  C_21
REMARK    8  A    between atoms: C_22  and  O_42
REMARK    9  A    between atoms: C_23  and  O_30
REMARK   10  A    between atoms: C_24  and  O_29
REMARK   11  A    between atoms: C_25  and  C_27
REMARK   12  A    between atoms: C_27  and  O_28
REMARK   13  A    between atoms: O_30  and  C_31
REMARK   14  A    between atoms: C_32  and  O_41
REMARK   15  A    between atoms: C_33  and  O_40
REMARK   16  A    between atoms: C_34  and  O_39
REMARK   17  A    between atoms: C_35  and  C_37
REMARK   18  A    between atoms: C_37  and  O_38
REMARK                            x       y       z     vdW  Elec       q    Type
REMARK                         _______ _______ _______ _____ _____    ______ ____
ROOT
ATOM      1  C   UNL     1       6.343   2.358  25.862  0.00  0.00    +0.340 C 
ATOM      2  O   UNL     1       7.025   2.291  27.146  0.00  0.00    -0.331 OA
ATOM      3  C   UNL     1       7.222   0.998  27.792  0.00  0.00    +0.179 C 
ATOM      4  C   UNL     1       6.220  -0.132  27.451  0.00  0.00    +0.177 C 
ATOM      5  C   UNL     1       5.703   0.002  26.026  0.00  0.00    +0.187 C 
ATOM      6  C   UNL     1       5.098   1.423  25.918  0.00  0.00    +0.214 C 
ENDROOT
BRANCH   6   7
ATOM      7  O   UNL     1       4.188   1.560  24.840  0.00  0.00    -0.383 OA
ATOM      8  H   UNL     1       4.689   1.700  24.009  0.00  0.00    +0.210 HD
ENDBRANCH   6   7
BRANCH   4   9
ATOM      9  O   UNL     1       5.120  -0.090  28.374  0.00  0.00    -0.386 OA
ATOM     10  H   UNL     1       5.454   0.196  29.246  0.00  0.00    +0.210 HD
ENDBRANCH   4   9
BRANCH   5  11
ATOM     11  O   UNL     1       5.060  -1.158  25.514  0.00  0.00    -0.340 OA
BRANCH  11  12
ATOM     12  C   UNL     1       5.406  -2.488  25.850  0.00  0.00    +0.282 C 
ATOM     13  O   UNL     1       5.877  -3.250  24.730  0.00  0.00    -0.341 OA
ATOM     14  C   UNL     1       4.930  -3.433  23.653  0.00  0.00    +0.178 C 
ATOM     15  C   UNL     1       3.607  -4.036  24.135  0.00  0.00    +0.177 C 
ATOM     16  C   UNL     1       3.053  -3.224  25.313  0.00  0.00    +0.179 C 
ATOM     17  C   UNL     1       4.115  -3.130  26.428  0.00  0.00    +0.201 C 
BRANCH  17  18
ATOM     18  O   UNL     1       3.611  -2.374  27.535  0.00  0.00    -0.384 OA
ATOM     19  H   UNL     1       2.727  -2.055  27.274  0.00  0.00    +0.210 HD
ENDBRANCH  17  18
BRANCH  16  20
ATOM     20  O   UNL     1       1.854  -3.852  25.783  0.00  0.00    -0.386 OA
ATOM     21  H   UNL     1       2.130  -4.671  26.238  0.00  0.00    +0.210 HD
ENDBRANCH  16  20
BRANCH  15  22
ATOM     22  O   UNL     1       3.775  -5.406  24.546  0.00  0.00    -0.386 OA
ATOM     23  H   UNL     1       2.951  -5.699  24.977  0.00  0.00    +0.210 HD
ENDBRANCH  15  22
BRANCH  14  24
ATOM     24  C   UNL     1       5.606  -4.307  22.582  0.00  0.00    +0.190 C 
BRANCH  24  25
ATOM     25  O   UNL     1       6.299  -5.407  23.155  0.00  0.00    -0.392 OA
ATOM     26  H   UNL     1       6.334  -6.110  22.481  0.00  0.00    +0.210 HD
ENDBRANCH  24  25
ENDBRANCH  14  24
ENDBRANCH  11  12
ENDBRANCH   5  11
BRANCH   3  27
ATOM     27  C   UNL     1       7.187   1.220  29.329  0.00  0.00    +0.190 C 
BRANCH  27  28
ATOM     28  O   UNL     1       8.478   1.130  29.920  0.00  0.00    -0.392 OA
ATOM     29  H   UNL     1       8.483   1.761  30.664  0.00  0.00    +0.210 HD
ENDBRANCH  27  28
ENDBRANCH   3  27
BRANCH   1  30
ATOM     30  O   UNL     1       7.192   1.938  24.769  0.00  0.00    -0.453 OA
BRANCH  30  41
ATOM     31  C   UNL     1       9.494   1.596  24.275  0.00  0.00    +0.181 A 
ATOM     32  O   UNL     1      10.775   2.042  23.968  0.00  0.00    -0.451 OA
ATOM     33  C   UNL     1      11.025   3.357  23.766  0.00  0.00    +0.147 A 
ATOM     34  C   UNL     1      10.071   4.337  23.893  0.00  0.00    +0.109 A 
ATOM     35  C   UNL     1      10.430   5.657  23.599  0.00  0.00    +0.135 A 
ATOM     36  C   UNL     1      11.752   5.990  23.256  0.00  0.00    +0.091 A 
ATOM     37  C   UNL     1      12.708   4.985  23.225  0.00  0.00    +0.124 A 
ATOM     38  C   UNL     1       8.716   3.903  24.376  0.00  0.00    +0.238 A 
ATOM     39  O   UNL     1       7.857   4.751  24.583  0.00  0.00    -0.283 OA
ATOM     40  C   UNL     1      12.352   3.668  23.442  0.00  0.00    +0.092 A 
ATOM     41  C   UNL     1       8.472   2.425  24.572  0.00  0.00    +0.214 A 
BRANCH  31  43
ATOM     42  C   UNL     1       9.548  -0.483  22.899  0.00  0.00    +0.015 A 
ATOM     43  C   UNL     1       9.436   0.107  24.179  0.00  0.00    +0.025 A 
ATOM     44  C   UNL     1       9.163  -0.750  25.256  0.00  0.00    +0.060 A 
ATOM     45  C   UNL     1       9.009  -2.115  25.047  0.00  0.00    +0.159 A 
ATOM     46  C   UNL     1       9.069  -2.658  23.771  0.00  0.00    +0.158 A 
ATOM     47  C   UNL     1       9.354  -1.847  22.687  0.00  0.00    +0.050 A 
BRANCH  46  48
ATOM     48  O   UNL     1       8.816  -3.991  23.622  0.00  0.00    -0.503 OA
ATOM     49  H   UNL     1       9.662  -4.432  23.431  0.00  0.00    +0.292 HD
ENDBRANCH  46  48
BRANCH  45  50
ATOM     50  O   UNL     1       8.765  -2.929  26.119  0.00  0.00    -0.503 OA
ATOM     51  H   UNL     1       9.639  -3.036  26.546  0.00  0.00    +0.292 HD
ENDBRANCH  45  50
ENDBRANCH  31  43
BRANCH  37  52
ATOM     52  O   UNL     1      14.034   5.248  22.988  0.00  0.00    -0.507 OA
ATOM     53  H   UNL     1      14.327   5.956  23.595  0.00  0.00    +0.292 HD
ENDBRANCH  37  52
BRANCH  35  54
ATOM     54  O   UNL     1       9.540   6.705  23.588  0.00  0.00    -0.506 OA
ATOM     55  H   UNL     1       9.090   6.719  22.709  0.00  0.00    +0.292 HD
ENDBRANCH  35  54
ENDBRANCH  30  41
ENDBRANCH   1  30
TORSDOF 18
ENDMDL
MODEL 4
REMARK VINA RESULT:      -6.5      2.174      7.654
REMARK  Name = 
REMARK  18 active torsions:
REMARK  status: ('A' for Active; 'I' for Inactive)
REMARK    1  A    between atoms: C_3  and  O_44
REMARK    2  A    between atoms: C_4  and  O_43
REMARK    3  A    between atoms: C_6  and  C_7
REMARK    4  A    between atoms: C_8  and  O_20
REMARK    5  A    between atoms: C_12  and  O_19
REMARK    6  A    between atoms: C_14  and  O_18
REMARK    7  A    between atoms: O_20  and  C_21
REMARK    8  A    between atoms: C_22  and  O_42
REMARK    9  A    between atoms: C_23  and  O_30
REMARK   10  A    between atoms: C_24  and  O_29
REMARK   11  A    between atoms: C_25  and  C_27
REMARK   12  A    between atoms: C_27  and  O_28
REMARK   13  A    between atoms: O_30  and  C_31
REMARK   14  A    between atoms: C_32  and  O_41
REMARK   15  A    between atoms: C_33  and  O_40
REMARK   16  A    between atoms: C_34  and  O_39
REMARK   17  A    between atoms: C_35  and  C_37
REMARK   18  A    between atoms: C_37  and  O_38
REMARK                            x       y       z     vdW  Elec       q    Type
REMARK                         _______ _______ _______ _____ _____    ______ ____
ROOT
ATOM      1  C   UNL     1       5.459  -0.210  26.719  0.00  0.00    +0.340 C 
ATOM      2  O   UNL     1       4.672  -0.801  27.791  0.00  0.00    -0.331 OA
ATOM      3  C   UNL     1       4.472  -2.245  27.828  0.00  0.00    +0.179 C 
ATOM      4  C   UNL     1       4.548  -3.012  26.485  0.00  0.00    +0.177 C 
ATOM      5  C   UNL     1       5.519  -2.343  25.523  0.00  0.00    +0.187 C 
ATOM      6  C   UNL     1       5.040  -0.878  25.376  0.00  0.00    +0.214 C 
ENDROOT
BRANCH   6   7
ATOM      7  O   UNL     1       5.531  -0.246  24.206  0.00  0.00    -0.383 OA
ATOM      8  H   UNL     1       4.904  -0.399  23.468  0.00  0.00    +0.210 HD
ENDBRANCH   6   7
BRANCH   4   9
ATOM      9  O   UNL     1       3.240  -3.072  25.894  0.00  0.00    -0.386 OA
ATOM     10  H   UNL     1       2.764  -3.841  26.263  0.00  0.00    +0.210 HD
ENDBRANCH   4   9
BRANCH   5  11
ATOM     11  O   UNL     1       5.912  -3.148  24.418  0.00  0.00    -0.340 OA
BRANCH  11  12
ATOM     12  C   UNL     1       5.158  -3.316  23.234  0.00  0.00    +0.282 C 
ATOM     13  O   UNL     1       4.118  -4.297  23.361  0.00  0.00    -0.341 OA
ATOM     14  C   UNL     1       4.557  -5.643  23.650  0.00  0.00    +0.178 C 
ATOM     15  C   UNL     1       5.588  -6.150  22.638  0.00  0.00    +0.177 C 
ATOM     16  C   UNL     1       6.737  -5.143  22.502  0.00  0.00    +0.179 C 
ATOM     17  C   UNL     1       6.172  -3.753  22.142  0.00  0.00    +0.201 C 
BRANCH  17  18
ATOM     18  O   UNL     1       7.234  -2.801  22.012  0.00  0.00    -0.384 OA
ATOM     19  H   UNL     1       6.934  -1.988  22.460  0.00  0.00    +0.210 HD
ENDBRANCH  17  18
BRANCH  16  20
ATOM     20  O   UNL     1       7.647  -5.613  21.501  0.00  0.00    -0.386 OA
ATOM     21  H   UNL     1       8.111  -4.826  21.156  0.00  0.00    +0.210 HD
ENDBRANCH  16  20
BRANCH  15  22
ATOM     22  O   UNL     1       4.992  -6.362  21.345  0.00  0.00    -0.386 OA
ATOM     23  H   UNL     1       4.484  -5.564  21.107  0.00  0.00    +0.210 HD
ENDBRANCH  15  22
BRANCH  14  24
ATOM     24  C   UNL     1       3.307  -6.540  23.699  0.00  0.00    +0.190 C 
BRANCH  24  25
ATOM     25  O   UNL     1       3.623  -7.869  24.086  0.00  0.00    -0.392 OA
ATOM     26  H   UNL     1       2.882  -8.197  24.628  0.00  0.00    +0.210 HD
ENDBRANCH  24  25
ENDBRANCH  14  24
ENDBRANCH  11  12
ENDBRANCH   5  11
BRANCH   3  27
ATOM     27  C   UNL     1       3.079  -2.521  28.457  0.00  0.00    +0.190 C 
BRANCH  27  28
ATOM     28  O   UNL     1       2.851  -3.907  28.682  0.00  0.00    -0.392 OA
ATOM     29  H   UNL     1       2.769  -4.318  27.801  0.00  0.00    +0.210 HD
ENDBRANCH  27  28
ENDBRANCH   3  27
BRANCH   1  30
ATOM     30  O   UNL     1       6.880  -0.404  26.913  0.00  0.00    -0.453 OA
BRANCH  30  41
ATOM     31  C   UNL     1       8.848  -0.254  25.584  0.00  0.00    +0.181 A 
ATOM     32  O   UNL     1       9.781   0.444  24.827  0.00  0.00    -0.451 OA
ATOM     33  C   UNL     1       9.622   1.763  24.569  0.00  0.00    +0.147 A 
ATOM     34  C   UNL     1       8.581   2.510  25.063  0.00  0.00    +0.109 A 
ATOM     35  C   UNL     1       8.485   3.853  24.678  0.00  0.00    +0.135 A 
ATOM     36  C   UNL     1       9.468   4.448  23.870  0.00  0.00    +0.091 A 
ATOM     37  C   UNL     1      10.553   3.684  23.464  0.00  0.00    +0.124 A 
ATOM     38  C   UNL     1       7.643   1.820  26.011  0.00  0.00    +0.238 A 
ATOM     39  O   UNL     1       6.747   2.466  26.540  0.00  0.00    -0.283 OA
ATOM     40  C   UNL     1      10.623   2.340  23.776  0.00  0.00    +0.092 A 
ATOM     41  C   UNL     1       7.843   0.343  26.258  0.00  0.00    +0.214 A 
BRANCH  31  43
ATOM     42  C   UNL     1       9.708  -2.218  24.310  0.00  0.00    +0.015 A 
ATOM     43  C   UNL     1       9.111  -1.722  25.492  0.00  0.00    +0.025 A 
ATOM     44  C   UNL     1       8.705  -2.665  26.448  0.00  0.00    +0.060 A 
ATOM     45  C   UNL     1       8.887  -4.024  26.217  0.00  0.00    +0.159 A 
ATOM     46  C   UNL     1       9.425  -4.484  25.022  0.00  0.00    +0.158 A 
ATOM     47  C   UNL     1       9.853  -3.582  24.064  0.00  0.00    +0.050 A 
BRANCH  46  48
ATOM     48  O   UNL     1       9.491  -5.832  24.819  0.00  0.00    -0.503 OA
ATOM     49  H   UNL     1      10.331  -6.145  25.198  0.00  0.00    +0.292 HD
ENDBRANCH  46  48
BRANCH  45  50
ATOM     50  O   UNL     1       8.501  -4.920  27.176  0.00  0.00    -0.503 OA
ATOM     51  H   UNL     1       7.582  -4.664  27.391  0.00  0.00    +0.292 HD
ENDBRANCH  45  50
ENDBRANCH  31  43
BRANCH  37  52
ATOM     52  O   UNL     1      11.596   4.220  22.751  0.00  0.00    -0.507 OA
ATOM     53  H   UNL     1      12.345   3.592  22.772  0.00  0.00    +0.292 HD
ENDBRANCH  37  52
BRANCH  35  54
ATOM     54  O   UNL     1       7.433   4.670  25.021  0.00  0.00    -0.506 OA
ATOM     55  H   UNL     1       7.372   4.697  26.007  0.00  0.00    +0.292 HD
ENDBRANCH  35  54
ENDBRANCH  30  41
ENDBRANCH   1  30
TORSDOF 18
ENDMDL
MODEL 5
REMARK VINA RESULT:      -6.2      2.044      8.474
REMARK  Name = 
REMARK  18 active torsions:
REMARK  status: ('A' for Active; 'I' for Inactive)
REMARK    1  A    between atoms: C_3  and  O_44
REMARK    2  A    between atoms: C_4  and  O_43
REMARK    3  A    between atoms: C_6  and  C_7
REMARK    4  A    between atoms: C_8  and  O_20
REMARK    5  A    between atoms: C_12  and  O_19
REMARK    6  A    between atoms: C_14  and  O_18
REMARK    7  A    between atoms: O_20  and  C_21
REMARK    8  A    between atoms: C_22  and  O_42
REMARK    9  A    between atoms: C_23  and  O_30
REMARK   10  A    between atoms: C_24  and  O_29
REMARK   11  A    between atoms: C_25  and  C_27
REMARK   12  A    between atoms: C_27  and  O_28
REMARK   13  A    between atoms: O_30  and  C_31
REMARK   14  A    between atoms: C_32  and  O_41
REMARK   15  A    between atoms: C_33  and  O_40
REMARK   16  A    between atoms: C_34  and  O_39
REMARK   17  A    between atoms: C_35  and  C_37
REMARK   18  A    between atoms: C_37  and  O_38
REMARK                            x       y       z     vdW  Elec       q    Type
REMARK                         _______ _______ _______ _____ _____    ______ ____
ROOT
ATOM      1  C   UNL     1       6.462  -2.655  27.036  0.00  0.00    +0.340 C 
ATOM      2  O   UNL     1       7.845  -2.918  26.669  0.00  0.00    -0.331 OA
ATOM      3  C   UNL     1       8.170  -4.101  25.880  0.00  0.00    +0.179 C 
ATOM      4  C   UNL     1       7.209  -5.311  25.977  0.00  0.00    +0.177 C 
ATOM      5  C   UNL     1       5.778  -4.859  26.225  0.00  0.00    +0.187 C 
ATOM      6  C   UNL     1       5.815  -3.992  27.507  0.00  0.00    +0.214 C 
ENDROOT
BRANCH   6   7
ATOM      7  O   UNL     1       4.549  -3.865  28.132  0.00  0.00    -0.383 OA
ATOM      8  H   UNL     1       3.982  -3.268  27.599  0.00  0.00    +0.210 HD
ENDBRANCH   6   7
BRANCH   4   9
ATOM      9  O   UNL     1       7.637  -6.178  27.040  0.00  0.00    -0.386 OA
ATOM     10  H   UNL     1       8.599  -6.324  26.956  0.00  0.00    +0.210 HD
ENDBRANCH   4   9
BRANCH   5  11
ATOM     11  O   UNL     1       4.789  -5.854  25.988  0.00  0.00    -0.340 OA
BRANCH  11  12
ATOM     12  C   UNL     1       3.577  -5.637  25.293  0.00  0.00    +0.282 C 
ATOM     13  O   UNL     1       2.524  -5.141  26.132  0.00  0.00    -0.341 OA
ATOM     14  C   UNL     1       2.117  -6.014  27.210  0.00  0.00    +0.178 C 
ATOM     15  C   UNL     1       1.734  -7.412  26.715  0.00  0.00    +0.177 C 
ATOM     16  C   UNL     1       2.854  -7.991  25.842  0.00  0.00    +0.179 C 
ATOM     17  C   UNL     1       3.178  -7.014  24.693  0.00  0.00    +0.201 C 
BRANCH  17  18
ATOM     18  O   UNL     1       4.224  -7.541  23.869  0.00  0.00    -0.384 OA
ATOM     19  H   UNL     1       4.031  -7.254  22.957  0.00  0.00    +0.210 HD
ENDBRANCH  17  18
BRANCH  16  20
ATOM     20  O   UNL     1       2.436  -9.267  25.341  0.00  0.00    -0.386 OA
ATOM     21  H   UNL     1       1.912  -9.685  26.052  0.00  0.00    +0.210 HD
ENDBRANCH  16  20
BRANCH  15  22
ATOM     22  O   UNL     1       0.512  -7.381  25.954  0.00  0.00    -0.386 OA
ATOM     23  H   UNL     1       0.741  -7.398  25.006  0.00  0.00    +0.210 HD
ENDBRANCH  15  22
BRANCH  14  24
ATOM     24  C   UNL     1       0.959  -5.327  27.953  0.00  0.00    +0.190 C 
BRANCH  24  25
ATOM     25  O   UNL     1       1.421  -4.326  28.848  0.00  0.00    -0.392 OA
ATOM     26  H   UNL     1       1.886  -4.780  29.575  0.00  0.00    +0.210 HD
ENDBRANCH  24  25
ENDBRANCH  14  24
ENDBRANCH  11  12
ENDBRANCH   5  11
BRANCH   3  27
ATOM     27  C   UNL     1       9.586  -4.582  26.297  0.00  0.00    +0.190 C 
BRANCH  27  28
ATOM     28  O   UNL     1      10.101  -5.577  25.420  0.00  0.00    -0.392 OA
ATOM     29  H   UNL     1      11.054  -5.651  25.618  0.00  0.00    +0.210 HD
ENDBRANCH  27  28
ENDBRANCH   3  27
BRANCH   1  30
ATOM     30  O   UNL     1       5.693  -2.130  25.929  0.00  0.00    -0.453 OA
BRANCH  30  41
ATOM     31  C   UNL     1       6.395  -1.353  23.792  0.00  0.00    +0.181 A 
ATOM     32  O   UNL     1       6.756  -0.355  22.894  0.00  0.00    -0.451 OA
ATOM     33  C   UNL     1       6.701   0.951  23.245  0.00  0.00    +0.147 A 
ATOM     34  C   UNL     1       6.340   1.383  24.497  0.00  0.00    +0.109 A 
ATOM     35  C   UNL     1       6.257   2.762  24.727  0.00  0.00    +0.135 A 
ATOM     36  C   UNL     1       6.607   3.686  23.728  0.00  0.00    +0.091 A 
ATOM     37  C   UNL     1       7.053   3.210  22.503  0.00  0.00    +0.124 A 
ATOM     38  C   UNL     1       6.095   0.324  25.534  0.00  0.00    +0.238 A 
ATOM     39  O   UNL     1       5.851   0.662  26.686  0.00  0.00    -0.283 OA
ATOM     40  C   UNL     1       7.070   1.854  22.239  0.00  0.00    +0.092 A 
ATOM     41  C   UNL     1       6.149  -1.121  25.099  0.00  0.00    +0.214 A 
BRANCH  31  43
ATOM     42  C   UNL     1       4.996  -3.198  22.867  0.00  0.00    +0.015 A 
ATOM     43  C   UNL     1       6.287  -2.663  23.083  0.00  0.00    +0.025 A 
ATOM     44  C   UNL     1       7.381  -3.461  22.714  0.00  0.00    +0.060 A 
ATOM     45  C   UNL     1       7.177  -4.722  22.166  0.00  0.00    +0.159 A 
ATOM     46  C   UNL     1       5.899  -5.244  22.019  0.00  0.00    +0.158 A 
ATOM     47  C   UNL     1       4.797  -4.479  22.355  0.00  0.00    +0.050 A 
BRANCH  46  48
ATOM     48  O   UNL     1       5.772  -6.524  21.562  0.00  0.00    -0.503 OA
ATOM     49  H   UNL     1       6.629  -6.789  21.185  0.00  0.00    +0.292 HD
ENDBRANCH  46  48
BRANCH  45  50
ATOM     50  O   UNL     1       8.262  -5.469  21.795  0.00  0.00    -0.503 OA
ATOM     51  H   UNL     1       8.334  -5.328  20.830  0.00  0.00    +0.292 HD
ENDBRANCH  45  50
ENDBRANCH  31  43
BRANCH  37  52
ATOM     52  O   UNL     1       7.497   4.050  21.513  0.00  0.00    -0.507 OA
ATOM     53  H   UNL     1       8.403   3.783  21.259  0.00  0.00    +0.292 HD
ENDBRANCH  37  52
BRANCH  35  54
ATOM     54  O   UNL     1       5.807   3.312  25.904  0.00  0.00    -0.506 OA
ATOM     55  H   UNL     1       5.863   4.295  25.826  0.00  0.00    +0.292 HD
ENDBRANCH  35  54
ENDBRANCH  30  41
ENDBRANCH   1  30
TORSDOF 18
ENDMDL
MODEL 6
REMARK VINA RESULT:      -6.2      2.086      8.203
REMARK  Name = 
REMARK  18 active torsions:
REMARK  status: ('A' for Active; 'I' for Inactive)
REMARK    1  A    between atoms: C_3  and  O_44
REMARK    2  A    between atoms: C_4  and  O_43
REMARK    3  A    between atoms: C_6  and  C_7
REMARK    4  A    between atoms: C_8  and  O_20
REMARK    5  A    between atoms: C_12  and  O_19
REMARK    6  A    between atoms: C_14  and  O_18
REMARK    7  A    between atoms: O_20  and  C_21
REMARK    8  A    between atoms: C_22  and  O_42
REMARK    9  A    between atoms: C_23  and  O_30
REMARK   10  A    between atoms: C_24  and  O_29
REMARK   11  A    between atoms: C_25  and  C_27
REMARK   12  A    between atoms: C_27  and  O_28
REMARK   13  A    between atoms: O_30  and  C_31
REMARK   14  A    between atoms: C_32  and  O_41
REMARK   15  A    between atoms: C_33  and  O_40
REMARK   16  A    between atoms: C_34  and  O_39
REMARK   17  A    between atoms: C_35  and  C_37
REMARK   18  A    between atoms: C_37  and  O_38
REMARK                            x       y       z     vdW  Elec       q    Type
REMARK                         _______ _______ _______ _____ _____    ______ ____
ROOT
ATOM      1  C   UNL     1       8.061  -1.364  26.061  0.00  0.00    +0.340 C 
ATOM      2  O   UNL     1       8.946  -1.015  24.960  0.00  0.00    -0.331 OA
ATOM      3  C   UNL     1       8.732  -1.612  23.646  0.00  0.00    +0.179 C 
ATOM      4  C   UNL     1       8.024  -2.988  23.591  0.00  0.00    +0.177 C 
ATOM      5  C   UNL     1       7.030  -3.141  24.732  0.00  0.00    +0.187 C 
ATOM      6  C   UNL     1       7.829  -2.905  26.037  0.00  0.00    +0.214 C 
ENDROOT
BRANCH   6   7
ATOM      7  O   UNL     1       7.193  -3.440  27.185  0.00  0.00    -0.383 OA
ATOM      8  H   UNL     1       7.387  -4.399  27.245  0.00  0.00    +0.210 HD
ENDBRANCH   6   7
BRANCH   4   9
ATOM      9  O   UNL     1       9.007  -4.034  23.658  0.00  0.00    -0.386 OA
ATOM     10  H   UNL     1       8.762  -4.647  24.378  0.00  0.00    +0.210 HD
ENDBRANCH   4   9
BRANCH   5  11
ATOM     11  O   UNL     1       6.098  -4.204  24.573  0.00  0.00    -0.340 OA
BRANCH  11  12
ATOM     12  C   UNL     1       4.817  -4.250  25.168  0.00  0.00    +0.282 C 
ATOM     13  O   UNL     1       4.843  -4.686  26.534  0.00  0.00    -0.341 OA
ATOM     14  C   UNL     1       5.341  -6.025  26.756  0.00  0.00    +0.178 C 
ATOM     15  C   UNL     1       4.596  -7.070  25.921  0.00  0.00    +0.177 C 
ATOM     16  C   UNL     1       4.579  -6.655  24.444  0.00  0.00    +0.179 C 
ATOM     17  C   UNL     1       3.983  -5.239  24.307  0.00  0.00    +0.201 C 
BRANCH  17  18
ATOM     18  O   UNL     1       3.962  -4.837  22.933  0.00  0.00    -0.384 OA
ATOM     19  H   UNL     1       4.885  -4.866  22.620  0.00  0.00    +0.210 HD
ENDBRANCH  17  18
BRANCH  16  20
ATOM     20  O   UNL     1       3.819  -7.617  23.703  0.00  0.00    -0.386 OA
ATOM     21  H   UNL     1       3.141  -7.964  24.314  0.00  0.00    +0.210 HD
ENDBRANCH  16  20
BRANCH  15  22
ATOM     22  O   UNL     1       3.241  -7.238  26.378  0.00  0.00    -0.386 OA
ATOM     23  H   UNL     1       2.673  -7.394  25.601  0.00  0.00    +0.210 HD
ENDBRANCH  15  22
BRANCH  14  24
ATOM     24  C   UNL     1       5.243  -6.314  28.264  0.00  0.00    +0.190 C 
BRANCH  24  25
ATOM     25  O   UNL     1       5.383  -7.698  28.549  0.00  0.00    -0.392 OA
ATOM     26  H   UNL     1       5.032  -8.189  27.784  0.00  0.00    +0.210 HD
ENDBRANCH  24  25
ENDBRANCH  14  24
ENDBRANCH  11  12
ENDBRANCH   5  11
BRANCH   3  27
ATOM     27  C   UNL     1      10.115  -1.759  22.955  0.00  0.00    +0.190 C 
BRANCH  27  28
ATOM     28  O   UNL     1      10.020  -1.720  21.536  0.00  0.00    -0.392 OA
ATOM     29  H   UNL     1       9.109  -1.990  21.315  0.00  0.00    +0.210 HD
ENDBRANCH  27  28
ENDBRANCH   3  27
BRANCH   1  30
ATOM     30  O   UNL     1       6.780  -0.699  25.965  0.00  0.00    -0.453 OA
BRANCH  30  41
ATOM     31  C   UNL     1       6.820   1.673  26.149  0.00  0.00    +0.181 A 
ATOM     32  O   UNL     1       6.452   2.877  26.740  0.00  0.00    -0.451 OA
ATOM     33  C   UNL     1       5.562   2.908  27.759  0.00  0.00    +0.147 A 
ATOM     34  C   UNL     1       5.002   1.781  28.310  0.00  0.00    +0.109 A 
ATOM     35  C   UNL     1       4.045   1.939  29.319  0.00  0.00    +0.135 A 
ATOM     36  C   UNL     1       3.717   3.213  29.815  0.00  0.00    +0.091 A 
ATOM     37  C   UNL     1       4.369   4.322  29.295  0.00  0.00    +0.124 A 
ATOM     38  C   UNL     1       5.498   0.460  27.797  0.00  0.00    +0.238 A 
ATOM     39  O   UNL     1       5.089  -0.573  28.314  0.00  0.00    -0.283 OA
ATOM     40  C   UNL     1       5.262   4.186  28.249  0.00  0.00    +0.092 A 
ATOM     41  C   UNL     1       6.478   0.467  26.647  0.00  0.00    +0.214 A 
BRANCH  31  43
ATOM     42  C   UNL     1       6.966   1.646  23.659  0.00  0.00    +0.015 A 
ATOM     43  C   UNL     1       7.589   1.935  24.896  0.00  0.00    +0.025 A 
ATOM     44  C   UNL     1       8.931   2.341  24.856  0.00  0.00    +0.060 A 
ATOM     45  C   UNL     1       9.600   2.442  23.641  0.00  0.00    +0.159 A 
ATOM     46  C   UNL     1       8.978   2.097  22.448  0.00  0.00    +0.158 A 
ATOM     47  C   UNL     1       7.650   1.710  22.447  0.00  0.00    +0.050 A 
BRANCH  46  48
ATOM     48  O   UNL     1       9.717   2.129  21.301  0.00  0.00    -0.503 OA
ATOM     49  H   UNL     1       9.453   1.365  20.759  0.00  0.00    +0.292 HD
ENDBRANCH  46  48
BRANCH  45  50
ATOM     50  O   UNL     1      10.902   2.862  23.630  0.00  0.00    -0.503 OA
ATOM     51  H   UNL     1      11.058   3.191  24.538  0.00  0.00    +0.292 HD
ENDBRANCH  45  50
ENDBRANCH  31  43
BRANCH  37  52
ATOM     52  O   UNL     1       4.168   5.585  29.790  0.00  0.00    -0.507 OA
ATOM     53  H   UNL     1       3.634   5.520  30.607  0.00  0.00    +0.292 HD
ENDBRANCH  37  52
BRANCH  35  54
ATOM     54  O   UNL     1       3.341   0.895  29.872  0.00  0.00    -0.506 OA
ATOM     55  H   UNL     1       2.758   1.258  30.582  0.00  0.00    +0.292 HD
ENDBRANCH  35  54
ENDBRANCH  30  41
ENDBRANCH   1  30
TORSDOF 18
ENDMDL
MODEL 7
REMARK VINA RESULT:      -6.2      2.208      9.177
REMARK  Name = 
REMARK  18 active torsions:
REMARK  status: ('A' for Active; 'I' for Inactive)
REMARK    1  A    between atoms: C_3  and  O_44
REMARK    2  A    between atoms: C_4  and  O_43
REMARK    3  A    between atoms: C_6  and  C_7
REMARK    4  A    between atoms: C_8  and  O_20
REMARK    5  A    between atoms: C_12  and  O_19
REMARK    6  A    between atoms: C_14  and  O_18
REMARK    7  A    between atoms: O_20  and  C_21
REMARK    8  A    between atoms: C_22  and  O_42
REMARK    9  A    between atoms: C_23  and  O_30
REMARK   10  A    between atoms: C_24  and  O_29
REMARK   11  A    between atoms: C_25  and  C_27
REMARK   12  A    between atoms: C_27  and  O_28
REMARK   13  A    between atoms: O_30  and  C_31
REMARK   14  A    between atoms: C_32  and  O_41
REMARK   15  A    between atoms: C_33  and  O_40
REMARK   16  A    between atoms: C_34  and  O_39
REMARK   17  A    between atoms: C_35  and  C_37
REMARK   18  A    between atoms: C_37  and  O_38
REMARK                            x       y       z     vdW  Elec       q    Type
REMARK                         _______ _______ _______ _____ _____    ______ ____
ROOT
ATOM      1  C   UNL     1       8.726  -3.490  25.118  0.00  0.00    +0.340 C 
ATOM      2  O   UNL     1       8.331  -3.424  23.719  0.00  0.00    -0.331 OA
ATOM      3  C   UNL     1       6.952  -3.715  23.344  0.00  0.00    +0.179 C 
ATOM      4  C   UNL     1       6.136  -4.643  24.278  0.00  0.00    +0.177 C 
ATOM      5  C   UNL     1       6.577  -4.491  25.726  0.00  0.00    +0.187 C 
ATOM      6  C   UNL     1       8.100  -4.772  25.746  0.00  0.00    +0.214 C 
ENDROOT
BRANCH   6   7
ATOM      7  O   UNL     1       8.586  -5.116  27.032  0.00  0.00    -0.383 OA
ATOM      8  H   UNL     1       7.835  -5.381  27.603  0.00  0.00    +0.210 HD
ENDBRANCH   6   7
BRANCH   4   9
ATOM      9  O   UNL     1       6.302  -6.007  23.859  0.00  0.00    -0.386 OA
ATOM     10  H   UNL     1       7.141  -6.083  23.365  0.00  0.00    +0.210 HD
ENDBRANCH   4   9
BRANCH   5  11
ATOM     11  O   UNL     1       5.675  -5.031  26.683  0.00  0.00    -0.340 OA
BRANCH  11  12
ATOM     12  C   UNL     1       5.574  -6.402  27.013  0.00  0.00    +0.282 C 
ATOM     13  O   UNL     1       4.513  -7.074  26.319  0.00  0.00    -0.341 OA
ATOM     14  C   UNL     1       3.179  -6.586  26.588  0.00  0.00    +0.178 C 
ATOM     15  C   UNL     1       2.854  -6.571  28.084  0.00  0.00    +0.177 C 
ATOM     16  C   UNL     1       3.950  -5.828  28.857  0.00  0.00    +0.179 C 
ATOM     17  C   UNL     1       5.326  -6.455  28.546  0.00  0.00    +0.201 C 
BRANCH  17  18
ATOM     18  O   UNL     1       6.360  -5.770  29.261  0.00  0.00    -0.384 OA
ATOM     19  H   UNL     1       6.257  -6.013  30.200  0.00  0.00    +0.210 HD
ENDBRANCH  17  18
BRANCH  16  20
ATOM     20  O   UNL     1       3.652  -5.891  30.257  0.00  0.00    -0.386 OA
ATOM     21  H   UNL     1       4.479  -6.154  30.705  0.00  0.00    +0.210 HD
ENDBRANCH  16  20
BRANCH  15  22
ATOM     22  O   UNL     1       2.733  -7.907  28.607  0.00  0.00    -0.386 OA
ATOM     23  H   UNL     1       3.554  -8.393  28.400  0.00  0.00    +0.210 HD
ENDBRANCH  15  22
BRANCH  14  24
ATOM     24  C   UNL     1       2.195  -7.460  25.792  0.00  0.00    +0.190 C 
BRANCH  24  25
ATOM     25  O   UNL     1       2.764  -8.712  25.436  0.00  0.00    -0.392 OA
ATOM     26  H   UNL     1       2.670  -9.302  26.206  0.00  0.00    +0.210 HD
ENDBRANCH  24  25
ENDBRANCH  14  24
ENDBRANCH  11  12
ENDBRANCH   5  11
BRANCH   3  27
ATOM     27  C   UNL     1       6.964  -4.354  21.928  0.00  0.00    +0.190 C 
BRANCH  27  28
ATOM     28  O   UNL     1       5.659  -4.463  21.371  0.00  0.00    -0.392 OA
ATOM     29  H   UNL     1       5.782  -4.678  20.428  0.00  0.00    +0.210 HD
ENDBRANCH  27  28
ENDBRANCH   3  27
BRANCH   1  30
ATOM     30  O   UNL     1       8.276  -2.337  25.868  0.00  0.00    -0.453 OA
BRANCH  30  41
ATOM     31  C   UNL     1       6.925  -0.425  25.443  0.00  0.00    +0.181 A 
ATOM     32  O   UNL     1       6.722   0.870  24.982  0.00  0.00    -0.451 OA
ATOM     33  C   UNL     1       7.755   1.617  24.525  0.00  0.00    +0.147 A 
ATOM     34  C   UNL     1       9.043   1.151  24.434  0.00  0.00    +0.109 A 
ATOM     35  C   UNL     1      10.041   2.033  24.005  0.00  0.00    +0.135 A 
ATOM     36  C   UNL     1       9.728   3.342  23.601  0.00  0.00    +0.091 A 
ATOM     37  C   UNL     1       8.401   3.749  23.622  0.00  0.00    +0.124 A 
ATOM     38  C   UNL     1       9.265  -0.295  24.778  0.00  0.00    +0.238 A 
ATOM     39  O   UNL     1      10.382  -0.778  24.634  0.00  0.00    -0.283 OA
ATOM     40  C   UNL     1       7.416   2.912  24.112  0.00  0.00    +0.092 A 
ATOM     41  C   UNL     1       8.092  -1.088  25.301  0.00  0.00    +0.214 A 
BRANCH  31  43
ATOM     42  C   UNL     1       5.605  -0.752  27.533  0.00  0.00    +0.015 A 
ATOM     43  C   UNL     1       5.696  -0.920  26.132  0.00  0.00    +0.025 A 
ATOM     44  C   UNL     1       4.670  -1.644  25.506  0.00  0.00    +0.060 A 
ATOM     45  C   UNL     1       3.622  -2.168  26.255  0.00  0.00    +0.159 A 
ATOM     46  C   UNL     1       3.589  -2.036  27.637  0.00  0.00    +0.158 A 
ATOM     47  C   UNL     1       4.575  -1.314  28.285  0.00  0.00    +0.050 A 
BRANCH  46  48
ATOM     48  O   UNL     1       2.584  -2.654  28.322  0.00  0.00    -0.503 OA
ATOM     49  H   UNL     1       1.742  -2.270  28.020  0.00  0.00    +0.292 HD
ENDBRANCH  46  48
BRANCH  45  50
ATOM     50  O   UNL     1       2.624  -2.851  25.615  0.00  0.00    -0.503 OA
ATOM     51  H   UNL     1       2.794  -2.695  24.665  0.00  0.00    +0.292 HD
ENDBRANCH  45  50
ENDBRANCH  31  43
BRANCH  37  52
ATOM     52  O   UNL     1       8.008   4.978  23.157  0.00  0.00    -0.507 OA
ATOM     53  H   UNL     1       7.252   4.857  22.549  0.00  0.00    +0.292 HD
ENDBRANCH  37  52
BRANCH  35  54
ATOM     54  O   UNL     1      11.379   1.714  23.974  0.00  0.00    -0.506 OA
ATOM     55  H   UNL     1      11.856   2.326  24.585  0.00  0.00    +0.292 HD
ENDBRANCH  35  54
ENDBRANCH  30  41
ENDBRANCH   1  30
TORSDOF 18
ENDMDL
MODEL 8
REMARK VINA RESULT:      -6.0      2.453      8.217
REMARK  Name = 
REMARK  18 active torsions:
REMARK  status: ('A' for Active; 'I' for Inactive)
REMARK    1  A    between atoms: C_3  and  O_44
REMARK    2  A    between atoms: C_4  and  O_43
REMARK    3  A    between atoms: C_6  and  C_7
REMARK    4  A    between atoms: C_8  and  O_20
REMARK    5  A    between atoms: C_12  and  O_19
REMARK    6  A    between atoms: C_14  and  O_18
REMARK    7  A    between atoms: O_20  and  C_21
REMARK    8  A    between atoms: C_22  and  O_42
REMARK    9  A    between atoms: C_23  and  O_30
REMARK   10  A    between atoms: C_24  and  O_29
REMARK   11  A    between atoms: C_25  and  C_27
REMARK   12  A    between atoms: C_27  and  O_28
REMARK   13  A    between atoms: O_30  and  C_31
REMARK   14  A    between atoms: C_32  and  O_41
REMARK   15  A    between atoms: C_33  and  O_40
REMARK   16  A    between atoms: C_34  and  O_39
REMARK   17  A    between atoms: C_35  and  C_37
REMARK   18  A    between atoms: C_37  and  O_38
REMARK                            x       y       z     vdW  Elec       q    Type
REMARK                         _______ _______ _______ _____ _____    ______ ____
ROOT
ATOM      1  C   UNL     1       4.960  -0.678  25.599  0.00  0.00    +0.340 C 
ATOM      2  O   UNL     1       4.181   0.392  26.204  0.00  0.00    -0.331 OA
ATOM      3  C   UNL     1       3.670   0.235  27.560  0.00  0.00    +0.179 C 
ATOM      4  C   UNL     1       3.430  -1.207  28.072  0.00  0.00    +0.177 C 
ATOM      5  C   UNL     1       4.416  -2.184  27.449  0.00  0.00    +0.187 C 
ATOM      6  C   UNL     1       4.262  -2.035  25.915  0.00  0.00    +0.214 C 
ENDROOT
BRANCH   6   7
ATOM      7  O   UNL     1       4.753  -3.152  25.195  0.00  0.00    -0.383 OA
ATOM      8  H   UNL     1       5.689  -3.309  25.438  0.00  0.00    +0.210 HD
ENDBRANCH   6   7
BRANCH   4   9
ATOM      9  O   UNL     1       2.085  -1.607  27.760  0.00  0.00    -0.386 OA
ATOM     10  H   UNL     1       2.110  -2.219  26.999  0.00  0.00    +0.210 HD
ENDBRANCH   4   9
BRANCH   5  11
ATOM     11  O   UNL     1       4.500  -3.444  28.103  0.00  0.00    -0.340 OA
BRANCH  11  12
ATOM     12  C   UNL     1       5.606  -4.322  28.023  0.00  0.00    +0.282 C 
ATOM     13  O   UNL     1       5.589  -5.147  26.849  0.00  0.00    -0.341 OA
ATOM     14  C   UNL     1       4.463  -6.046  26.731  0.00  0.00    +0.178 C 
ATOM     15  C   UNL     1       4.299  -6.941  27.963  0.00  0.00    +0.177 C 
ATOM     16  C   UNL     1       4.276  -6.089  29.238  0.00  0.00    +0.179 C 
ATOM     17  C   UNL     1       5.540  -5.206  29.299  0.00  0.00    +0.201 C 
BRANCH  17  18
ATOM     18  O   UNL     1       5.532  -4.404  30.484  0.00  0.00    -0.384 OA
ATOM     19  H   UNL     1       6.190  -3.697  30.346  0.00  0.00    +0.210 HD
ENDBRANCH  17  18
BRANCH  16  20
ATOM     20  O   UNL     1       4.190  -6.958  30.373  0.00  0.00    -0.386 OA
ATOM     21  H   UNL     1       4.479  -6.435  31.146  0.00  0.00    +0.210 HD
ENDBRANCH  16  20
BRANCH  15  22
ATOM     22  O   UNL     1       5.367  -7.902  28.058  0.00  0.00    -0.386 OA
ATOM     23  H   UNL     1       5.128  -8.680  27.519  0.00  0.00    +0.210 HD
ENDBRANCH  15  22
BRANCH  14  24
ATOM     24  C   UNL     1       4.656  -6.866  25.444  0.00  0.00    +0.190 C 
BRANCH  24  25
ATOM     25  O   UNL     1       3.813  -8.009  25.411  0.00  0.00    -0.392 OA
ATOM     26  H   UNL     1       4.093  -8.597  26.137  0.00  0.00    +0.210 HD
ENDBRANCH  24  25
ENDBRANCH  14  24
ENDBRANCH  11  12
ENDBRANCH   5  11
BRANCH   3  27
ATOM     27  C   UNL     1       2.326   1.006  27.660  0.00  0.00    +0.190 C 
BRANCH  27  28
ATOM     28  O   UNL     1       1.682   1.139  26.399  0.00  0.00    -0.392 OA
ATOM     29  H   UNL     1       2.158   1.845  25.921  0.00  0.00    +0.210 HD
ENDBRANCH  27  28
ENDBRANCH   3  27
BRANCH   1  30
ATOM     30  O   UNL     1       6.315  -0.722  26.106  0.00  0.00    -0.453 OA
BRANCH  30  41
ATOM     31  C   UNL     1       8.127  -0.503  24.579  0.00  0.00    +0.181 A 
ATOM     32  O   UNL     1       9.115   0.224  23.926  0.00  0.00    -0.451 OA
ATOM     33  C   UNL     1       9.234   1.560  24.109  0.00  0.00    +0.147 A 
ATOM     34  C   UNL     1       8.441   2.278  24.971  0.00  0.00    +0.109 A 
ATOM     35  C   UNL     1       8.613   3.666  25.032  0.00  0.00    +0.135 A 
ATOM     36  C   UNL     1       9.622   4.305  24.291  0.00  0.00    +0.091 A 
ATOM     37  C   UNL     1      10.461   3.534  23.500  0.00  0.00    +0.124 A 
ATOM     38  C   UNL     1       7.468   1.496  25.806  0.00  0.00    +0.238 A 
ATOM     39  O   UNL     1       6.797   2.083  26.647  0.00  0.00    -0.283 OA
ATOM     40  C   UNL     1      10.256   2.173  23.375  0.00  0.00    +0.092 A 
ATOM     41  C   UNL     1       7.354   0.011  25.559  0.00  0.00    +0.214 A 
BRANCH  31  43
ATOM     42  C   UNL     1       7.168  -2.091  22.912  0.00  0.00    +0.015 A 
ATOM     43  C   UNL     1       8.041  -1.879  24.005  0.00  0.00    +0.025 A 
ATOM     44  C   UNL     1       8.680  -3.007  24.542  0.00  0.00    +0.060 A 
ATOM     45  C   UNL     1       8.443  -4.269  24.009  0.00  0.00    +0.159 A 
ATOM     46  C   UNL     1       7.538  -4.454  22.973  0.00  0.00    +0.158 A 
ATOM     47  C   UNL     1       6.904  -3.363  22.406  0.00  0.00    +0.050 A 
BRANCH  46  48
ATOM     48  O   UNL     1       7.281  -5.728  22.558  0.00  0.00    -0.503 OA
ATOM     49  H   UNL     1       8.018  -6.289  22.855  0.00  0.00    +0.292 HD
ENDBRANCH  46  48
BRANCH  45  50
ATOM     50  O   UNL     1       9.097  -5.348  24.539  0.00  0.00    -0.503 OA
ATOM     51  H   UNL     1       9.975  -5.335  24.110  0.00  0.00    +0.292 HD
ENDBRANCH  45  50
ENDBRANCH  31  43
BRANCH  37  52
ATOM     52  O   UNL     1      11.523   4.076  22.821  0.00  0.00    -0.507 OA
ATOM     53  H   UNL     1      11.528   3.719  21.911  0.00  0.00    +0.292 HD
ENDBRANCH  37  52
BRANCH  35  54
ATOM     54  O   UNL     1       7.812   4.501  25.775  0.00  0.00    -0.506 OA
ATOM     55  H   UNL     1       6.870   4.245  25.619  0.00  0.00    +0.292 HD
ENDBRANCH  35  54
ENDBRANCH  30  41
ENDBRANCH   1  30
TORSDOF 18
ENDMDL
MODEL 9
REMARK VINA RESULT:      -6.0      2.363      5.202
REMARK  Name = 
REMARK  18 active torsions:
REMARK  status: ('A' for Active; 'I' for Inactive)
REMARK    1  A    between atoms: C_3  and  O_44
REMARK    2  A    between atoms: C_4  and  O_43
REMARK    3  A    between atoms: C_6  and  C_7
REMARK    4  A    between atoms: C_8  and  O_20
REMARK    5  A    between atoms: C_12  and  O_19
REMARK    6  A    between atoms: C_14  and  O_18
REMARK    7  A    between atoms: O_20  and  C_21
REMARK    8  A    between atoms: C_22  and  O_42
REMARK    9  A    between atoms: C_23  and  O_30
REMARK   10  A    between atoms: C_24  and  O_29
REMARK   11  A    between atoms: C_25  and  C_27
REMARK   12  A    between atoms: C_27  and  O_28
REMARK   13  A    between atoms: O_30  and  C_31
REMARK   14  A    between atoms: C_32  and  O_41
REMARK   15  A    between atoms: C_33  and  O_40
REMARK   16  A    between atoms: C_34  and  O_39
REMARK   17  A    between atoms: C_35  and  C_37
REMARK   18  A    between atoms: C_37  and  O_38
REMARK                            x       y       z     vdW  Elec       q    Type
REMARK                         _______ _______ _______ _____ _____    ______ ____
ROOT
ATOM      1  C   UNL     1       6.808  -1.095  22.801  0.00  0.00    +0.340 C 
ATOM      2  O   UNL     1       8.084  -1.781  22.934  0.00  0.00    -0.331 OA
ATOM      3  C   UNL     1       9.164  -1.157  23.691  0.00  0.00    +0.179 C 
ATOM      4  C   UNL     1       9.164   0.388  23.795  0.00  0.00    +0.177 C 
ATOM      5  C   UNL     1       7.747   0.940  23.782  0.00  0.00    +0.187 C 
ATOM      6  C   UNL     1       7.086   0.405  22.487  0.00  0.00    +0.214 C 
ENDROOT
BRANCH   6   7
ATOM      7  O   UNL     1       5.956   1.160  22.085  0.00  0.00    -0.383 OA
ATOM      8  H   UNL     1       5.742   1.818  22.779  0.00  0.00    +0.210 HD
ENDBRANCH   6   7
BRANCH   4   9
ATOM      9  O   UNL     1       9.913   0.941  22.701  0.00  0.00    -0.386 OA
ATOM     10  H   UNL     1      10.711   1.376  23.056  0.00  0.00    +0.210 HD
ENDBRANCH   4   9
BRANCH   5  11
ATOM     11  O   UNL     1       7.629   2.291  24.213  0.00  0.00    -0.340 OA
BRANCH  11  12
ATOM     12  C   UNL     1       8.533   2.941  25.085  0.00  0.00    +0.282 C 
ATOM     13  O   UNL     1       7.906   3.456  26.268  0.00  0.00    -0.341 OA
ATOM     14  C   UNL     1       6.894   4.465  26.053  0.00  0.00    +0.178 C 
ATOM     15  C   UNL     1       7.412   5.642  25.220  0.00  0.00    +0.177 C 
ATOM     16  C   UNL     1       8.059   5.131  23.926  0.00  0.00    +0.179 C 
ATOM     17  C   UNL     1       9.157   4.101  24.263  0.00  0.00    +0.201 C 
BRANCH  17  18
ATOM     18  O   UNL     1       9.770   3.615  23.064  0.00  0.00    -0.384 OA
ATOM     19  H   UNL     1       9.870   2.651  23.174  0.00  0.00    +0.210 HD
ENDBRANCH  17  18
BRANCH  16  20
ATOM     20  O   UNL     1       8.591   6.248  23.204  0.00  0.00    -0.386 OA
ATOM     21  H   UNL     1       9.546   6.075  23.092  0.00  0.00    +0.210 HD
ENDBRANCH  16  20
BRANCH  15  22
ATOM     22  O   UNL     1       8.377   6.418  25.954  0.00  0.00    -0.386 OA
ATOM     23  H   UNL     1       9.076   6.701  25.336  0.00  0.00    +0.210 HD
ENDBRANCH  15  22
BRANCH  14  24
ATOM     24  C   UNL     1       6.385   4.915  27.433  0.00  0.00    +0.190 C 
BRANCH  24  25
ATOM     25  O   UNL     1       7.433   4.978  28.391  0.00  0.00    -0.392 OA
ATOM     26  H   UNL     1       7.423   4.139  28.887  0.00  0.00    +0.210 HD
ENDBRANCH  24  25
ENDBRANCH  14  24
ENDBRANCH  11  12
ENDBRANCH   5  11
BRANCH   3  27
ATOM     27  C   UNL     1      10.511  -1.593  23.052  0.00  0.00    +0.190 C 
BRANCH  27  28
ATOM     28  O   UNL     1      10.455  -1.616  21.631  0.00  0.00    -0.392 OA
ATOM     29  H   UNL     1      10.998  -2.377  21.348  0.00  0.00    +0.210 HD
ENDBRANCH  27  28
ENDBRANCH   3  27
BRANCH   1  30
ATOM     30  O   UNL     1       6.013  -1.179  24.008  0.00  0.00    -0.453 OA
BRANCH  30  41
ATOM     31  C   UNL     1       6.238  -2.158  26.165  0.00  0.00    +0.181 A 
ATOM     32  O   UNL     1       6.148  -3.218  27.060  0.00  0.00    -0.451 OA
ATOM     33  C   UNL     1       5.642  -4.413  26.674  0.00  0.00    +0.147 A 
ATOM     34  C   UNL     1       5.233  -4.684  25.391  0.00  0.00    +0.109 A 
ATOM     35  C   UNL     1       4.668  -5.936  25.123  0.00  0.00    +0.135 A 
ATOM     36  C   UNL     1       4.587  -6.924  26.120  0.00  0.00    +0.091 A 
ATOM     37  C   UNL     1       5.092  -6.644  27.382  0.00  0.00    +0.124 A 
ATOM     38  C   UNL     1       5.463  -3.609  24.367  0.00  0.00    +0.238 A 
ATOM     39  O   UNL     1       5.191  -3.834  23.194  0.00  0.00    -0.283 OA
ATOM     40  C   UNL     1       5.587  -5.388  27.679  0.00  0.00    +0.092 A 
ATOM     41  C   UNL     1       6.013  -2.284  24.840  0.00  0.00    +0.214 A 
BRANCH  31  43
ATOM     42  C   UNL     1       7.925  -0.647  27.208  0.00  0.00    +0.015 A 
ATOM     43  C   UNL     1       6.568  -0.899  26.897  0.00  0.00    +0.025 A 
ATOM     44  C   UNL     1       5.618   0.002  27.402  0.00  0.00    +0.060 A 
ATOM     45  C   UNL     1       6.018   1.085  28.177  0.00  0.00    +0.159 A 
ATOM     46  C   UNL     1       7.352   1.275  28.513  0.00  0.00    +0.158 A 
ATOM     47  C   UNL     1       8.318   0.417  28.018  0.00  0.00    +0.050 A 
BRANCH  46  48
ATOM     48  O   UNL     1       7.667   2.303  29.353  0.00  0.00    -0.503 OA
ATOM     49  H   UNL     1       8.602   2.202  29.603  0.00  0.00    +0.292 HD
ENDBRANCH  46  48
BRANCH  45  50
ATOM     50  O   UNL     1       5.072   1.959  28.637  0.00  0.00    -0.503 OA
ATOM     51  H   UNL     1       4.542   2.181  27.846  0.00  0.00    +0.292 HD
ENDBRANCH  45  50
ENDBRANCH  31  43
BRANCH  37  52
ATOM     52  O   UNL     1       5.132  -7.587  28.377  0.00  0.00    -0.507 OA
ATOM     53  H   UNL     1       5.998  -7.534  28.826  0.00  0.00    +0.292 HD
ENDBRANCH  37  52
BRANCH  35  54
ATOM     54  O   UNL     1       4.128  -6.284  23.907  0.00  0.00    -0.506 OA
ATOM     55  H   UNL     1       3.347  -6.866  24.071  0.00  0.00    +0.292 HD
ENDBRANCH  35  54
ENDBRANCH  30  41
ENDBRANCH   1  30
TORSDOF 18
ENDMDL
