MODEL 1
REMARK VINA RESULT:      -8.0      0.000      0.000
REMARK  Name = 
REMARK  17 active torsions:
REMARK  status: ('A' for Active; 'I' for Inactive)
REMARK    1  A    between atoms: C_1  and  C_2
REMARK    2  A    between atoms: C_3  and  O_49
REMARK    3  A    between atoms: C_5  and  O_48
REMARK    4  A    between atoms: C_6  and  O_47
REMARK    5  A    between atoms: C_8  and  O_11
REMARK    6  A    between atoms: O_11  and  C_12
REMARK    7  A    between atoms: C_13  and  C_39
REMARK    8  A    between atoms: C_17  and  O_24
REMARK    9  A    between atoms: C_19  and  O_23
REMARK   10  A    between atoms: O_24  and  C_25
REMARK   11  A    between atoms: C_27  and  O_38
REMARK   12  A    between atoms: C_28  and  O_37
REMARK   13  A    between atoms: C_30  and  O_36
REMARK   14  A    between atoms: C_32  and  C_34
REMARK   15  A    between atoms: C_34  and  O_35
REMARK   16  A    between atoms: C_41  and  O_46
REMARK   17  A    between atoms: C_42  and  O_45
REMARK                            x       y       z     vdW  Elec       q    Type
REMARK                         _______ _______ _______ _____ _____    ______ ____
ROOT
ATOM      1  C   UNL     1       6.974  -4.225  24.805  0.00  0.00    +0.214 A 
ATOM      2  C   UNL     1       7.743  -3.524  23.727  0.00  0.00    +0.238 A 
ATOM      3  O   UNL     1       8.233  -4.119  22.776  0.00  0.00    -0.283 OA
ATOM      4  C   UNL     1       8.049  -2.102  23.920  0.00  0.00    +0.109 A 
ATOM      5  C   UNL     1       7.901  -1.578  25.198  0.00  0.00    +0.147 A 
ATOM      6  C   UNL     1       8.321  -0.266  25.463  0.00  0.00    +0.093 A 
ATOM      7  C   UNL     1       8.887   0.519  24.446  0.00  0.00    +0.131 A 
ATOM      8  C   UNL     1       9.028  -0.014  23.166  0.00  0.00    +0.092 A 
ATOM      9  O   UNL     1       7.379  -2.304  26.243  0.00  0.00    -0.451 OA
ATOM     10  C   UNL     1       8.590  -1.308  22.898  0.00  0.00    +0.135 A 
ATOM     11  C   UNL     1       6.886  -3.580  25.989  0.00  0.00    +0.181 A 
ENDROOT
BRANCH  11  12
ATOM     12  C   UNL     1       6.316  -4.234  27.191  0.00  0.00    +0.025 A 
ATOM     13  C   UNL     1       5.221  -3.678  27.871  0.00  0.00    +0.015 A 
ATOM     14  C   UNL     1       4.661  -4.329  28.983  0.00  0.00    +0.050 A 
ATOM     15  C   UNL     1       5.201  -5.529  29.414  0.00  0.00    +0.158 A 
ATOM     16  C   UNL     1       6.295  -6.085  28.760  0.00  0.00    +0.159 A 
ATOM     17  C   UNL     1       6.859  -5.449  27.655  0.00  0.00    +0.060 A 
BRANCH  16  18
ATOM     18  O   UNL     1       6.783  -7.272  29.245  0.00  0.00    -0.503 OA
ATOM     19  H   UNL     1       7.754  -7.234  29.219  0.00  0.00    +0.292 HD
ENDBRANCH  16  18
BRANCH  15  20
ATOM     20  O   UNL     1       4.644  -6.175  30.482  0.00  0.00    -0.503 OA
ATOM     21  H   UNL     1       3.730  -5.832  30.534  0.00  0.00    +0.292 HD
ENDBRANCH  15  20
ENDBRANCH  11  12
BRANCH  10  22
ATOM     22  O   UNL     1       8.677  -1.773  21.616  0.00  0.00    -0.506 OA
ATOM     23  H   UNL     1       8.339  -2.680  21.556  0.00  0.00    +0.292 HD
ENDBRANCH  10  22
BRANCH   7  24
ATOM     24  O   UNL     1       9.328   1.815  24.551  0.00  0.00    -0.461 OA
BRANCH  24  25
ATOM     25  C   UNL     1       9.182   2.635  23.383  0.00  0.00    +0.339 C 
ATOM     26  O   UNL     1      10.432   3.221  23.008  0.00  0.00    -0.331 OA
ATOM     27  C   UNL     1      10.926   4.199  23.946  0.00  0.00    +0.179 C 
ATOM     28  C   UNL     1       9.933   5.370  24.053  0.00  0.00    +0.177 C 
ATOM     29  C   UNL     1       8.577   4.838  24.534  0.00  0.00    +0.180 C 
ATOM     30  C   UNL     1       8.090   3.705  23.622  0.00  0.00    +0.214 C 
BRANCH  29  31
ATOM     31  O   UNL     1       8.634   4.412  25.903  0.00  0.00    -0.386 OA
ATOM     32  H   UNL     1       8.735   3.442  25.932  0.00  0.00    +0.210 HD
ENDBRANCH  29  31
BRANCH  30  33
ATOM     33  O   UNL     1       6.885   3.134  24.152  0.00  0.00    -0.383 OA
ATOM     34  H   UNL     1       6.142   3.648  23.779  0.00  0.00    +0.210 HD
ENDBRANCH  30  33
BRANCH  28  35
ATOM     35  O   UNL     1       9.789   5.988  22.770  0.00  0.00    -0.386 OA
ATOM     36  H   UNL     1       9.050   6.620  22.805  0.00  0.00    +0.210 HD
ENDBRANCH  28  35
BRANCH  27  37
ATOM     37  C   UNL     1      12.306   4.677  23.471  0.00  0.00    +0.190 C 
BRANCH  37  38
ATOM     38  O   UNL     1      12.724   5.854  24.166  0.00  0.00    -0.392 OA
ATOM     39  H   UNL     1      13.660   6.019  23.972  0.00  0.00    +0.210 HD
ENDBRANCH  37  38
ENDBRANCH  27  37
ENDBRANCH  24  25
ENDBRANCH   7  24
BRANCH   1  40
ATOM     40  O   UNL     1       6.471  -5.514  24.654  0.00  0.00    -0.453 OA
BRANCH  40  44
ATOM     41  C   UNL     1       2.911  -6.569  26.905  0.00  0.00    +0.041 C 
ATOM     42  C   UNL     1       3.410  -7.312  25.665  0.00  0.00    +0.150 C 
ATOM     43  O   UNL     1       4.792  -7.045  25.368  0.00  0.00    -0.334 OA
ATOM     44  C   UNL     1       5.067  -5.721  24.886  0.00  0.00    +0.339 C 
ATOM     45  C   UNL     1       4.303  -5.463  23.572  0.00  0.00    +0.214 C 
ATOM     46  C   UNL     1       2.803  -5.666  23.828  0.00  0.00    +0.180 C 
ATOM     47  C   UNL     1       2.528  -7.050  24.436  0.00  0.00    +0.174 C 
BRANCH  47  48
ATOM     48  O   UNL     1       2.799  -8.042  23.426  0.00  0.00    -0.387 OA
ATOM     49  H   UNL     1       2.135  -7.890  22.716  0.00  0.00    +0.210 HD
ENDBRANCH  47  48
BRANCH  46  50
ATOM     50  O   UNL     1       2.093  -5.537  22.589  0.00  0.00    -0.386 OA
ATOM     51  H   UNL     1       2.333  -4.650  22.245  0.00  0.00    +0.210 HD
ENDBRANCH  46  50
BRANCH  45  52
ATOM     52  O   UNL     1       4.726  -6.364  22.528  0.00  0.00    -0.383 OA
ATOM     53  H   UNL     1       3.902  -6.677  22.109  0.00  0.00    +0.210 HD
ENDBRANCH  45  52
ENDBRANCH  40  44
ENDBRANCH   1  40
TORSDOF 16
ENDMDL
MODEL 2
REMARK VINA RESULT:      -7.8      1.325      2.014
REMARK  Name = 
REMARK  17 active torsions:
REMARK  status: ('A' for Active; 'I' for Inactive)
REMARK    1  A    between atoms: C_1  and  C_2
REMARK    2  A    between atoms: C_3  and  O_49
REMARK    3  A    between atoms: C_5  and  O_48
REMARK    4  A    between atoms: C_6  and  O_47
REMARK    5  A    between atoms: C_8  and  O_11
REMARK    6  A    between atoms: O_11  and  C_12
REMARK    7  A    between atoms: C_13  and  C_39
REMARK    8  A    between atoms: C_17  and  O_24
REMARK    9  A    between atoms: C_19  and  O_23
REMARK   10  A    between atoms: O_24  and  C_25
REMARK   11  A    between atoms: C_27  and  O_38
REMARK   12  A    between atoms: C_28  and  O_37
REMARK   13  A    between atoms: C_30  and  O_36
REMARK   14  A    between atoms: C_32  and  C_34
REMARK   15  A    between atoms: C_34  and  O_35
REMARK   16  A    between atoms: C_41  and  O_46
REMARK   17  A    between atoms: C_42  and  O_45
REMARK                            x       y       z     vdW  Elec       q    Type
REMARK                         _______ _______ _______ _____ _____    ______ ____
ROOT
ATOM      1  C   UNL     1       7.533  -3.848  25.568  0.00  0.00    +0.214 A 
ATOM      2  C   UNL     1       8.706  -3.343  24.785  0.00  0.00    +0.238 A 
ATOM      3  O   UNL     1       9.566  -4.090  24.333  0.00  0.00    -0.283 OA
ATOM      4  C   UNL     1       8.904  -1.892  24.707  0.00  0.00    +0.109 A 
ATOM      5  C   UNL     1       8.205  -1.097  25.607  0.00  0.00    +0.147 A 
ATOM      6  C   UNL     1       8.470   0.279  25.670  0.00  0.00    +0.093 A 
ATOM      7  C   UNL     1       9.435   0.856  24.830  0.00  0.00    +0.131 A 
ATOM      8  C   UNL     1      10.129   0.051  23.928  0.00  0.00    +0.092 A 
ATOM      9  O   UNL     1       7.267  -1.606  26.476  0.00  0.00    -0.451 OA
ATOM     10  C   UNL     1       9.848  -1.310  23.849  0.00  0.00    +0.135 A 
ATOM     11  C   UNL     1       6.931  -2.952  26.381  0.00  0.00    +0.181 A 
ENDROOT
BRANCH  11  12
ATOM     12  C   UNL     1       5.882  -3.360  27.345  0.00  0.00    +0.025 A 
ATOM     13  C   UNL     1       4.680  -2.642  27.459  0.00  0.00    +0.015 A 
ATOM     14  C   UNL     1       3.674  -3.061  28.344  0.00  0.00    +0.050 A 
ATOM     15  C   UNL     1       3.874  -4.194  29.116  0.00  0.00    +0.158 A 
ATOM     16  C   UNL     1       5.063  -4.907  29.025  0.00  0.00    +0.159 A 
ATOM     17  C   UNL     1       6.070  -4.501  28.151  0.00  0.00    +0.060 A 
BRANCH  16  18
ATOM     18  O   UNL     1       5.197  -6.014  29.825  0.00  0.00    -0.503 OA
ATOM     19  H   UNL     1       6.071  -5.980  30.248  0.00  0.00    +0.292 HD
ENDBRANCH  16  18
BRANCH  15  20
ATOM     20  O   UNL     1       2.887  -4.617  29.962  0.00  0.00    -0.503 OA
ATOM     21  H   UNL     1       2.501  -5.401  29.524  0.00  0.00    +0.292 HD
ENDBRANCH  15  20
ENDBRANCH  11  12
BRANCH  10  22
ATOM     22  O   UNL     1      10.495  -2.055  22.904  0.00  0.00    -0.506 OA
ATOM     23  H   UNL     1      10.286  -2.997  23.007  0.00  0.00    +0.292 HD
ENDBRANCH  10  22
BRANCH   7  24
ATOM     24  O   UNL     1       9.792   2.180  24.768  0.00  0.00    -0.461 OA
BRANCH  24  25
ATOM     25  C   UNL     1       9.530   2.855  23.529  0.00  0.00    +0.339 C 
ATOM     26  O   UNL     1      10.667   3.612  23.106  0.00  0.00    -0.331 OA
ATOM     27  C   UNL     1      10.968   4.740  23.951  0.00  0.00    +0.179 C 
ATOM     28  C   UNL     1       9.788   5.727  23.947  0.00  0.00    +0.177 C 
ATOM     29  C   UNL     1       8.534   5.015  24.471  0.00  0.00    +0.180 C 
ATOM     30  C   UNL     1       8.266   3.737  23.665  0.00  0.00    +0.214 C 
BRANCH  29  31
ATOM     31  O   UNL     1       8.637   4.730  25.874  0.00  0.00    -0.386 OA
ATOM     32  H   UNL     1       8.456   3.783  26.021  0.00  0.00    +0.210 HD
ENDBRANCH  29  31
BRANCH  30  33
ATOM     33  O   UNL     1       7.167   3.017  24.242  0.00  0.00    -0.383 OA
ATOM     34  H   UNL     1       7.033   2.220  23.693  0.00  0.00    +0.210 HD
ENDBRANCH  30  33
BRANCH  28  35
ATOM     35  O   UNL     1       9.564   6.193  22.613  0.00  0.00    -0.386 OA
ATOM     36  H   UNL     1      10.223   5.788  22.022  0.00  0.00    +0.210 HD
ENDBRANCH  28  35
BRANCH  27  37
ATOM     37  C   UNL     1      12.255   5.404  23.439  0.00  0.00    +0.190 C 
BRANCH  37  38
ATOM     38  O   UNL     1      12.376   5.293  22.019  0.00  0.00    -0.392 OA
ATOM     39  H   UNL     1      11.826   5.975  21.601  0.00  0.00    +0.210 HD
ENDBRANCH  37  38
ENDBRANCH  27  37
ENDBRANCH  24  25
ENDBRANCH   7  24
BRANCH   1  40
ATOM     40  O   UNL     1       7.142  -5.184  25.562  0.00  0.00    -0.453 OA
BRANCH  40  44
ATOM     41  C   UNL     1       6.430  -5.803  21.324  0.00  0.00    +0.041 C 
ATOM     42  C   UNL     1       5.482  -5.061  22.268  0.00  0.00    +0.150 C 
ATOM     43  O   UNL     1       6.122  -4.631  23.482  0.00  0.00    -0.334 OA
ATOM     44  C   UNL     1       6.468  -5.684  24.394  0.00  0.00    +0.339 C 
ATOM     45  C   UNL     1       5.201  -6.442  24.839  0.00  0.00    +0.214 C 
ATOM     46  C   UNL     1       4.495  -6.990  23.591  0.00  0.00    +0.180 C 
ATOM     47  C   UNL     1       4.216  -5.871  22.576  0.00  0.00    +0.174 C 
BRANCH  47  48
ATOM     48  O   UNL     1       3.210  -5.004  23.135  0.00  0.00    -0.387 OA
ATOM     49  H   UNL     1       3.389  -4.110  22.764  0.00  0.00    +0.210 HD
ENDBRANCH  47  48
BRANCH  46  50
ATOM     50  O   UNL     1       3.258  -7.603  23.982  0.00  0.00    -0.386 OA
ATOM     51  H   UNL     1       2.813  -6.942  24.555  0.00  0.00    +0.210 HD
ENDBRANCH  46  50
BRANCH  45  52
ATOM     52  O   UNL     1       4.291  -5.580  25.551  0.00  0.00    -0.383 OA
ATOM     53  H   UNL     1       4.604  -4.672  25.373  0.00  0.00    +0.210 HD
ENDBRANCH  45  52
ENDBRANCH  40  44
ENDBRANCH   1  40
TORSDOF 16
ENDMDL
MODEL 3
REMARK VINA RESULT:      -7.3      2.194      4.875
REMARK  Name = 
REMARK  17 active torsions:
REMARK  status: ('A' for Active; 'I' for Inactive)
REMARK    1  A    between atoms: C_1  and  C_2
REMARK    2  A    between atoms: C_3  and  O_49
REMARK    3  A    between atoms: C_5  and  O_48
REMARK    4  A    between atoms: C_6  and  O_47
REMARK    5  A    between atoms: C_8  and  O_11
REMARK    6  A    between atoms: O_11  and  C_12
REMARK    7  A    between atoms: C_13  and  C_39
REMARK    8  A    between atoms: C_17  and  O_24
REMARK    9  A    between atoms: C_19  and  O_23
REMARK   10  A    between atoms: O_24  and  C_25
REMARK   11  A    between atoms: C_27  and  O_38
REMARK   12  A    between atoms: C_28  and  O_37
REMARK   13  A    between atoms: C_30  and  O_36
REMARK   14  A    between atoms: C_32  and  C_34
REMARK   15  A    between atoms: C_34  and  O_35
REMARK   16  A    between atoms: C_41  and  O_46
REMARK   17  A    between atoms: C_42  and  O_45
REMARK                            x       y       z     vdW  Elec       q    Type
REMARK                         _______ _______ _______ _____ _____    ______ ____
ROOT
ATOM      1  C   UNL     1       6.957  -2.862  25.374  0.00  0.00    +0.214 A 
ATOM      2  C   UNL     1       7.890  -1.764  25.784  0.00  0.00    +0.238 A 
ATOM      3  O   UNL     1       8.611  -1.847  26.770  0.00  0.00    -0.283 OA
ATOM      4  C   UNL     1       7.803  -0.489  25.063  0.00  0.00    +0.109 A 
ATOM      5  C   UNL     1       6.674  -0.263  24.285  0.00  0.00    +0.147 A 
ATOM      6  C   UNL     1       6.476   0.994  23.697  0.00  0.00    +0.093 A 
ATOM      7  C   UNL     1       7.411   2.024  23.889  0.00  0.00    +0.131 A 
ATOM      8  C   UNL     1       8.542   1.787  24.669  0.00  0.00    +0.092 A 
ATOM      9  O   UNL     1       5.709  -1.222  24.081  0.00  0.00    -0.451 OA
ATOM     10  C   UNL     1       8.750   0.531  25.233  0.00  0.00    +0.135 A 
ATOM     11  C   UNL     1       5.918  -2.500  24.589  0.00  0.00    +0.181 A 
ENDROOT
BRANCH  11  12
ATOM     12  C   UNL     1       4.823  -3.443  24.264  0.00  0.00    +0.025 A 
ATOM     13  C   UNL     1       3.558  -3.324  24.864  0.00  0.00    +0.015 A 
ATOM     14  C   UNL     1       2.514  -4.196  24.516  0.00  0.00    +0.050 A 
ATOM     15  C   UNL     1       2.739  -5.188  23.576  0.00  0.00    +0.158 A 
ATOM     16  C   UNL     1       3.988  -5.328  22.984  0.00  0.00    +0.159 A 
ATOM     17  C   UNL     1       5.033  -4.468  23.320  0.00  0.00    +0.060 A 
BRANCH  16  18
ATOM     18  O   UNL     1       4.142  -6.336  22.066  0.00  0.00    -0.503 OA
ATOM     19  H   UNL     1       3.372  -6.926  22.130  0.00  0.00    +0.292 HD
ENDBRANCH  16  18
BRANCH  15  20
ATOM     20  O   UNL     1       1.717  -6.025  23.220  0.00  0.00    -0.503 OA
ATOM     21  H   UNL     1       1.903  -6.861  23.692  0.00  0.00    +0.292 HD
ENDBRANCH  15  20
ENDBRANCH  11  12
BRANCH  10  22
ATOM     22  O   UNL     1       9.904   0.313  25.930  0.00  0.00    -0.506 OA
ATOM     23  H   UNL     1       9.723   0.245  26.881  0.00  0.00    +0.292 HD
ENDBRANCH  10  22
BRANCH   7  24
ATOM     24  O   UNL     1       7.360   3.294  23.370  0.00  0.00    -0.461 OA
BRANCH  24  25
ATOM     25  C   UNL     1       6.744   4.295  24.194  0.00  0.00    +0.339 C 
ATOM     26  O   UNL     1       5.331   4.342  23.974  0.00  0.00    -0.331 OA
ATOM     27  C   UNL     1       4.957   4.822  22.667  0.00  0.00    +0.179 C 
ATOM     28  C   UNL     1       5.455   6.265  22.477  0.00  0.00    +0.177 C 
ATOM     29  C   UNL     1       6.983   6.293  22.615  0.00  0.00    +0.180 C 
ATOM     30  C   UNL     1       7.413   5.668  23.948  0.00  0.00    +0.214 C 
BRANCH  29  31
ATOM     31  O   UNL     1       7.623   5.643  21.507  0.00  0.00    -0.386 OA
ATOM     32  H   UNL     1       7.496   6.181  20.703  0.00  0.00    +0.210 HD
ENDBRANCH  29  31
BRANCH  30  33
ATOM     33  O   UNL     1       8.844   5.587  24.010  0.00  0.00    -0.383 OA
ATOM     34  H   UNL     1       9.146   6.345  24.548  0.00  0.00    +0.210 HD
ENDBRANCH  30  33
BRANCH  28  35
ATOM     35  O   UNL     1       4.859   7.107  23.469  0.00  0.00    -0.386 OA
ATOM     36  H   UNL     1       3.928   6.849  23.584  0.00  0.00    +0.210 HD
ENDBRANCH  28  35
BRANCH  27  37
ATOM     37  C   UNL     1       3.429   4.735  22.534  0.00  0.00    +0.190 C 
BRANCH  37  38
ATOM     38  O   UNL     1       2.947   5.543  21.457  0.00  0.00    -0.392 OA
ATOM     39  H   UNL     1       1.990   5.665  21.559  0.00  0.00    +0.210 HD
ENDBRANCH  37  38
ENDBRANCH  27  37
ENDBRANCH  24  25
ENDBRANCH   7  24
BRANCH   1  40
ATOM     40  O   UNL     1       7.067  -4.164  25.857  0.00  0.00    -0.453 OA
BRANCH  40  44
ATOM     41  C   UNL     1       3.506  -3.937  28.331  0.00  0.00    +0.041 C 
ATOM     42  C   UNL     1       4.919  -4.196  28.857  0.00  0.00    +0.150 C 
ATOM     43  O   UNL     1       5.945  -3.809  27.928  0.00  0.00    -0.334 OA
ATOM     44  C   UNL     1       6.053  -4.637  26.760  0.00  0.00    +0.339 C 
ATOM     45  C   UNL     1       6.385  -6.087  27.163  0.00  0.00    +0.214 C 
ATOM     46  C   UNL     1       5.290  -6.595  28.112  0.00  0.00    +0.180 C 
ATOM     47  C   UNL     1       5.113  -5.650  29.310  0.00  0.00    +0.174 C 
BRANCH  47  48
ATOM     48  O   UNL     1       6.293  -5.747  30.132  0.00  0.00    -0.387 OA
ATOM     49  H   UNL     1       6.664  -6.643  29.963  0.00  0.00    +0.210 HD
ENDBRANCH  47  48
BRANCH  46  50
ATOM     50  O   UNL     1       5.644  -7.904  28.580  0.00  0.00    -0.386 OA
ATOM     51  H   UNL     1       5.340  -7.935  29.512  0.00  0.00    +0.210 HD
ENDBRANCH  46  50
BRANCH  45  52
ATOM     52  O   UNL     1       7.660  -6.172  27.832  0.00  0.00    -0.383 OA
ATOM     53  H   UNL     1       7.945  -7.100  27.726  0.00  0.00    +0.210 HD
ENDBRANCH  45  52
ENDBRANCH  40  44
ENDBRANCH   1  40
TORSDOF 16
ENDMDL
MODEL 4
REMARK VINA RESULT:      -7.1      2.581      9.982
REMARK  Name = 
REMARK  17 active torsions:
REMARK  status: ('A' for Active; 'I' for Inactive)
REMARK    1  A    between atoms: C_1  and  C_2
REMARK    2  A    between atoms: C_3  and  O_49
REMARK    3  A    between atoms: C_5  and  O_48
REMARK    4  A    between atoms: C_6  and  O_47
REMARK    5  A    between atoms: C_8  and  O_11
REMARK    6  A    between atoms: O_11  and  C_12
REMARK    7  A    between atoms: C_13  and  C_39
REMARK    8  A    between atoms: C_17  and  O_24
REMARK    9  A    between atoms: C_19  and  O_23
REMARK   10  A    between atoms: O_24  and  C_25
REMARK   11  A    between atoms: C_27  and  O_38
REMARK   12  A    between atoms: C_28  and  O_37
REMARK   13  A    between atoms: C_30  and  O_36
REMARK   14  A    between atoms: C_32  and  C_34
REMARK   15  A    between atoms: C_34  and  O_35
REMARK   16  A    between atoms: C_41  and  O_46
REMARK   17  A    between atoms: C_42  and  O_45
REMARK                            x       y       z     vdW  Elec       q    Type
REMARK                         _______ _______ _______ _____ _____    ______ ____
ROOT
ATOM      1  C   UNL     1       7.506  -1.377  24.865  0.00  0.00    +0.214 A 
ATOM      2  C   UNL     1       7.265  -2.437  23.835  0.00  0.00    +0.238 A 
ATOM      3  O   UNL     1       7.841  -2.447  22.754  0.00  0.00    -0.283 OA
ATOM      4  C   UNL     1       6.180  -3.394  24.078  0.00  0.00    +0.109 A 
ATOM      5  C   UNL     1       5.250  -3.078  25.061  0.00  0.00    +0.147 A 
ATOM      6  C   UNL     1       4.116  -3.886  25.229  0.00  0.00    +0.093 A 
ATOM      7  C   UNL     1       3.917  -5.011  24.413  0.00  0.00    +0.131 A 
ATOM      8  C   UNL     1       4.857  -5.322  23.432  0.00  0.00    +0.092 A 
ATOM      9  O   UNL     1       5.374  -1.975  25.874  0.00  0.00    -0.451 OA
ATOM     10  C   UNL     1       5.994  -4.533  23.282  0.00  0.00    +0.135 A 
ATOM     11  C   UNL     1       6.526  -1.201  25.779  0.00  0.00    +0.181 A 
ENDROOT
BRANCH  11  12
ATOM     12  C   UNL     1       6.550  -0.071  26.737  0.00  0.00    +0.025 A 
ATOM     13  C   UNL     1       5.628   0.984  26.640  0.00  0.00    +0.015 A 
ATOM     14  C   UNL     1       5.631   2.029  27.579  0.00  0.00    +0.050 A 
ATOM     15  C   UNL     1       6.558   2.018  28.608  0.00  0.00    +0.158 A 
ATOM     16  C   UNL     1       7.487   0.988  28.709  0.00  0.00    +0.159 A 
ATOM     17  C   UNL     1       7.494  -0.054  27.784  0.00  0.00    +0.060 A 
BRANCH  16  18
ATOM     18  O   UNL     1       8.380   1.045  29.749  0.00  0.00    -0.503 OA
ATOM     19  H   UNL     1       8.659   0.138  29.960  0.00  0.00    +0.292 HD
ENDBRANCH  16  18
BRANCH  15  20
ATOM     20  O   UNL     1       6.549   3.022  29.535  0.00  0.00    -0.503 OA
ATOM     21  H   UNL     1       5.952   3.701  29.163  0.00  0.00    +0.292 HD
ENDBRANCH  15  20
ENDBRANCH  11  12
BRANCH  10  22
ATOM     22  O   UNL     1       6.930  -4.909  22.360  0.00  0.00    -0.506 OA
ATOM     23  H   UNL     1       7.300  -4.132  21.910  0.00  0.00    +0.292 HD
ENDBRANCH  10  22
BRANCH   7  24
ATOM     24  O   UNL     1       2.870  -5.897  24.469  0.00  0.00    -0.461 OA
BRANCH  24  25
ATOM     25  C   UNL     1       3.214  -7.289  24.505  0.00  0.00    +0.339 C 
ATOM     26  O   UNL     1       2.541  -8.012  23.471  0.00  0.00    -0.331 OA
ATOM     27  C   UNL     1       1.112  -8.098  23.650  0.00  0.00    +0.179 C 
ATOM     28  C   UNL     1       0.793  -8.846  24.956  0.00  0.00    +0.177 C 
ATOM     29  C   UNL     1       1.412  -8.088  26.137  0.00  0.00    +0.180 C 
ATOM     30  C   UNL     1       2.914  -7.871  25.907  0.00  0.00    +0.214 C 
BRANCH  29  31
ATOM     31  O   UNL     1       0.740  -6.842  26.373  0.00  0.00    -0.386 OA
ATOM     32  H   UNL     1       0.630  -6.372  25.525  0.00  0.00    +0.210 HD
ENDBRANCH  29  31
BRANCH  30  33
ATOM     33  O   UNL     1       3.456  -7.055  26.956  0.00  0.00    -0.383 OA
ATOM     34  H   UNL     1       3.284  -7.524  27.795  0.00  0.00    +0.210 HD
ENDBRANCH  30  33
BRANCH  28  35
ATOM     35  O   UNL     1       1.333 -10.170  24.888  0.00  0.00    -0.386 OA
ATOM     36  H   UNL     1       1.290 -10.481  23.967  0.00  0.00    +0.210 HD
ENDBRANCH  28  35
BRANCH  27  37
ATOM     37  C   UNL     1       0.509  -8.814  22.433  0.00  0.00    +0.190 C 
BRANCH  37  38
ATOM     38  O   UNL     1       1.395  -8.781  21.311  0.00  0.00    -0.392 OA
ATOM     39  H   UNL     1       0.974  -8.283  20.592  0.00  0.00    +0.210 HD
ENDBRANCH  37  38
ENDBRANCH  27  37
ENDBRANCH  24  25
ENDBRANCH   7  24
BRANCH   1  40
ATOM     40  O   UNL     1       8.613  -0.533  24.833  0.00  0.00    -0.453 OA
BRANCH  40  44
ATOM     41  C   UNL     1       6.680   3.189  23.711  0.00  0.00    +0.041 C 
ATOM     42  C   UNL     1       7.042   2.067  22.737  0.00  0.00    +0.150 C 
ATOM     43  O   UNL     1       7.271   0.807  23.392  0.00  0.00    -0.334 OA
ATOM     44  C   UNL     1       8.473   0.737  24.174  0.00  0.00    +0.339 C 
ATOM     45  C   UNL     1       9.707   0.970  23.278  0.00  0.00    +0.214 C 
ATOM     46  C   UNL     1       9.563   2.335  22.591  0.00  0.00    +0.180 C 
ATOM     47  C   UNL     1       8.228   2.437  21.837  0.00  0.00    +0.174 C 
BRANCH  47  48
ATOM     48  O   UNL     1       8.282   1.538  20.712  0.00  0.00    -0.387 OA
ATOM     49  H   UNL     1       9.202   1.188  20.692  0.00  0.00    +0.210 HD
ENDBRANCH  47  48
BRANCH  46  50
ATOM     50  O   UNL     1      10.649   2.514  21.671  0.00  0.00    -0.386 OA
ATOM     51  H   UNL     1      10.247   2.442  20.780  0.00  0.00    +0.210 HD
ENDBRANCH  46  50
BRANCH  45  52
ATOM     52  O   UNL     1       9.827  -0.053  22.268  0.00  0.00    -0.383 OA
ATOM     53  H   UNL     1      10.467   0.300  21.620  0.00  0.00    +0.210 HD
ENDBRANCH  45  52
ENDBRANCH  40  44
ENDBRANCH   1  40
TORSDOF 16
ENDMDL
MODEL 5
REMARK VINA RESULT:      -7.1      2.627      9.788
REMARK  Name = 
REMARK  17 active torsions:
REMARK  status: ('A' for Active; 'I' for Inactive)
REMARK    1  A    between atoms: C_1  and  C_2
REMARK    2  A    between atoms: C_3  and  O_49
REMARK    3  A    between atoms: C_5  and  O_48
REMARK    4  A    between atoms: C_6  and  O_47
REMARK    5  A    between atoms: C_8  and  O_11
REMARK    6  A    between atoms: O_11  and  C_12
REMARK    7  A    between atoms: C_13  and  C_39
REMARK    8  A    between atoms: C_17  and  O_24
REMARK    9  A    between atoms: C_19  and  O_23
REMARK   10  A    between atoms: O_24  and  C_25
REMARK   11  A    between atoms: C_27  and  O_38
REMARK   12  A    between atoms: C_28  and  O_37
REMARK   13  A    between atoms: C_30  and  O_36
REMARK   14  A    between atoms: C_32  and  C_34
REMARK   15  A    between atoms: C_34  and  O_35
REMARK   16  A    between atoms: C_41  and  O_46
REMARK   17  A    between atoms: C_42  and  O_45
REMARK                            x       y       z     vdW  Elec       q    Type
REMARK                         _______ _______ _______ _____ _____    ______ ____
ROOT
ATOM      1  C   UNL     1       7.687   1.247  25.193  0.00  0.00    +0.214 A 
ATOM      2  C   UNL     1       7.804   0.341  24.006  0.00  0.00    +0.238 A 
ATOM      3  O   UNL     1       8.344   0.688  22.963  0.00  0.00    -0.283 OA
ATOM      4  C   UNL     1       7.096  -0.944  24.054  0.00  0.00    +0.109 A 
ATOM      5  C   UNL     1       6.120  -1.107  25.029  0.00  0.00    +0.147 A 
ATOM      6  C   UNL     1       5.317  -2.256  25.023  0.00  0.00    +0.093 A 
ATOM      7  C   UNL     1       5.495  -3.243  24.040  0.00  0.00    +0.131 A 
ATOM      8  C   UNL     1       6.480  -3.073  23.068  0.00  0.00    +0.092 A 
ATOM      9  O   UNL     1       5.878  -0.165  26.003  0.00  0.00    -0.451 OA
ATOM     10  C   UNL     1       7.292  -1.942  23.089  0.00  0.00    +0.135 A 
ATOM     11  C   UNL     1       6.710   0.948  26.077  0.00  0.00    +0.181 A 
ENDROOT
BRANCH  11  12
ATOM     12  C   UNL     1       6.365   1.860  27.193  0.00  0.00    +0.025 A 
ATOM     13  C   UNL     1       5.134   2.536  27.226  0.00  0.00    +0.015 A 
ATOM     14  C   UNL     1       4.799   3.364  28.309  0.00  0.00    +0.050 A 
ATOM     15  C   UNL     1       5.697   3.518  29.353  0.00  0.00    +0.158 A 
ATOM     16  C   UNL     1       6.924   2.867  29.329  0.00  0.00    +0.159 A 
ATOM     17  C   UNL     1       7.269   2.043  28.259  0.00  0.00    +0.060 A 
BRANCH  16  18
ATOM     18  O   UNL     1       7.767   3.071  30.392  0.00  0.00    -0.503 OA
ATOM     19  H   UNL     1       7.780   4.022  30.592  0.00  0.00    +0.292 HD
ENDBRANCH  16  18
BRANCH  15  20
ATOM     20  O   UNL     1       5.364   4.307  30.419  0.00  0.00    -0.503 OA
ATOM     21  H   UNL     1       4.593   3.864  30.827  0.00  0.00    +0.292 HD
ENDBRANCH  15  20
ENDBRANCH  11  12
BRANCH  10  22
ATOM     22  O   UNL     1       8.294  -1.843  22.165  0.00  0.00    -0.506 OA
ATOM     23  H   UNL     1       8.576  -0.920  22.063  0.00  0.00    +0.292 HD
ENDBRANCH  10  22
BRANCH   7  24
ATOM     24  O   UNL     1       4.800  -4.420  23.915  0.00  0.00    -0.461 OA
BRANCH  24  25
ATOM     25  C   UNL     1       3.697  -4.607  24.813  0.00  0.00    +0.339 C 
ATOM     26  O   UNL     1       4.155  -4.841  26.148  0.00  0.00    -0.331 OA
ATOM     27  C   UNL     1       4.840  -6.098  26.320  0.00  0.00    +0.179 C 
ATOM     28  C   UNL     1       3.887  -7.262  25.998  0.00  0.00    +0.177 C 
ATOM     29  C   UNL     1       3.408  -7.135  24.547  0.00  0.00    +0.180 C 
ATOM     30  C   UNL     1       2.789  -5.753  24.304  0.00  0.00    +0.214 C 
BRANCH  29  31
ATOM     31  O   UNL     1       4.470  -7.396  23.617  0.00  0.00    -0.386 OA
ATOM     32  H   UNL     1       5.077  -8.056  24.002  0.00  0.00    +0.210 HD
ENDBRANCH  29  31
BRANCH  30  33
ATOM     33  O   UNL     1       2.459  -5.601  22.916  0.00  0.00    -0.383 OA
ATOM     34  H   UNL     1       2.915  -6.320  22.438  0.00  0.00    +0.210 HD
ENDBRANCH  30  33
BRANCH  28  35
ATOM     35  O   UNL     1       2.767  -7.218  26.888  0.00  0.00    -0.386 OA
ATOM     36  H   UNL     1       2.254  -6.411  26.709  0.00  0.00    +0.210 HD
ENDBRANCH  28  35
BRANCH  27  37
ATOM     37  C   UNL     1       5.355  -6.179  27.765  0.00  0.00    +0.190 C 
BRANCH  37  38
ATOM     38  O   UNL     1       5.398  -7.529  28.234  0.00  0.00    -0.392 OA
ATOM     39  H   UNL     1       5.629  -7.528  29.177  0.00  0.00    +0.210 HD
ENDBRANCH  37  38
ENDBRANCH  27  37
ENDBRANCH  24  25
ENDBRANCH   7  24
BRANCH   1  40
ATOM     40  O   UNL     1       8.453   2.400  25.338  0.00  0.00    -0.453 OA
BRANCH  40  44
ATOM     41  C   UNL     1       5.389   5.422  24.760  0.00  0.00    +0.041 C 
ATOM     42  C   UNL     1       6.072   4.646  23.633  0.00  0.00    +0.150 C 
ATOM     43  O   UNL     1       6.714   3.442  24.088  0.00  0.00    -0.334 OA
ATOM     44  C   UNL     1       7.892   3.644  24.883  0.00  0.00    +0.339 C 
ATOM     45  C   UNL     1       8.961   4.403  24.070  0.00  0.00    +0.214 C 
ATOM     46  C   UNL     1       8.365   5.737  23.603  0.00  0.00    +0.180 C 
ATOM     47  C   UNL     1       7.051   5.519  22.836  0.00  0.00    +0.174 C 
BRANCH  47  48
ATOM     48  O   UNL     1       7.366   4.875  21.586  0.00  0.00    -0.387 OA
ATOM     49  H   UNL     1       7.883   4.072  21.821  0.00  0.00    +0.210 HD
ENDBRANCH  47  48
BRANCH  46  50
ATOM     50  O   UNL     1       9.310   6.403  22.754  0.00  0.00    -0.386 OA
ATOM     51  H   UNL     1      10.172   5.972  22.940  0.00  0.00    +0.210 HD
ENDBRANCH  46  50
BRANCH  45  52
ATOM     52  O   UNL     1       9.382   3.648  22.916  0.00  0.00    -0.383 OA
ATOM     53  H   UNL     1       8.665   3.756  22.262  0.00  0.00    +0.210 HD
ENDBRANCH  45  52
ENDBRANCH  40  44
ENDBRANCH   1  40
TORSDOF 16
ENDMDL
MODEL 6
REMARK VINA RESULT:      -7.0      2.262      4.572
REMARK  Name = 
REMARK  17 active torsions:
REMARK  status: ('A' for Active; 'I' for Inactive)
REMARK    1  A    between atoms: C_1  and  C_2
REMARK    2  A    between atoms: C_3  and  O_49
REMARK    3  A    between atoms: C_5  and  O_48
REMARK    4  A    between atoms: C_6  and  O_47
REMARK    5  A    between atoms: C_8  and  O_11
REMARK    6  A    between atoms: O_11  and  C_12
REMARK    7  A    between atoms: C_13  and  C_39
REMARK    8  A    between atoms: C_17  and  O_24
REMARK    9  A    between atoms: C_19  and  O_23
REMARK   10  A    between atoms: O_24  and  C_25
REMARK   11  A    between atoms: C_27  and  O_38
REMARK   12  A    between atoms: C_28  and  O_37
REMARK   13  A    between atoms: C_30  and  O_36
REMARK   14  A    between atoms: C_32  and  C_34
REMARK   15  A    between atoms: C_34  and  O_35
REMARK   16  A    between atoms: C_41  and  O_46
REMARK   17  A    between atoms: C_42  and  O_45
REMARK                            x       y       z     vdW  Elec       q    Type
REMARK                         _______ _______ _______ _____ _____    ______ ____
ROOT
ATOM      1  C   UNL     1       6.417  -2.414  26.257  0.00  0.00    +0.214 A 
ATOM      2  C   UNL     1       6.148  -1.159  27.031  0.00  0.00    +0.238 A 
ATOM      3  O   UNL     1       5.867  -1.169  28.223  0.00  0.00    -0.283 OA
ATOM      4  C   UNL     1       6.060   0.100  26.282  0.00  0.00    +0.109 A 
ATOM      5  C   UNL     1       5.909   0.022  24.904  0.00  0.00    +0.147 A 
ATOM      6  C   UNL     1       5.674   1.190  24.164  0.00  0.00    +0.093 A 
ATOM      7  C   UNL     1       5.592   2.435  24.807  0.00  0.00    +0.131 A 
ATOM      8  C   UNL     1       5.747   2.504  26.190  0.00  0.00    +0.092 A 
ATOM      9  O   UNL     1       5.953  -1.170  24.218  0.00  0.00    -0.451 OA
ATOM     10  C   UNL     1       6.005   1.347  26.922  0.00  0.00    +0.135 A 
ATOM     11  C   UNL     1       6.260  -2.332  24.917  0.00  0.00    +0.181 A 
ENDROOT
BRANCH  11  12
ATOM     12  C   UNL     1       6.314  -3.535  24.054  0.00  0.00    +0.025 A 
ATOM     13  C   UNL     1       7.541  -4.104  23.674  0.00  0.00    +0.015 A 
ATOM     14  C   UNL     1       7.581  -5.269  22.891  0.00  0.00    +0.050 A 
ATOM     15  C   UNL     1       6.395  -5.859  22.487  0.00  0.00    +0.158 A 
ATOM     16  C   UNL     1       5.173  -5.301  22.842  0.00  0.00    +0.159 A 
ATOM     17  C   UNL     1       5.120  -4.144  23.618  0.00  0.00    +0.060 A 
BRANCH  16  18
ATOM     18  O   UNL     1       4.038  -5.934  22.400  0.00  0.00    -0.503 OA
ATOM     19  H   UNL     1       4.127  -6.883  22.588  0.00  0.00    +0.292 HD
ENDBRANCH  16  18
BRANCH  15  20
ATOM     20  O   UNL     1       6.431  -7.006  21.743  0.00  0.00    -0.503 OA
ATOM     21  H   UNL     1       6.257  -6.715  20.826  0.00  0.00    +0.292 HD
ENDBRANCH  15  20
ENDBRANCH  11  12
BRANCH  10  22
ATOM     22  O   UNL     1       6.224   1.461  28.265  0.00  0.00    -0.506 OA
ATOM     23  H   UNL     1       7.165   1.338  28.471  0.00  0.00    +0.292 HD
ENDBRANCH  10  22
BRANCH   7  24
ATOM     24  O   UNL     1       5.381   3.657  24.219  0.00  0.00    -0.461 OA
BRANCH  24  25
ATOM     25  C   UNL     1       6.093   3.909  22.999  0.00  0.00    +0.339 C 
ATOM     26  O   UNL     1       7.505   3.944  23.227  0.00  0.00    -0.331 OA
ATOM     27  C   UNL     1       7.943   5.070  24.015  0.00  0.00    +0.179 C 
ATOM     28  C   UNL     1       7.607   6.382  23.286  0.00  0.00    +0.177 C 
ATOM     29  C   UNL     1       6.090   6.466  23.073  0.00  0.00    +0.180 C 
ATOM     30  C   UNL     1       5.580   5.215  22.346  0.00  0.00    +0.214 C 
BRANCH  29  31
ATOM     31  O   UNL     1       5.394   6.665  24.312  0.00  0.00    -0.386 OA
ATOM     32  H   UNL     1       4.444   6.490  24.176  0.00  0.00    +0.210 HD
ENDBRANCH  29  31
BRANCH  30  33
ATOM     33  O   UNL     1       4.148   5.247  22.263  0.00  0.00    -0.383 OA
ATOM     34  H   UNL     1       3.863   4.366  21.953  0.00  0.00    +0.210 HD
ENDBRANCH  30  33
BRANCH  28  35
ATOM     35  O   UNL     1       8.281   6.409  22.023  0.00  0.00    -0.386 OA
ATOM     36  H   UNL     1       8.764   7.249  21.941  0.00  0.00    +0.210 HD
ENDBRANCH  28  35
BRANCH  27  37
ATOM     37  C   UNL     1       9.454   4.936  24.259  0.00  0.00    +0.190 C 
BRANCH  37  38
ATOM     38  O   UNL     1      10.104   4.262  23.179  0.00  0.00    -0.392 OA
ATOM     39  H   UNL     1       9.623   4.447  22.357  0.00  0.00    +0.210 HD
ENDBRANCH  37  38
ENDBRANCH  27  37
ENDBRANCH  24  25
ENDBRANCH   7  24
BRANCH   1  40
ATOM     40  O   UNL     1       6.700  -3.631  26.871  0.00  0.00    -0.453 OA
BRANCH  40  44
ATOM     41  C   UNL     1       4.067  -4.427  30.230  0.00  0.00    +0.041 C 
ATOM     42  C   UNL     1       5.079  -5.422  29.661  0.00  0.00    +0.150 C 
ATOM     43  O   UNL     1       6.094  -4.795  28.859  0.00  0.00    -0.334 OA
ATOM     44  C   UNL     1       5.643  -4.282  27.596  0.00  0.00    +0.339 C 
ATOM     45  C   UNL     1       5.076  -5.423  26.728  0.00  0.00    +0.214 C 
ATOM     46  C   UNL     1       3.935  -6.103  27.498  0.00  0.00    +0.180 C 
ATOM     47  C   UNL     1       4.401  -6.562  28.888  0.00  0.00    +0.174 C 
BRANCH  47  48
ATOM     48  O   UNL     1       5.333  -7.647  28.710  0.00  0.00    -0.387 OA
ATOM     49  H   UNL     1       6.029  -7.518  29.393  0.00  0.00    +0.210 HD
ENDBRANCH  47  48
BRANCH  46  50
ATOM     50  O   UNL     1       3.472  -7.235  26.749  0.00  0.00    -0.386 OA
ATOM     51  H   UNL     1       2.558  -7.399  27.066  0.00  0.00    +0.210 HD
ENDBRANCH  46  50
BRANCH  45  52
ATOM     52  O   UNL     1       6.085  -6.406  26.422  0.00  0.00    -0.383 OA
ATOM     53  H   UNL     1       6.244  -6.882  27.260  0.00  0.00    +0.210 HD
ENDBRANCH  45  52
ENDBRANCH  40  44
ENDBRANCH   1  40
TORSDOF 16
ENDMDL
MODEL 7
REMARK VINA RESULT:      -6.7      2.058      3.306
REMARK  Name = 
REMARK  17 active torsions:
REMARK  status: ('A' for Active; 'I' for Inactive)
REMARK    1  A    between atoms: C_1  and  C_2
REMARK    2  A    between atoms: C_3  and  O_49
REMARK    3  A    between atoms: C_5  and  O_48
REMARK    4  A    between atoms: C_6  and  O_47
REMARK    5  A    between atoms: C_8  and  O_11
REMARK    6  A    between atoms: O_11  and  C_12
REMARK    7  A    between atoms: C_13  and  C_39
REMARK    8  A    between atoms: C_17  and  O_24
REMARK    9  A    between atoms: C_19  and  O_23
REMARK   10  A    between atoms: O_24  and  C_25
REMARK   11  A    between atoms: C_27  and  O_38
REMARK   12  A    between atoms: C_28  and  O_37
REMARK   13  A    between atoms: C_30  and  O_36
REMARK   14  A    between atoms: C_32  and  C_34
REMARK   15  A    between atoms: C_34  and  O_35
REMARK   16  A    between atoms: C_41  and  O_46
REMARK   17  A    between atoms: C_42  and  O_45
REMARK                            x       y       z     vdW  Elec       q    Type
REMARK                         _______ _______ _______ _____ _____    ______ ____
ROOT
ATOM      1  C   UNL     1       7.423  -2.364  25.392  0.00  0.00    +0.214 A 
ATOM      2  C   UNL     1       8.623  -1.620  24.893  0.00  0.00    +0.238 A 
ATOM      3  O   UNL     1       9.681  -2.178  24.628  0.00  0.00    -0.283 OA
ATOM      4  C   UNL     1       8.564  -0.153  24.886  0.00  0.00    +0.109 A 
ATOM      5  C   UNL     1       7.557   0.455  25.625  0.00  0.00    +0.147 A 
ATOM      6  C   UNL     1       7.548   1.850  25.768  0.00  0.00    +0.093 A 
ATOM      7  C   UNL     1       8.547   2.634  25.170  0.00  0.00    +0.131 A 
ATOM      8  C   UNL     1       9.551   2.014  24.428  0.00  0.00    +0.092 A 
ATOM      9  O   UNL     1       6.566  -0.258  26.258  0.00  0.00    -0.451 OA
ATOM     10  C   UNL     1       9.547   0.631  24.266  0.00  0.00    +0.135 A 
ATOM     11  C   UNL     1       6.508  -1.635  26.069  0.00  0.00    +0.181 A 
ENDROOT
BRANCH  11  12
ATOM     12  C   UNL     1       5.371  -2.274  26.772  0.00  0.00    +0.025 A 
ATOM     13  C   UNL     1       4.046  -2.059  26.357  0.00  0.00    +0.015 A 
ATOM     14  C   UNL     1       2.978  -2.703  27.002  0.00  0.00    +0.050 A 
ATOM     15  C   UNL     1       3.237  -3.554  28.064  0.00  0.00    +0.158 A 
ATOM     16  C   UNL     1       4.541  -3.765  28.496  0.00  0.00    +0.159 A 
ATOM     17  C   UNL     1       5.609  -3.132  27.864  0.00  0.00    +0.060 A 
BRANCH  16  18
ATOM     18  O   UNL     1       4.723  -4.615  29.558  0.00  0.00    -0.503 OA
ATOM     19  H   UNL     1       5.404  -4.235  30.139  0.00  0.00    +0.292 HD
ENDBRANCH  16  18
BRANCH  15  20
ATOM     20  O   UNL     1       2.201  -4.199  28.680  0.00  0.00    -0.503 OA
ATOM     21  H   UNL     1       1.395  -3.795  28.303  0.00  0.00    +0.292 HD
ENDBRANCH  15  20
ENDBRANCH  11  12
BRANCH  10  22
ATOM     22  O   UNL     1      10.504   0.065  23.472  0.00  0.00    -0.506 OA
ATOM     23  H   UNL     1      11.311  -0.112  23.982  0.00  0.00    +0.292 HD
ENDBRANCH  10  22
BRANCH   7  24
ATOM     24  O   UNL     1       8.661   4.001  25.211  0.00  0.00    -0.461 OA
BRANCH  24  25
ATOM     25  C   UNL     1       7.453   4.748  25.004  0.00  0.00    +0.339 C 
ATOM     26  O   UNL     1       6.568   4.058  24.117  0.00  0.00    -0.331 OA
ATOM     27  C   UNL     1       7.049   3.970  22.760  0.00  0.00    +0.179 C 
ATOM     28  C   UNL     1       7.212   5.381  22.170  0.00  0.00    +0.177 C 
ATOM     29  C   UNL     1       8.216   6.170  23.019  0.00  0.00    +0.180 C 
ATOM     30  C   UNL     1       7.792   6.169  24.494  0.00  0.00    +0.214 C 
BRANCH  29  31
ATOM     31  O   UNL     1       9.550   5.663  22.865  0.00  0.00    -0.386 OA
ATOM     32  H   UNL     1       9.535   4.910  22.245  0.00  0.00    +0.210 HD
ENDBRANCH  29  31
BRANCH  30  33
ATOM     33  O   UNL     1       8.800   6.802  25.294  0.00  0.00    -0.383 OA
ATOM     34  H   UNL     1       8.407   7.624  25.646  0.00  0.00    +0.210 HD
ENDBRANCH  30  33
BRANCH  28  35
ATOM     35  O   UNL     1       5.943   6.044  22.172  0.00  0.00    -0.386 OA
ATOM     36  H   UNL     1       5.247   5.394  21.973  0.00  0.00    +0.210 HD
ENDBRANCH  28  35
BRANCH  27  37
ATOM     37  C   UNL     1       6.054   3.132  21.943  0.00  0.00    +0.190 C 
BRANCH  37  38
ATOM     38  O   UNL     1       5.925   1.808  22.467  0.00  0.00    -0.392 OA
ATOM     39  H   UNL     1       6.247   1.799  23.383  0.00  0.00    +0.210 HD
ENDBRANCH  37  38
ENDBRANCH  27  37
ENDBRANCH  24  25
ENDBRANCH   7  24
BRANCH   1  40
ATOM     40  O   UNL     1       7.293  -3.746  25.277  0.00  0.00    -0.453 OA
BRANCH  40  44
ATOM     41  C   UNL     1       3.564  -5.780  24.378  0.00  0.00    +0.041 C 
ATOM     42  C   UNL     1       4.942  -6.234  23.896  0.00  0.00    +0.150 C 
ATOM     43  O   UNL     1       6.020  -5.662  24.657  0.00  0.00    -0.334 OA
ATOM     44  C   UNL     1       6.231  -4.257  24.452  0.00  0.00    +0.339 C 
ATOM     45  C   UNL     1       6.573  -3.978  22.974  0.00  0.00    +0.214 C 
ATOM     46  C   UNL     1       5.429  -4.507  22.098  0.00  0.00    +0.180 C 
ATOM     47  C   UNL     1       5.144  -5.988  22.395  0.00  0.00    +0.174 C 
BRANCH  47  48
ATOM     48  O   UNL     1       6.266  -6.760  21.924  0.00  0.00    -0.387 OA
ATOM     49  H   UNL     1       6.845  -6.126  21.443  0.00  0.00    +0.210 HD
ENDBRANCH  47  48
BRANCH  46  50
ATOM     50  O   UNL     1       5.785  -4.354  20.718  0.00  0.00    -0.386 OA
ATOM     51  H   UNL     1       6.763  -4.279  20.710  0.00  0.00    +0.210 HD
ENDBRANCH  46  50
BRANCH  45  52
ATOM     52  O   UNL     1       7.800  -4.627  22.584  0.00  0.00    -0.383 OA
ATOM     53  H   UNL     1       8.451  -3.907  22.481  0.00  0.00    +0.210 HD
ENDBRANCH  45  52
ENDBRANCH  40  44
ENDBRANCH   1  40
TORSDOF 16
ENDMDL
MODEL 8
REMARK VINA RESULT:      -6.7      2.414      9.605
REMARK  Name = 
REMARK  17 active torsions:
REMARK  status: ('A' for Active; 'I' for Inactive)
REMARK    1  A    between atoms: C_1  and  C_2
REMARK    2  A    between atoms: C_3  and  O_49
REMARK    3  A    between atoms: C_5  and  O_48
REMARK    4  A    between atoms: C_6  and  O_47
REMARK    5  A    between atoms: C_8  and  O_11
REMARK    6  A    between atoms: O_11  and  C_12
REMARK    7  A    between atoms: C_13  and  C_39
REMARK    8  A    between atoms: C_17  and  O_24
REMARK    9  A    between atoms: C_19  and  O_23
REMARK   10  A    between atoms: O_24  and  C_25
REMARK   11  A    between atoms: C_27  and  O_38
REMARK   12  A    between atoms: C_28  and  O_37
REMARK   13  A    between atoms: C_30  and  O_36
REMARK   14  A    between atoms: C_32  and  C_34
REMARK   15  A    between atoms: C_34  and  O_35
REMARK   16  A    between atoms: C_41  and  O_46
REMARK   17  A    between atoms: C_42  and  O_45
REMARK                            x       y       z     vdW  Elec       q    Type
REMARK                         _______ _______ _______ _____ _____    ______ ____
ROOT
ATOM      1  C   UNL     1       7.737  -0.662  25.131  0.00  0.00    +0.214 A 
ATOM      2  C   UNL     1       7.710  -1.563  23.935  0.00  0.00    +0.238 A 
ATOM      3  O   UNL     1       8.470  -1.419  22.985  0.00  0.00    -0.283 OA
ATOM      4  C   UNL     1       6.621  -2.542  23.840  0.00  0.00    +0.109 A 
ATOM      5  C   UNL     1       5.523  -2.368  24.672  0.00  0.00    +0.147 A 
ATOM      6  C   UNL     1       4.396  -3.188  24.517  0.00  0.00    +0.093 A 
ATOM      7  C   UNL     1       4.373  -4.184  23.527  0.00  0.00    +0.131 A 
ATOM      8  C   UNL     1       5.481  -4.353  22.699  0.00  0.00    +0.092 A 
ATOM      9  O   UNL     1       5.473  -1.393  25.643  0.00  0.00    -0.451 OA
ATOM     10  C   UNL     1       6.608  -3.554  22.870  0.00  0.00    +0.135 A 
ATOM     11  C   UNL     1       6.605  -0.617  25.868  0.00  0.00    +0.181 A 
ENDROOT
BRANCH  11  12
ATOM     12  C   UNL     1       6.430   0.364  26.965  0.00  0.00    +0.025 A 
ATOM     13  C   UNL     1       5.410   1.330  26.922  0.00  0.00    +0.015 A 
ATOM     14  C   UNL     1       5.225   2.227  27.986  0.00  0.00    +0.050 A 
ATOM     15  C   UNL     1       6.063   2.160  29.087  0.00  0.00    +0.158 A 
ATOM     16  C   UNL     1       7.085   1.220  29.139  0.00  0.00    +0.159 A 
ATOM     17  C   UNL     1       7.279   0.324  28.089  0.00  0.00    +0.060 A 
BRANCH  16  18
ATOM     18  O   UNL     1       7.882   1.215  30.256  0.00  0.00    -0.503 OA
ATOM     19  H   UNL     1       8.725   0.789  30.027  0.00  0.00    +0.292 HD
ENDBRANCH  16  18
BRANCH  15  20
ATOM     20  O   UNL     1       5.871   3.018  30.134  0.00  0.00    -0.503 OA
ATOM     21  H   UNL     1       4.949   2.861  30.420  0.00  0.00    +0.292 HD
ENDBRANCH  15  20
ENDBRANCH  11  12
BRANCH  10  22
ATOM     22  O   UNL     1       7.703  -3.796  22.088  0.00  0.00    -0.506 OA
ATOM     23  H   UNL     1       8.062  -2.966  21.736  0.00  0.00    +0.292 HD
ENDBRANCH  10  22
BRANCH   7  24
ATOM     24  O   UNL     1       3.354  -5.066  23.266  0.00  0.00    -0.461 OA
BRANCH  24  25
ATOM     25  C   UNL     1       2.176  -4.937  24.075  0.00  0.00    +0.339 C 
ATOM     26  O   UNL     1       2.456  -5.245  25.443  0.00  0.00    -0.331 OA
ATOM     27  C   UNL     1       2.775  -6.632  25.678  0.00  0.00    +0.179 C 
ATOM     28  C   UNL     1       1.579  -7.518  25.289  0.00  0.00    +0.177 C 
ATOM     29  C   UNL     1       1.260  -7.310  23.803  0.00  0.00    +0.180 C 
ATOM     30  C   UNL     1       1.042  -5.821  23.503  0.00  0.00    +0.214 C 
BRANCH  29  31
ATOM     31  O   UNL     1       2.284  -7.863  22.962  0.00  0.00    -0.386 OA
ATOM     32  H   UNL     1       2.893  -7.150  22.691  0.00  0.00    +0.210 HD
ENDBRANCH  29  31
BRANCH  30  33
ATOM     33  O   UNL     1       0.868  -5.627  22.092  0.00  0.00    -0.383 OA
ATOM     34  H   UNL     1       0.265  -6.331  21.783  0.00  0.00    +0.210 HD
ENDBRANCH  30  33
BRANCH  28  35
ATOM     35  O   UNL     1       0.445  -7.160  26.087  0.00  0.00    -0.386 OA
ATOM     36  H   UNL     1      -0.303  -6.956  25.499  0.00  0.00    +0.210 HD
ENDBRANCH  28  35
BRANCH  27  37
ATOM     37  C   UNL     1       3.141  -6.804  27.160  0.00  0.00    +0.190 C 
BRANCH  37  38
ATOM     38  O   UNL     1       2.453  -5.862  27.985  0.00  0.00    -0.392 OA
ATOM     39  H   UNL     1       2.898  -5.812  28.846  0.00  0.00    +0.210 HD
ENDBRANCH  37  38
ENDBRANCH  27  37
ENDBRANCH  24  25
ENDBRANCH   7  24
BRANCH   1  40
ATOM     40  O   UNL     1       8.811   0.175  25.420  0.00  0.00    -0.453 OA
BRANCH  40  44
ATOM     41  C   UNL     1       7.130   4.094  24.605  0.00  0.00    +0.041 C 
ATOM     42  C   UNL     1       7.519   3.073  23.535  0.00  0.00    +0.150 C 
ATOM     43  O   UNL     1       7.644   1.737  24.052  0.00  0.00    -0.334 OA
ATOM     44  C   UNL     1       8.777   1.518  24.906  0.00  0.00    +0.339 C 
ATOM     45  C   UNL     1      10.085   1.788  24.136  0.00  0.00    +0.214 C 
ATOM     46  C   UNL     1      10.053   3.228  23.605  0.00  0.00    +0.180 C 
ATOM     47  C   UNL     1       8.787   3.483  22.773  0.00  0.00    +0.174 C 
BRANCH  47  48
ATOM     48  O   UNL     1       8.890   2.716  21.557  0.00  0.00    -0.387 OA
ATOM     49  H   UNL     1       9.535   1.997  21.748  0.00  0.00    +0.210 HD
ENDBRANCH  47  48
BRANCH  46  50
ATOM     50  O   UNL     1      11.214   3.455  22.794  0.00  0.00    -0.386 OA
ATOM     51  H   UNL     1      11.675   2.590  22.755  0.00  0.00    +0.210 HD
ENDBRANCH  46  50
BRANCH  45  52
ATOM     52  O   UNL     1      10.241   0.882  23.024  0.00  0.00    -0.383 OA
ATOM     53  H   UNL     1       9.350   0.515  22.865  0.00  0.00    +0.210 HD
ENDBRANCH  45  52
ENDBRANCH  40  44
ENDBRANCH   1  40
TORSDOF 16
ENDMDL
MODEL 9
REMARK VINA RESULT:      -6.6      2.173      3.736
REMARK  Name = 
REMARK  17 active torsions:
REMARK  status: ('A' for Active; 'I' for Inactive)
REMARK    1  A    between atoms: C_1  and  C_2
REMARK    2  A    between atoms: C_3  and  O_49
REMARK    3  A    between atoms: C_5  and  O_48
REMARK    4  A    between atoms: C_6  and  O_47
REMARK    5  A    between atoms: C_8  and  O_11
REMARK    6  A    between atoms: O_11  and  C_12
REMARK    7  A    between atoms: C_13  and  C_39
REMARK    8  A    between atoms: C_17  and  O_24
REMARK    9  A    between atoms: C_19  and  O_23
REMARK   10  A    between atoms: O_24  and  C_25
REMARK   11  A    between atoms: C_27  and  O_38
REMARK   12  A    between atoms: C_28  and  O_37
REMARK   13  A    between atoms: C_30  and  O_36
REMARK   14  A    between atoms: C_32  and  C_34
REMARK   15  A    between atoms: C_34  and  O_35
REMARK   16  A    between atoms: C_41  and  O_46
REMARK   17  A    between atoms: C_42  and  O_45
REMARK                            x       y       z     vdW  Elec       q    Type
REMARK                         _______ _______ _______ _____ _____    ______ ____
ROOT
ATOM      1  C   UNL     1       7.376  -2.685  24.987  0.00  0.00    +0.214 A 
ATOM      2  C   UNL     1       8.512  -2.114  24.195  0.00  0.00    +0.238 A 
ATOM      3  O   UNL     1       9.547  -2.734  23.988  0.00  0.00    -0.283 OA
ATOM      4  C   UNL     1       8.431  -0.702  23.803  0.00  0.00    +0.109 A 
ATOM      5  C   UNL     1       7.490   0.093  24.446  0.00  0.00    +0.147 A 
ATOM      6  C   UNL     1       7.473   1.476  24.213  0.00  0.00    +0.093 A 
ATOM      7  C   UNL     1       8.399   2.060  23.333  0.00  0.00    +0.131 A 
ATOM      8  C   UNL     1       9.337   1.254  22.690  0.00  0.00    +0.092 A 
ATOM      9  O   UNL     1       6.574  -0.414  25.339  0.00  0.00    -0.451 OA
ATOM     10  C   UNL     1       9.337  -0.122  22.904  0.00  0.00    +0.135 A 
ATOM     11  C   UNL     1       6.520  -1.791  25.530  0.00  0.00    +0.181 A 
ENDROOT
BRANCH  11  12
ATOM     12  C   UNL     1       5.464  -2.206  26.484  0.00  0.00    +0.025 A 
ATOM     13  C   UNL     1       5.763  -3.019  27.590  0.00  0.00    +0.015 A 
ATOM     14  C   UNL     1       4.764  -3.371  28.512  0.00  0.00    +0.050 A 
ATOM     15  C   UNL     1       3.470  -2.914  28.323  0.00  0.00    +0.158 A 
ATOM     16  C   UNL     1       3.156  -2.121  27.227  0.00  0.00    +0.159 A 
ATOM     17  C   UNL     1       4.139  -1.765  26.304  0.00  0.00    +0.060 A 
BRANCH  16  18
ATOM     18  O   UNL     1       1.853  -1.710  27.098  0.00  0.00    -0.503 OA
ATOM     19  H   UNL     1       1.293  -2.499  27.009  0.00  0.00    +0.292 HD
ENDBRANCH  16  18
BRANCH  15  20
ATOM     20  O   UNL     1       2.501  -3.237  29.232  0.00  0.00    -0.503 OA
ATOM     21  H   UNL     1       2.990  -3.480  30.044  0.00  0.00    +0.292 HD
ENDBRANCH  15  20
ENDBRANCH  11  12
BRANCH  10  22
ATOM     22  O   UNL     1      10.223  -0.890  22.202  0.00  0.00    -0.506 OA
ATOM     23  H   UNL     1      11.096  -0.880  22.625  0.00  0.00    +0.292 HD
ENDBRANCH  10  22
BRANCH   7  24
ATOM     24  O   UNL     1       8.496   3.387  22.997  0.00  0.00    -0.461 OA
BRANCH  24  25
ATOM     25  C   UNL     1       8.358   4.328  24.072  0.00  0.00    +0.339 C 
ATOM     26  O   UNL     1       7.019   4.339  24.576  0.00  0.00    -0.331 OA
ATOM     27  C   UNL     1       6.048   4.866  23.649  0.00  0.00    +0.179 C 
ATOM     28  C   UNL     1       6.380   6.332  23.320  0.00  0.00    +0.177 C 
ATOM     29  C   UNL     1       7.778   6.404  22.693  0.00  0.00    +0.180 C 
ATOM     30  C   UNL     1       8.812   5.733  23.606  0.00  0.00    +0.214 C 
BRANCH  29  31
ATOM     31  O   UNL     1       7.796   5.826  21.379  0.00  0.00    -0.386 OA
ATOM     32  H   UNL     1       8.493   6.258  20.849  0.00  0.00    +0.210 HD
ENDBRANCH  29  31
BRANCH  30  33
ATOM     33  O   UNL     1      10.090   5.696  22.955  0.00  0.00    -0.383 OA
ATOM     34  H   UNL     1       9.971   6.110  22.078  0.00  0.00    +0.210 HD
ENDBRANCH  30  33
BRANCH  28  35
ATOM     35  O   UNL     1       6.344   7.107  24.523  0.00  0.00    -0.386 OA
ATOM     36  H   UNL     1       5.738   7.858  24.396  0.00  0.00    +0.210 HD
ENDBRANCH  28  35
BRANCH  27  37
ATOM     37  C   UNL     1       4.653   4.736  24.278  0.00  0.00    +0.190 C 
BRANCH  37  38
ATOM     38  O   UNL     1       4.107   3.429  24.082  0.00  0.00    -0.392 OA
ATOM     39  H   UNL     1       3.171   3.511  23.841  0.00  0.00    +0.210 HD
ENDBRANCH  37  38
ENDBRANCH  27  37
ENDBRANCH  24  25
ENDBRANCH   7  24
BRANCH   1  40
ATOM     40  O   UNL     1       7.256  -4.045  25.258  0.00  0.00    -0.453 OA
BRANCH  40  44
ATOM     41  C   UNL     1       6.806  -5.588  21.224  0.00  0.00    +0.041 C 
ATOM     42  C   UNL     1       5.689  -4.929  22.035  0.00  0.00    +0.150 C 
ATOM     43  O   UNL     1       6.181  -4.143  23.135  0.00  0.00    -0.334 OA
ATOM     44  C   UNL     1       6.745  -4.897  24.218  0.00  0.00    +0.339 C 
ATOM     45  C   UNL     1       5.684  -5.837  24.823  0.00  0.00    +0.214 C 
ATOM     46  C   UNL     1       5.155  -6.758  23.715  0.00  0.00    +0.180 C 
ATOM     47  C   UNL     1       4.643  -5.944  22.516  0.00  0.00    +0.174 C 
BRANCH  47  48
ATOM     48  O   UNL     1       3.448  -5.250  22.927  0.00  0.00    -0.387 OA
ATOM     49  H   UNL     1       3.753  -4.406  23.330  0.00  0.00    +0.210 HD
ENDBRANCH  47  48
BRANCH  46  50
ATOM     50  O   UNL     1       4.089  -7.562  24.240  0.00  0.00    -0.386 OA
ATOM     51  H   UNL     1       3.766  -7.078  25.029  0.00  0.00    +0.210 HD
ENDBRANCH  46  50
BRANCH  45  52
ATOM     52  O   UNL     1       4.580  -5.098  25.384  0.00  0.00    -0.383 OA
ATOM     53  H   UNL     1       3.811  -5.696  25.321  0.00  0.00    +0.210 HD
ENDBRANCH  45  52
ENDBRANCH  40  44
ENDBRANCH   1  40
TORSDOF 16
ENDMDL
