MODEL 1
REMARK VINA RESULT:      -7.6      0.000      0.000
REMARK  Name = 
REMARK  22 active torsions:
REMARK  status: ('A' for Active; 'I' for Inactive)
REMARK    1  A    between atoms: C_1  and  C_2
REMARK    2  A    between atoms: C_3  and  O_53
REMARK    3  A    between atoms: C_4  and  O_52
REMARK    4  A    between atoms: C_5  and  O_51
REMARK    5  A    between atoms: C_6  and  O_8
REMARK    6  A    between atoms: O_8  and  C_9
REMARK    7  A    between atoms: C_9  and  C_10
REMARK    8  A    between atoms: C_11  and  O_50
REMARK    9  A    between atoms: C_12  and  O_49
REMARK   10  A    between atoms: C_13  and  O_38
REMARK   11  A    between atoms: C_14  and  O_16
REMARK   12  A    between atoms: O_16  and  C_17
REMARK   13  A    between atoms: C_18  and  C_30
REMARK   14  A    between atoms: C_22  and  O_29
REMARK   15  A    between atoms: C_24  and  O_28
REMARK   16  A    between atoms: C_32  and  O_37
REMARK   17  A    between atoms: C_33  and  O_36
REMARK   18  A    between atoms: O_38  and  C_39
REMARK   19  A    between atoms: C_40  and  O_48
REMARK   20  A    between atoms: C_41  and  O_47
REMARK   21  A    between atoms: C_42  and  O_46
REMARK   22  A    between atoms: C_43  and  C_45
REMARK                            x       y       z     vdW  Elec       q    Type
REMARK                         _______ _______ _______ _____ _____    ______ ____
ROOT
ATOM      1  C   UNL     1       5.559  -1.406  25.578  0.00  0.00    +0.179 C 
ATOM      2  O   UNL     1       6.319  -0.682  24.588  0.00  0.00    -0.331 OA
ATOM      3  C   UNL     1       6.600   0.717  24.773  0.00  0.00    +0.340 C 
ATOM      4  C   UNL     1       5.442   1.556  25.457  0.00  0.00    +0.221 C 
ATOM      5  C   UNL     1       4.989   0.754  26.692  0.00  0.00    +0.180 C 
ATOM      6  C   UNL     1       4.440  -0.585  26.215  0.00  0.00    +0.177 C 
ENDROOT
BRANCH   6   7
ATOM      7  O   UNL     1       3.755  -1.267  27.264  0.00  0.00    -0.386 OA
ATOM      8  H   UNL     1       2.821  -0.989  27.242  0.00  0.00    +0.210 HD
ENDBRANCH   6   7
BRANCH   5   9
ATOM      9  O   UNL     1       4.020   1.412  27.511  0.00  0.00    -0.386 OA
ATOM     10  H   UNL     1       3.615   2.130  26.988  0.00  0.00    +0.210 HD
ENDBRANCH   5   9
BRANCH   4  11
ATOM     11  O   UNL     1       4.351   1.895  24.543  0.00  0.00    -0.337 OA
BRANCH  11  12
ATOM     12  C   UNL     1       3.963   3.290  24.493  0.00  0.00    +0.282 C 
ATOM     13  O   UNL     1       2.924   3.576  25.465  0.00  0.00    -0.343 OA
ATOM     14  C   UNL     1       1.647   2.983  25.181  0.00  0.00    +0.149 C 
ATOM     15  C   UNL     1       0.689   3.441  26.284  0.00  0.00    +0.041 C 
ATOM     16  C   UNL     1       1.135   3.386  23.779  0.00  0.00    +0.174 C 
ATOM     17  C   UNL     1       2.218   3.070  22.740  0.00  0.00    +0.179 C 
ATOM     18  C   UNL     1       3.498   3.821  23.114  0.00  0.00    +0.201 C 
BRANCH  18  19
ATOM     19  O   UNL     1       4.466   3.733  22.069  0.00  0.00    -0.384 OA
ATOM     20  H   UNL     1       4.324   2.878  21.619  0.00  0.00    +0.210 HD
ENDBRANCH  18  19
BRANCH  17  21
ATOM     21  O   UNL     1       1.825   3.448  21.414  0.00  0.00    -0.386 OA
ATOM     22  H   UNL     1       1.355   2.680  21.036  0.00  0.00    +0.210 HD
ENDBRANCH  17  21
BRANCH  16  23
ATOM     23  O   UNL     1       0.831   4.794  23.705  0.00  0.00    -0.387 OA
ATOM     24  H   UNL     1       0.750   5.036  22.763  0.00  0.00    +0.210 HD
ENDBRANCH  16  23
ENDBRANCH  11  12
ENDBRANCH   4  11
BRANCH   3  25
ATOM     25  O   UNL     1       6.920   1.365  23.508  0.00  0.00    -0.453 OA
BRANCH  25  26
ATOM     26  C   UNL     1       8.057   2.144  23.325  0.00  0.00    +0.214 A 
ATOM     27  C   UNL     1       8.071   3.644  23.316  0.00  0.00    +0.238 A 
ATOM     28  O   UNL     1       7.045   4.307  23.131  0.00  0.00    -0.283 OA
ATOM     29  C   UNL     1       9.388   4.320  23.492  0.00  0.00    +0.109 A 
ATOM     30  C   UNL     1      10.524   3.565  23.237  0.00  0.00    +0.147 A 
ATOM     31  C   UNL     1      11.814   4.089  23.360  0.00  0.00    +0.092 A 
ATOM     32  C   UNL     1      11.962   5.409  23.747  0.00  0.00    +0.124 A 
ATOM     33  C   UNL     1      10.847   6.198  24.004  0.00  0.00    +0.091 A 
ATOM     34  O   UNL     1      10.438   2.266  22.848  0.00  0.00    -0.451 OA
ATOM     35  C   UNL     1       9.557   5.660  23.876  0.00  0.00    +0.135 A 
ATOM     36  C   UNL     1       9.268   1.575  23.110  0.00  0.00    +0.181 A 
BRANCH  36  37
ATOM     37  C   UNL     1       9.603   0.145  23.175  0.00  0.00    +0.025 A 
ATOM     38  C   UNL     1      10.193  -0.386  24.332  0.00  0.00    +0.015 A 
ATOM     39  C   UNL     1      10.046  -1.743  24.628  0.00  0.00    +0.050 A 
ATOM     40  C   UNL     1       9.268  -2.537  23.802  0.00  0.00    +0.158 A 
ATOM     41  C   UNL     1       8.736  -2.032  22.618  0.00  0.00    +0.159 A 
ATOM     42  C   UNL     1       8.924  -0.705  22.280  0.00  0.00    +0.060 A 
BRANCH  41  43
ATOM     43  O   UNL     1       7.943  -2.847  21.860  0.00  0.00    -0.503 OA
ATOM     44  H   UNL     1       8.291  -3.750  21.962  0.00  0.00    +0.292 HD
ENDBRANCH  41  43
BRANCH  40  45
ATOM     45  O   UNL     1       8.956  -3.793  24.231  0.00  0.00    -0.503 OA
ATOM     46  H   UNL     1       9.817  -4.198  24.455  0.00  0.00    +0.292 HD
ENDBRANCH  40  45
ENDBRANCH  36  37
BRANCH  35  47
ATOM     47  O   UNL     1       8.481   6.447  24.169  0.00  0.00    -0.506 OA
ATOM     48  H   UNL     1       8.458   6.613  25.123  0.00  0.00    +0.292 HD
ENDBRANCH  35  47
BRANCH  32  49
ATOM     49  O   UNL     1      13.193   5.974  23.905  0.00  0.00    -0.507 OA
ATOM     50  H   UNL     1      13.263   6.347  24.807  0.00  0.00    +0.292 HD
ENDBRANCH  32  49
ENDBRANCH  25  26
ENDBRANCH   3  25
BRANCH   1  51
ATOM     51  C   UNL     1       6.351  -2.396  26.526  0.00  0.00    +0.197 C 
BRANCH  51  52
ATOM     52  O   UNL     1       6.770  -3.698  26.040  0.00  0.00    -0.346 OA
BRANCH  52  56
ATOM     53  C   UNL     1       3.312  -6.473  26.541  0.00  0.00    +0.041 C 
ATOM     54  C   UNL     1       4.668  -6.764  25.891  0.00  0.00    +0.149 C 
ATOM     55  O   UNL     1       5.667  -5.795  26.269  0.00  0.00    -0.343 OA
ATOM     56  C   UNL     1       5.606  -4.509  25.631  0.00  0.00    +0.282 C 
ATOM     57  C   UNL     1       5.589  -4.699  24.081  0.00  0.00    +0.201 C 
ATOM     58  C   UNL     1       4.429  -5.625  23.659  0.00  0.00    +0.179 C 
ATOM     59  C   UNL     1       4.568  -6.981  24.369  0.00  0.00    +0.174 C 
BRANCH  59  60
ATOM     60  O   UNL     1       3.507  -7.892  24.053  0.00  0.00    -0.387 OA
ATOM     61  H   UNL     1       3.536  -8.643  24.670  0.00  0.00    +0.210 HD
ENDBRANCH  59  60
BRANCH  58  62
ATOM     62  O   UNL     1       4.427  -5.821  22.237  0.00  0.00    -0.386 OA
ATOM     63  H   UNL     1       5.180  -5.298  21.894  0.00  0.00    +0.210 HD
ENDBRANCH  58  62
BRANCH  57  64
ATOM     64  O   UNL     1       6.808  -5.316  23.614  0.00  0.00    -0.384 OA
ATOM     65  H   UNL     1       6.787  -6.236  23.943  0.00  0.00    +0.210 HD
ENDBRANCH  57  64
ENDBRANCH  52  56
ENDBRANCH  51  52
ENDBRANCH   1  51
TORSDOF 20
ENDMDL
MODEL 2
REMARK VINA RESULT:      -7.1      2.292      8.704
REMARK  Name = 
REMARK  22 active torsions:
REMARK  status: ('A' for Active; 'I' for Inactive)
REMARK    1  A    between atoms: C_1  and  C_2
REMARK    2  A    between atoms: C_3  and  O_53
REMARK    3  A    between atoms: C_4  and  O_52
REMARK    4  A    between atoms: C_5  and  O_51
REMARK    5  A    between atoms: C_6  and  O_8
REMARK    6  A    between atoms: O_8  and  C_9
REMARK    7  A    between atoms: C_9  and  C_10
REMARK    8  A    between atoms: C_11  and  O_50
REMARK    9  A    between atoms: C_12  and  O_49
REMARK   10  A    between atoms: C_13  and  O_38
REMARK   11  A    between atoms: C_14  and  O_16
REMARK   12  A    between atoms: O_16  and  C_17
REMARK   13  A    between atoms: C_18  and  C_30
REMARK   14  A    between atoms: C_22  and  O_29
REMARK   15  A    between atoms: C_24  and  O_28
REMARK   16  A    between atoms: C_32  and  O_37
REMARK   17  A    between atoms: C_33  and  O_36
REMARK   18  A    between atoms: O_38  and  C_39
REMARK   19  A    between atoms: C_40  and  O_48
REMARK   20  A    between atoms: C_41  and  O_47
REMARK   21  A    between atoms: C_42  and  O_46
REMARK   22  A    between atoms: C_43  and  C_45
REMARK                            x       y       z     vdW  Elec       q    Type
REMARK                         _______ _______ _______ _____ _____    ______ ____
ROOT
ATOM      1  C   UNL     1       8.712   0.472  22.174  0.00  0.00    +0.179 C 
ATOM      2  O   UNL     1       7.704   0.831  23.143  0.00  0.00    -0.331 OA
ATOM      3  C   UNL     1       7.703   0.221  24.446  0.00  0.00    +0.340 C 
ATOM      4  C   UNL     1       8.137  -1.303  24.481  0.00  0.00    +0.221 C 
ATOM      5  C   UNL     1       9.427  -1.412  23.647  0.00  0.00    +0.180 C 
ATOM      6  C   UNL     1       9.106  -1.002  22.215  0.00  0.00    +0.177 C 
ENDROOT
BRANCH   6   7
ATOM      7  O   UNL     1      10.173  -1.335  21.329  0.00  0.00    -0.386 OA
ATOM      8  H   UNL     1       9.828  -1.297  20.418  0.00  0.00    +0.210 HD
ENDBRANCH   6   7
BRANCH   5   9
ATOM      9  O   UNL     1      10.040  -2.704  23.656  0.00  0.00    -0.386 OA
ATOM     10  H   UNL     1      10.206  -2.969  22.732  0.00  0.00    +0.210 HD
ENDBRANCH   5   9
BRANCH   4  11
ATOM     11  O   UNL     1       7.080  -2.219  24.051  0.00  0.00    -0.337 OA
BRANCH  11  12
ATOM     12  C   UNL     1       7.053  -3.517  24.693  0.00  0.00    +0.282 C 
ATOM     13  O   UNL     1       7.467  -4.560  23.773  0.00  0.00    -0.343 OA
ATOM     14  C   UNL     1       6.547  -4.826  22.702  0.00  0.00    +0.149 C 
ATOM     15  C   UNL     1       7.137  -5.979  21.884  0.00  0.00    +0.041 C 
ATOM     16  C   UNL     1       5.139  -5.172  23.239  0.00  0.00    +0.174 C 
ATOM     17  C   UNL     1       4.682  -4.066  24.197  0.00  0.00    +0.179 C 
ATOM     18  C   UNL     1       5.705  -3.937  25.329  0.00  0.00    +0.201 C 
BRANCH  18  19
ATOM     19  O   UNL     1       5.221  -3.075  26.359  0.00  0.00    -0.384 OA
ATOM     20  H   UNL     1       5.195  -3.599  27.182  0.00  0.00    +0.210 HD
ENDBRANCH  18  19
BRANCH  17  21
ATOM     21  O   UNL     1       3.392  -4.335  24.762  0.00  0.00    -0.386 OA
ATOM     22  H   UNL     1       3.552  -4.781  25.615  0.00  0.00    +0.210 HD
ENDBRANCH  17  21
BRANCH  16  23
ATOM     23  O   UNL     1       5.132  -6.424  23.953  0.00  0.00    -0.387 OA
ATOM     24  H   UNL     1       4.451  -6.998  23.551  0.00  0.00    +0.210 HD
ENDBRANCH  16  23
ENDBRANCH  11  12
ENDBRANCH   4  11
BRANCH   3  25
ATOM     25  O   UNL     1       6.393   0.317  25.076  0.00  0.00    -0.453 OA
BRANCH  25  26
ATOM     26  C   UNL     1       6.102   1.238  26.075  0.00  0.00    +0.214 A 
ATOM     27  C   UNL     1       6.591   1.145  27.490  0.00  0.00    +0.238 A 
ATOM     28  O   UNL     1       7.006   0.085  27.970  0.00  0.00    -0.283 OA
ATOM     29  C   UNL     1       6.518   2.377  28.326  0.00  0.00    +0.109 A 
ATOM     30  C   UNL     1       5.650   3.374  27.904  0.00  0.00    +0.147 A 
ATOM     31  C   UNL     1       5.488   4.572  28.607  0.00  0.00    +0.092 A 
ATOM     32  C   UNL     1       6.219   4.767  29.764  0.00  0.00    +0.124 A 
ATOM     33  C   UNL     1       7.093   3.789  30.221  0.00  0.00    +0.091 A 
ATOM     34  O   UNL     1       4.903   3.233  26.777  0.00  0.00    -0.451 OA
ATOM     35  C   UNL     1       7.246   2.590  29.507  0.00  0.00    +0.135 A 
ATOM     36  C   UNL     1       5.305   2.306  25.832  0.00  0.00    +0.181 A 
BRANCH  36  37
ATOM     37  C   UNL     1       4.766   2.737  24.533  0.00  0.00    +0.025 A 
ATOM     38  C   UNL     1       3.399   3.024  24.400  0.00  0.00    +0.015 A 
ATOM     39  C   UNL     1       2.966   3.894  23.396  0.00  0.00    +0.050 A 
ATOM     40  C   UNL     1       3.901   4.510  22.581  0.00  0.00    +0.158 A 
ATOM     41  C   UNL     1       5.251   4.178  22.665  0.00  0.00    +0.159 A 
ATOM     42  C   UNL     1       5.689   3.272  23.613  0.00  0.00    +0.060 A 
BRANCH  41  43
ATOM     43  O   UNL     1       6.137   4.844  21.865  0.00  0.00    -0.503 OA
ATOM     44  H   UNL     1       6.195   5.752  22.208  0.00  0.00    +0.292 HD
ENDBRANCH  41  43
BRANCH  40  45
ATOM     45  O   UNL     1       3.476   5.517  21.768  0.00  0.00    -0.503 OA
ATOM     46  H   UNL     1       4.112   6.243  21.921  0.00  0.00    +0.292 HD
ENDBRANCH  40  45
ENDBRANCH  36  37
BRANCH  35  47
ATOM     47  O   UNL     1       8.137   1.661  29.959  0.00  0.00    -0.506 OA
ATOM     48  H   UNL     1       7.672   1.016  30.513  0.00  0.00    +0.292 HD
ENDBRANCH  35  47
BRANCH  32  49
ATOM     49  O   UNL     1       6.122   5.922  30.485  0.00  0.00    -0.507 OA
ATOM     50  H   UNL     1       5.908   6.661  29.880  0.00  0.00    +0.292 HD
ENDBRANCH  32  49
ENDBRANCH  25  26
ENDBRANCH   3  25
BRANCH   1  51
ATOM     51  C   UNL     1       9.871   1.517  21.906  0.00  0.00    +0.197 C 
BRANCH  51  52
ATOM     52  O   UNL     1      10.904   1.736  22.902  0.00  0.00    -0.346 OA
BRANCH  52  56
ATOM     53  C   UNL     1       8.484   4.665  25.242  0.00  0.00    +0.041 C 
ATOM     54  C   UNL     1       9.036   4.819  23.821  0.00  0.00    +0.149 C 
ATOM     55  O   UNL     1       9.400   3.549  23.243  0.00  0.00    -0.343 OA
ATOM     56  C   UNL     1      10.631   2.957  23.687  0.00  0.00    +0.282 C 
ATOM     57  C   UNL     1      11.793   3.986  23.517  0.00  0.00    +0.201 C 
ATOM     58  C   UNL     1      11.467   5.301  24.259  0.00  0.00    +0.179 C 
ATOM     59  C   UNL     1      10.148   5.880  23.724  0.00  0.00    +0.174 C 
BRANCH  59  60
ATOM     60  O   UNL     1       9.758   7.091  24.385  0.00  0.00    -0.387 OA
ATOM     61  H   UNL     1       8.787   7.153  24.390  0.00  0.00    +0.210 HD
ENDBRANCH  59  60
BRANCH  58  62
ATOM     62  O   UNL     1      12.523   6.258  24.083  0.00  0.00    -0.386 OA
ATOM     63  H   UNL     1      12.082   7.109  23.884  0.00  0.00    +0.210 HD
ENDBRANCH  58  62
BRANCH  57  64
ATOM     64  O   UNL     1      11.994   4.327  22.129  0.00  0.00    -0.384 OA
ATOM     65  H   UNL     1      11.589   3.604  21.612  0.00  0.00    +0.210 HD
ENDBRANCH  57  64
ENDBRANCH  52  56
ENDBRANCH  51  52
ENDBRANCH   1  51
TORSDOF 20
ENDMDL
MODEL 3
REMARK VINA RESULT:      -6.8      2.632      6.541
REMARK  Name = 
REMARK  22 active torsions:
REMARK  status: ('A' for Active; 'I' for Inactive)
REMARK    1  A    between atoms: C_1  and  C_2
REMARK    2  A    between atoms: C_3  and  O_53
REMARK    3  A    between atoms: C_4  and  O_52
REMARK    4  A    between atoms: C_5  and  O_51
REMARK    5  A    between atoms: C_6  and  O_8
REMARK    6  A    between atoms: O_8  and  C_9
REMARK    7  A    between atoms: C_9  and  C_10
REMARK    8  A    between atoms: C_11  and  O_50
REMARK    9  A    between atoms: C_12  and  O_49
REMARK   10  A    between atoms: C_13  and  O_38
REMARK   11  A    between atoms: C_14  and  O_16
REMARK   12  A    between atoms: O_16  and  C_17
REMARK   13  A    between atoms: C_18  and  C_30
REMARK   14  A    between atoms: C_22  and  O_29
REMARK   15  A    between atoms: C_24  and  O_28
REMARK   16  A    between atoms: C_32  and  O_37
REMARK   17  A    between atoms: C_33  and  O_36
REMARK   18  A    between atoms: O_38  and  C_39
REMARK   19  A    between atoms: C_40  and  O_48
REMARK   20  A    between atoms: C_41  and  O_47
REMARK   21  A    between atoms: C_42  and  O_46
REMARK   22  A    between atoms: C_43  and  C_45
REMARK                            x       y       z     vdW  Elec       q    Type
REMARK                         _______ _______ _______ _____ _____    ______ ____
ROOT
ATOM      1  C   UNL     1       4.534   1.680  27.379  0.00  0.00    +0.179 C 
ATOM      2  O   UNL     1       4.868   0.809  26.277  0.00  0.00    -0.331 OA
ATOM      3  C   UNL     1       6.224   0.732  25.801  0.00  0.00    +0.340 C 
ATOM      4  C   UNL     1       7.030   2.096  25.829  0.00  0.00    +0.221 C 
ATOM      5  C   UNL     1       6.801   2.713  27.222  0.00  0.00    +0.180 C 
ATOM      6  C   UNL     1       5.312   2.994  27.380  0.00  0.00    +0.177 C 
ENDROOT
BRANCH   6   7
ATOM      7  O   UNL     1       5.057   3.809  28.522  0.00  0.00    -0.386 OA
ATOM      8  H   UNL     1       5.351   3.318  29.312  0.00  0.00    +0.210 HD
ENDBRANCH   6   7
BRANCH   5   9
ATOM      9  O   UNL     1       7.550   3.903  27.480  0.00  0.00    -0.386 OA
ATOM     10  H   UNL     1       8.448   3.784  27.116  0.00  0.00    +0.210 HD
ENDBRANCH   5   9
BRANCH   4  11
ATOM     11  O   UNL     1       6.692   2.994  24.725  0.00  0.00    -0.337 OA
BRANCH  11  12
ATOM     12  C   UNL     1       7.760   3.301  23.795  0.00  0.00    +0.282 C 
ATOM     13  O   UNL     1       8.805   4.075  24.439  0.00  0.00    -0.343 OA
ATOM     14  C   UNL     1       8.434   5.416  24.797  0.00  0.00    +0.149 C 
ATOM     15  C   UNL     1       9.675   6.071  25.410  0.00  0.00    +0.041 C 
ATOM     16  C   UNL     1       7.919   6.206  23.572  0.00  0.00    +0.174 C 
ATOM     17  C   UNL     1       6.800   5.406  22.894  0.00  0.00    +0.179 C 
ATOM     18  C   UNL     1       7.345   4.033  22.495  0.00  0.00    +0.201 C 
BRANCH  18  19
ATOM     19  O   UNL     1       6.411   3.333  21.672  0.00  0.00    -0.384 OA
ATOM     20  H   UNL     1       6.669   3.496  20.745  0.00  0.00    +0.210 HD
ENDBRANCH  18  19
BRANCH  17  21
ATOM     21  O   UNL     1       6.293   6.066  21.726  0.00  0.00    -0.386 OA
ATOM     22  H   UNL     1       5.496   5.571  21.455  0.00  0.00    +0.210 HD
ENDBRANCH  17  21
BRANCH  16  23
ATOM     23  O   UNL     1       8.964   6.436  22.606  0.00  0.00    -0.387 OA
ATOM     24  H   UNL     1       8.612   6.216  21.722  0.00  0.00    +0.210 HD
ENDBRANCH  16  23
ENDBRANCH  11  12
ENDBRANCH   4  11
BRANCH   3  25
ATOM     25  O   UNL     1       6.278   0.219  24.438  0.00  0.00    -0.453 OA
BRANCH  25  26
ATOM     26  C   UNL     1       6.444  -1.129  24.145  0.00  0.00    +0.214 A 
ATOM     27  C   UNL     1       5.428  -2.195  24.430  0.00  0.00    +0.238 A 
ATOM     28  O   UNL     1       4.515  -2.028  25.245  0.00  0.00    -0.283 OA
ATOM     29  C   UNL     1       5.583  -3.500  23.726  0.00  0.00    +0.109 A 
ATOM     30  C   UNL     1       6.836  -3.788  23.201  0.00  0.00    +0.147 A 
ATOM     31  C   UNL     1       7.108  -4.981  22.525  0.00  0.00    +0.092 A 
ATOM     32  C   UNL     1       6.091  -5.907  22.377  0.00  0.00    +0.124 A 
ATOM     33  C   UNL     1       4.827  -5.657  22.895  0.00  0.00    +0.091 A 
ATOM     34  O   UNL     1       7.872  -2.916  23.323  0.00  0.00    -0.451 OA
ATOM     35  C   UNL     1       4.566  -4.455  23.572  0.00  0.00    +0.135 A 
ATOM     36  C   UNL     1       7.589  -1.588  23.585  0.00  0.00    +0.181 A 
BRANCH  36  37
ATOM     37  C   UNL     1       8.717  -0.788  23.084  0.00  0.00    +0.025 A 
ATOM     38  C   UNL     1       8.677  -0.254  21.787  0.00  0.00    +0.015 A 
ATOM     39  C   UNL     1       9.430   0.882  21.479  0.00  0.00    +0.050 A 
ATOM     40  C   UNL     1      10.162   1.502  22.478  0.00  0.00    +0.158 A 
ATOM     41  C   UNL     1      10.258   0.939  23.748  0.00  0.00    +0.159 A 
ATOM     42  C   UNL     1       9.567  -0.219  24.052  0.00  0.00    +0.060 A 
BRANCH  41  43
ATOM     43  O   UNL     1      10.960   1.612  24.708  0.00  0.00    -0.503 OA
ATOM     44  H   UNL     1      10.603   1.327  25.567  0.00  0.00    +0.292 HD
ENDBRANCH  41  43
BRANCH  40  45
ATOM     45  O   UNL     1      10.701   2.725  22.210  0.00  0.00    -0.503 OA
ATOM     46  H   UNL     1      11.178   2.968  23.027  0.00  0.00    +0.292 HD
ENDBRANCH  40  45
ENDBRANCH  36  37
BRANCH  35  47
ATOM     47  O   UNL     1       3.306  -4.220  24.040  0.00  0.00    -0.506 OA
ATOM     48  H   UNL     1       2.663  -4.469  23.360  0.00  0.00    +0.292 HD
ENDBRANCH  35  47
BRANCH  32  49
ATOM     49  O   UNL     1       6.286  -7.082  21.711  0.00  0.00    -0.507 OA
ATOM     50  H   UNL     1       5.417  -7.486  21.511  0.00  0.00    +0.292 HD
ENDBRANCH  32  49
ENDBRANCH  25  26
ENDBRANCH   3  25
BRANCH   1  51
ATOM     51  C   UNL     1       4.262   1.007  28.786  0.00  0.00    +0.197 C 
BRANCH  51  52
ATOM     52  O   UNL     1       2.914   0.628  29.168  0.00  0.00    -0.346 OA
BRANCH  52  56
ATOM     53  C   UNL     1       3.866  -3.585  30.290  0.00  0.00    +0.041 C 
ATOM     54  C   UNL     1       4.085  -2.896  28.939  0.00  0.00    +0.149 C 
ATOM     55  O   UNL     1       4.054  -1.458  29.055  0.00  0.00    -0.343 OA
ATOM     56  C   UNL     1       2.764  -0.841  29.192  0.00  0.00    +0.282 C 
ATOM     57  C   UNL     1       1.836  -1.315  28.029  0.00  0.00    +0.201 C 
ATOM     58  C   UNL     1       1.754  -2.856  27.992  0.00  0.00    +0.179 C 
ATOM     59  C   UNL     1       3.165  -3.443  27.832  0.00  0.00    +0.174 C 
BRANCH  59  60
ATOM     60  O   UNL     1       3.178  -4.877  27.820  0.00  0.00    -0.387 OA
ATOM     61  H   UNL     1       2.351  -5.207  28.210  0.00  0.00    +0.210 HD
ENDBRANCH  59  60
BRANCH  58  62
ATOM     62  O   UNL     1       0.921  -3.294  26.908  0.00  0.00    -0.386 OA
ATOM     63  H   UNL     1       1.530  -3.649  26.229  0.00  0.00    +0.210 HD
ENDBRANCH  58  62
BRANCH  57  64
ATOM     64  O   UNL     1       2.344  -0.892  26.745  0.00  0.00    -0.384 OA
ATOM     65  H   UNL     1       2.634   0.034  26.862  0.00  0.00    +0.210 HD
ENDBRANCH  57  64
ENDBRANCH  52  56
ENDBRANCH  51  52
ENDBRANCH   1  51
TORSDOF 20
ENDMDL
MODEL 4
REMARK VINA RESULT:      -6.5      2.626      6.233
REMARK  Name = 
REMARK  22 active torsions:
REMARK  status: ('A' for Active; 'I' for Inactive)
REMARK    1  A    between atoms: C_1  and  C_2
REMARK    2  A    between atoms: C_3  and  O_53
REMARK    3  A    between atoms: C_4  and  O_52
REMARK    4  A    between atoms: C_5  and  O_51
REMARK    5  A    between atoms: C_6  and  O_8
REMARK    6  A    between atoms: O_8  and  C_9
REMARK    7  A    between atoms: C_9  and  C_10
REMARK    8  A    between atoms: C_11  and  O_50
REMARK    9  A    between atoms: C_12  and  O_49
REMARK   10  A    between atoms: C_13  and  O_38
REMARK   11  A    between atoms: C_14  and  O_16
REMARK   12  A    between atoms: O_16  and  C_17
REMARK   13  A    between atoms: C_18  and  C_30
REMARK   14  A    between atoms: C_22  and  O_29
REMARK   15  A    between atoms: C_24  and  O_28
REMARK   16  A    between atoms: C_32  and  O_37
REMARK   17  A    between atoms: C_33  and  O_36
REMARK   18  A    between atoms: O_38  and  C_39
REMARK   19  A    between atoms: C_40  and  O_48
REMARK   20  A    between atoms: C_41  and  O_47
REMARK   21  A    between atoms: C_42  and  O_46
REMARK   22  A    between atoms: C_43  and  C_45
REMARK                            x       y       z     vdW  Elec       q    Type
REMARK                         _______ _______ _______ _____ _____    ______ ____
ROOT
ATOM      1  C   UNL     1       4.373  -0.896  27.424  0.00  0.00    +0.179 C 
ATOM      2  O   UNL     1       5.662  -1.412  27.027  0.00  0.00    -0.331 OA
ATOM      3  C   UNL     1       6.867  -0.830  27.556  0.00  0.00    +0.340 C 
ATOM      4  C   UNL     1       6.824   0.739  27.772  0.00  0.00    +0.221 C 
ATOM      5  C   UNL     1       5.507   1.045  28.509  0.00  0.00    +0.180 C 
ATOM      6  C   UNL     1       4.350   0.618  27.615  0.00  0.00    +0.177 C 
ENDROOT
BRANCH   6   7
ATOM      7  O   UNL     1       3.106   1.115  28.105  0.00  0.00    -0.386 OA
ATOM      8  H   UNL     1       2.475   1.128  27.361  0.00  0.00    +0.210 HD
ENDBRANCH   6   7
BRANCH   5   9
ATOM      9  O   UNL     1       5.342   2.411  28.898  0.00  0.00    -0.386 OA
ATOM     10  H   UNL     1       5.021   2.429  29.820  0.00  0.00    +0.210 HD
ENDBRANCH   5   9
BRANCH   4  11
ATOM     11  O   UNL     1       6.997   1.502  26.536  0.00  0.00    -0.337 OA
BRANCH  11  12
ATOM     12  C   UNL     1       6.214   2.714  26.412  0.00  0.00    +0.282 C 
ATOM     13  O   UNL     1       5.608   2.808  25.097  0.00  0.00    -0.343 OA
ATOM     14  C   UNL     1       6.529   3.032  24.018  0.00  0.00    +0.149 C 
ATOM     15  C   UNL     1       5.696   3.150  22.738  0.00  0.00    +0.041 C 
ATOM     16  C   UNL     1       7.385   4.297  24.258  0.00  0.00    +0.174 C 
ATOM     17  C   UNL     1       8.047   4.199  25.638  0.00  0.00    +0.179 C 
ATOM     18  C   UNL     1       6.957   4.042  26.701  0.00  0.00    +0.201 C 
BRANCH  18  19
ATOM     19  O   UNL     1       7.503   4.162  28.014  0.00  0.00    -0.384 OA
ATOM     20  H   UNL     1       7.318   3.323  28.479  0.00  0.00    +0.210 HD
ENDBRANCH  18  19
BRANCH  17  21
ATOM     21  O   UNL     1       8.836   5.356  25.945  0.00  0.00    -0.386 OA
ATOM     22  H   UNL     1       8.294   5.910  26.539  0.00  0.00    +0.210 HD
ENDBRANCH  17  21
BRANCH  16  23
ATOM     23  O   UNL     1       6.588   5.497  24.220  0.00  0.00    -0.387 OA
ATOM     24  H   UNL     1       5.687   5.272  24.521  0.00  0.00    +0.210 HD
ENDBRANCH  16  23
ENDBRANCH  11  12
ENDBRANCH   4  11
BRANCH   3  25
ATOM     25  O   UNL     1       8.014  -1.123  26.706  0.00  0.00    -0.453 OA
BRANCH  25  26
ATOM     26  C   UNL     1       7.951  -2.002  25.631  0.00  0.00    +0.214 A 
ATOM     27  C   UNL     1       7.552  -3.445  25.731  0.00  0.00    +0.238 A 
ATOM     28  O   UNL     1       7.574  -4.057  26.804  0.00  0.00    -0.283 OA
ATOM     29  C   UNL     1       7.168  -4.141  24.470  0.00  0.00    +0.109 A 
ATOM     30  C   UNL     1       7.591  -3.568  23.279  0.00  0.00    +0.147 A 
ATOM     31  C   UNL     1       7.301  -4.131  22.032  0.00  0.00    +0.092 A 
ATOM     32  C   UNL     1       6.566  -5.302  21.987  0.00  0.00    +0.124 A 
ATOM     33  C   UNL     1       6.131  -5.908  23.159  0.00  0.00    +0.091 A 
ATOM     34  O   UNL     1       8.321  -2.421  23.265  0.00  0.00    -0.451 OA
ATOM     35  C   UNL     1       6.430  -5.334  24.404  0.00  0.00    +0.135 A 
ATOM     36  C   UNL     1       8.284  -1.603  24.380  0.00  0.00    +0.181 A 
BRANCH  36  37
ATOM     37  C   UNL     1       8.603  -0.237  23.937  0.00  0.00    +0.025 A 
ATOM     38  C   UNL     1       9.673   0.458  24.520  0.00  0.00    +0.015 A 
ATOM     39  C   UNL     1      10.308   1.480  23.810  0.00  0.00    +0.050 A 
ATOM     40  C   UNL     1       9.908   1.753  22.512  0.00  0.00    +0.158 A 
ATOM     41  C   UNL     1       8.804   1.113  21.953  0.00  0.00    +0.159 A 
ATOM     42  C   UNL     1       8.127   0.143  22.667  0.00  0.00    +0.060 A 
BRANCH  41  43
ATOM     43  O   UNL     1       8.477   1.391  20.656  0.00  0.00    -0.503 OA
ATOM     44  H   UNL     1       9.283   1.733  20.231  0.00  0.00    +0.292 HD
ENDBRANCH  41  43
BRANCH  40  45
ATOM     45  O   UNL     1      10.685   2.590  21.767  0.00  0.00    -0.503 OA
ATOM     46  H   UNL     1      11.425   2.830  22.357  0.00  0.00    +0.292 HD
ENDBRANCH  40  45
ENDBRANCH  36  37
BRANCH  35  47
ATOM     47  O   UNL     1       5.960  -5.931  25.537  0.00  0.00    -0.506 OA
ATOM     48  H   UNL     1       6.541  -6.671  25.772  0.00  0.00    +0.292 HD
ENDBRANCH  35  47
BRANCH  32  49
ATOM     49  O   UNL     1       6.232  -5.890  20.803  0.00  0.00    -0.507 OA
ATOM     50  H   UNL     1       5.345  -5.580  20.528  0.00  0.00    +0.292 HD
ENDBRANCH  32  49
ENDBRANCH  25  26
ENDBRANCH   3  25
BRANCH   1  51
ATOM     51  C   UNL     1       3.524  -1.760  28.444  0.00  0.00    +0.197 C 
BRANCH  51  52
ATOM     52  O   UNL     1       4.169  -2.772  29.261  0.00  0.00    -0.346 OA
BRANCH  52  56
ATOM     53  C   UNL     1       1.153  -6.048  28.968  0.00  0.00    +0.041 C 
ATOM     54  C   UNL     1       2.329  -5.932  29.944  0.00  0.00    +0.149 C 
ATOM     55  O   UNL     1       2.828  -4.582  30.030  0.00  0.00    -0.343 OA
ATOM     56  C   UNL     1       3.647  -4.117  28.945  0.00  0.00    +0.282 C 
ATOM     57  C   UNL     1       4.822  -5.119  28.716  0.00  0.00    +0.201 C 
ATOM     58  C   UNL     1       4.282  -6.547  28.480  0.00  0.00    +0.179 C 
ATOM     59  C   UNL     1       3.428  -6.978  29.683  0.00  0.00    +0.174 C 
BRANCH  59  60
ATOM     60  O   UNL     1       2.861  -8.286  29.528  0.00  0.00    -0.387 OA
ATOM     61  H   UNL     1       2.646  -8.647  30.405  0.00  0.00    +0.210 HD
ENDBRANCH  59  60
BRANCH  58  62
ATOM     62  O   UNL     1       5.362  -7.474  28.294  0.00  0.00    -0.386 OA
ATOM     63  H   UNL     1       5.634  -7.751  29.193  0.00  0.00    +0.210 HD
ENDBRANCH  58  62
BRANCH  57  64
ATOM     64  O   UNL     1       5.689  -5.185  29.868  0.00  0.00    -0.384 OA
ATOM     65  H   UNL     1       5.718  -6.126  30.130  0.00  0.00    +0.210 HD
ENDBRANCH  57  64
ENDBRANCH  52  56
ENDBRANCH  51  52
ENDBRANCH   1  51
TORSDOF 20
ENDMDL
MODEL 5
REMARK VINA RESULT:      -6.5      2.421      7.115
REMARK  Name = 
REMARK  22 active torsions:
REMARK  status: ('A' for Active; 'I' for Inactive)
REMARK    1  A    between atoms: C_1  and  C_2
REMARK    2  A    between atoms: C_3  and  O_53
REMARK    3  A    between atoms: C_4  and  O_52
REMARK    4  A    between atoms: C_5  and  O_51
REMARK    5  A    between atoms: C_6  and  O_8
REMARK    6  A    between atoms: O_8  and  C_9
REMARK    7  A    between atoms: C_9  and  C_10
REMARK    8  A    between atoms: C_11  and  O_50
REMARK    9  A    between atoms: C_12  and  O_49
REMARK   10  A    between atoms: C_13  and  O_38
REMARK   11  A    between atoms: C_14  and  O_16
REMARK   12  A    between atoms: O_16  and  C_17
REMARK   13  A    between atoms: C_18  and  C_30
REMARK   14  A    between atoms: C_22  and  O_29
REMARK   15  A    between atoms: C_24  and  O_28
REMARK   16  A    between atoms: C_32  and  O_37
REMARK   17  A    between atoms: C_33  and  O_36
REMARK   18  A    between atoms: O_38  and  C_39
REMARK   19  A    between atoms: C_40  and  O_48
REMARK   20  A    between atoms: C_41  and  O_47
REMARK   21  A    between atoms: C_42  and  O_46
REMARK   22  A    between atoms: C_43  and  C_45
REMARK                            x       y       z     vdW  Elec       q    Type
REMARK                         _______ _______ _______ _____ _____    ______ ____
ROOT
ATOM      1  C   UNL     1       9.115   0.878  24.884  0.00  0.00    +0.179 C 
ATOM      2  O   UNL     1       7.865   0.578  25.541  0.00  0.00    -0.331 OA
ATOM      3  C   UNL     1       6.694   0.274  24.762  0.00  0.00    +0.340 C 
ATOM      4  C   UNL     1       6.549   1.088  23.410  0.00  0.00    +0.221 C 
ATOM      5  C   UNL     1       7.913   1.007  22.700  0.00  0.00    +0.180 C 
ATOM      6  C   UNL     1       8.954   1.673  23.591  0.00  0.00    +0.177 C 
ENDROOT
BRANCH   6   7
ATOM      7  O   UNL     1      10.179   1.881  22.890  0.00  0.00    -0.386 OA
ATOM      8  H   UNL     1      10.857   2.136  23.543  0.00  0.00    +0.210 HD
ENDBRANCH   6   7
BRANCH   5   9
ATOM      9  O   UNL     1       7.945   1.592  21.396  0.00  0.00    -0.386 OA
ATOM     10  H   UNL     1       8.856   1.520  21.052  0.00  0.00    +0.210 HD
ENDBRANCH   5   9
BRANCH   4  11
ATOM     11  O   UNL     1       6.066   2.455  23.603  0.00  0.00    -0.337 OA
BRANCH  11  12
ATOM     12  C   UNL     1       5.489   3.104  22.443  0.00  0.00    +0.282 C 
ATOM     13  O   UNL     1       6.374   4.133  21.930  0.00  0.00    -0.343 OA
ATOM     14  C   UNL     1       6.521   5.285  22.775  0.00  0.00    +0.149 C 
ATOM     15  C   UNL     1       7.443   6.262  22.040  0.00  0.00    +0.041 C 
ATOM     16  C   UNL     1       5.152   5.928  23.098  0.00  0.00    +0.174 C 
ATOM     17  C   UNL     1       4.214   4.853  23.660  0.00  0.00    +0.179 C 
ATOM     18  C   UNL     1       4.083   3.724  22.634  0.00  0.00    +0.201 C 
BRANCH  18  19
ATOM     19  O   UNL     1       3.058   2.806  23.014  0.00  0.00    -0.384 OA
ATOM     20  H   UNL     1       2.802   2.314  22.210  0.00  0.00    +0.210 HD
ENDBRANCH  18  19
BRANCH  17  21
ATOM     21  O   UNL     1       2.910   5.371  23.954  0.00  0.00    -0.386 OA
ATOM     22  H   UNL     1       2.746   6.088  23.312  0.00  0.00    +0.210 HD
ENDBRANCH  17  21
BRANCH  16  23
ATOM     23  O   UNL     1       4.539   6.498  21.924  0.00  0.00    -0.387 OA
ATOM     24  H   UNL     1       4.151   5.771  21.402  0.00  0.00    +0.210 HD
ENDBRANCH  16  23
ENDBRANCH  11  12
ENDBRANCH   4  11
BRANCH   3  25
ATOM     25  O   UNL     1       5.476   0.485  25.532  0.00  0.00    -0.453 OA
BRANCH  25  26
ATOM     26  C   UNL     1       4.974  -0.456  26.424  0.00  0.00    +0.214 A 
ATOM     27  C   UNL     1       4.510  -1.830  26.043  0.00  0.00    +0.238 A 
ATOM     28  O   UNL     1       4.218  -2.123  24.879  0.00  0.00    -0.283 OA
ATOM     29  C   UNL     1       4.365  -2.835  27.135  0.00  0.00    +0.109 A 
ATOM     30  C   UNL     1       4.259  -2.347  28.430  0.00  0.00    +0.147 A 
ATOM     31  C   UNL     1       4.111  -3.189  29.537  0.00  0.00    +0.092 A 
ATOM     32  C   UNL     1       4.068  -4.556  29.331  0.00  0.00    +0.124 A 
ATOM     33  C   UNL     1       4.164  -5.080  28.048  0.00  0.00    +0.091 A 
ATOM     34  O   UNL     1       4.289  -1.014  28.689  0.00  0.00    -0.451 OA
ATOM     35  C   UNL     1       4.311  -4.225  26.944  0.00  0.00    +0.135 A 
ATOM     36  C   UNL     1       4.842  -0.170  27.742  0.00  0.00    +0.181 A 
BRANCH  36  37
ATOM     37  C   UNL     1       5.310   1.036  28.442  0.00  0.00    +0.025 A 
ATOM     38  C   UNL     1       6.621   1.096  28.938  0.00  0.00    +0.015 A 
ATOM     39  C   UNL     1       7.239   2.335  29.121  0.00  0.00    +0.050 A 
ATOM     40  C   UNL     1       6.567   3.490  28.754  0.00  0.00    +0.158 A 
ATOM     41  C   UNL     1       5.243   3.440  28.325  0.00  0.00    +0.159 A 
ATOM     42  C   UNL     1       4.596   2.225  28.197  0.00  0.00    +0.060 A 
BRANCH  41  43
ATOM     43  O   UNL     1       4.639   4.604  27.937  0.00  0.00    -0.503 OA
ATOM     44  H   UNL     1       4.716   4.649  26.968  0.00  0.00    +0.292 HD
ENDBRANCH  41  43
BRANCH  40  45
ATOM     45  O   UNL     1       7.269   4.658  28.730  0.00  0.00    -0.503 OA
ATOM     46  H   UNL     1       7.714   4.696  29.599  0.00  0.00    +0.292 HD
ENDBRANCH  40  45
ENDBRANCH  36  37
BRANCH  35  47
ATOM     47  O   UNL     1       4.439  -4.768  25.700  0.00  0.00    -0.506 OA
ATOM     48  H   UNL     1       3.662  -5.315  25.510  0.00  0.00    +0.292 HD
ENDBRANCH  35  47
BRANCH  32  49
ATOM     49  O   UNL     1       3.946  -5.432  30.370  0.00  0.00    -0.507 OA
ATOM     50  H   UNL     1       4.529  -5.145  31.102  0.00  0.00    +0.292 HD
ENDBRANCH  32  49
ENDBRANCH  25  26
ENDBRANCH   3  25
BRANCH   1  51
ATOM     51  C   UNL     1      10.236  -0.241  24.903  0.00  0.00    +0.197 C 
BRANCH  51  52
ATOM     52  O   UNL     1      10.165  -1.364  23.986  0.00  0.00    -0.346 OA
BRANCH  52  56
ATOM     53  C   UNL     1       8.702  -4.873  26.322  0.00  0.00    +0.041 C 
ATOM     54  C   UNL     1       8.996  -4.795  24.820  0.00  0.00    +0.149 C 
ATOM     55  O   UNL     1       9.829  -3.665  24.491  0.00  0.00    -0.343 OA
ATOM     56  C   UNL     1       9.199  -2.375  24.462  0.00  0.00    +0.282 C 
ATOM     57  C   UNL     1       7.954  -2.426  23.522  0.00  0.00    +0.201 C 
ATOM     58  C   UNL     1       6.987  -3.547  23.960  0.00  0.00    +0.179 C 
ATOM     59  C   UNL     1       7.726  -4.895  23.955  0.00  0.00    +0.174 C 
BRANCH  59  60
ATOM     60  O   UNL     1       6.902  -5.988  24.383  0.00  0.00    -0.387 OA
ATOM     61  H   UNL     1       7.156  -6.789  23.894  0.00  0.00    +0.210 HD
ENDBRANCH  59  60
BRANCH  58  62
ATOM     62  O   UNL     1       5.853  -3.613  23.082  0.00  0.00    -0.386 OA
ATOM     63  H   UNL     1       5.407  -2.744  23.155  0.00  0.00    +0.210 HD
ENDBRANCH  58  62
BRANCH  57  64
ATOM     64  O   UNL     1       8.335  -2.712  22.159  0.00  0.00    -0.384 OA
ATOM     65  H   UNL     1       7.523  -2.612  21.625  0.00  0.00    +0.210 HD
ENDBRANCH  57  64
ENDBRANCH  52  56
ENDBRANCH  51  52
ENDBRANCH   1  51
TORSDOF 20
ENDMDL
MODEL 6
REMARK VINA RESULT:      -6.5      1.591      2.276
REMARK  Name = 
REMARK  22 active torsions:
REMARK  status: ('A' for Active; 'I' for Inactive)
REMARK    1  A    between atoms: C_1  and  C_2
REMARK    2  A    between atoms: C_3  and  O_53
REMARK    3  A    between atoms: C_4  and  O_52
REMARK    4  A    between atoms: C_5  and  O_51
REMARK    5  A    between atoms: C_6  and  O_8
REMARK    6  A    between atoms: O_8  and  C_9
REMARK    7  A    between atoms: C_9  and  C_10
REMARK    8  A    between atoms: C_11  and  O_50
REMARK    9  A    between atoms: C_12  and  O_49
REMARK   10  A    between atoms: C_13  and  O_38
REMARK   11  A    between atoms: C_14  and  O_16
REMARK   12  A    between atoms: O_16  and  C_17
REMARK   13  A    between atoms: C_18  and  C_30
REMARK   14  A    between atoms: C_22  and  O_29
REMARK   15  A    between atoms: C_24  and  O_28
REMARK   16  A    between atoms: C_32  and  O_37
REMARK   17  A    between atoms: C_33  and  O_36
REMARK   18  A    between atoms: O_38  and  C_39
REMARK   19  A    between atoms: C_40  and  O_48
REMARK   20  A    between atoms: C_41  and  O_47
REMARK   21  A    between atoms: C_42  and  O_46
REMARK   22  A    between atoms: C_43  and  C_45
REMARK                            x       y       z     vdW  Elec       q    Type
REMARK                         _______ _______ _______ _____ _____    ______ ____
ROOT
ATOM      1  C   UNL     1       6.172  -0.835  25.769  0.00  0.00    +0.179 C 
ATOM      2  O   UNL     1       6.580   0.368  25.084  0.00  0.00    -0.331 OA
ATOM      3  C   UNL     1       6.255   1.658  25.632  0.00  0.00    +0.340 C 
ATOM      4  C   UNL     1       4.844   1.755  26.346  0.00  0.00    +0.221 C 
ATOM      5  C   UNL     1       4.743   0.539  27.287  0.00  0.00    +0.180 C 
ATOM      6  C   UNL     1       4.804  -0.726  26.439  0.00  0.00    +0.177 C 
ENDROOT
BRANCH   6   7
ATOM      7  O   UNL     1       4.446  -1.877  27.200  0.00  0.00    -0.386 OA
ATOM      8  H   UNL     1       4.584  -2.662  26.639  0.00  0.00    +0.210 HD
ENDBRANCH   6   7
BRANCH   5   9
ATOM      9  O   UNL     1       3.576   0.515  28.112  0.00  0.00    -0.386 OA
ATOM     10  H   UNL     1       2.971   1.217  27.806  0.00  0.00    +0.210 HD
ENDBRANCH   5   9
BRANCH   4  11
ATOM     11  O   UNL     1       3.725   1.869  25.411  0.00  0.00    -0.337 OA
BRANCH  11  12
ATOM     12  C   UNL     1       2.687   2.818  25.760  0.00  0.00    +0.282 C 
ATOM     13  O   UNL     1       1.543   2.686  24.878  0.00  0.00    -0.343 OA
ATOM     14  C   UNL     1       1.771   3.101  23.522  0.00  0.00    +0.149 C 
ATOM     15  C   UNL     1       0.444   2.931  22.776  0.00  0.00    +0.041 C 
ATOM     16  C   UNL     1       2.280   4.558  23.454  0.00  0.00    +0.174 C 
ATOM     17  C   UNL     1       3.502   4.706  24.368  0.00  0.00    +0.179 C 
ATOM     18  C   UNL     1       3.106   4.309  25.793  0.00  0.00    +0.201 C 
BRANCH  18  19
ATOM     19  O   UNL     1       4.143   4.631  26.719  0.00  0.00    -0.384 OA
ATOM     20  H   UNL     1       4.394   3.801  27.168  0.00  0.00    +0.210 HD
ENDBRANCH  18  19
BRANCH  17  21
ATOM     21  O   UNL     1       4.012   6.045  24.381  0.00  0.00    -0.386 OA
ATOM     22  H   UNL     1       4.426   6.175  25.257  0.00  0.00    +0.210 HD
ENDBRANCH  17  21
BRANCH  16  23
ATOM     23  O   UNL     1       1.274   5.497  23.885  0.00  0.00    -0.387 OA
ATOM     24  H   UNL     1       1.698   6.141  24.484  0.00  0.00    +0.210 HD
ENDBRANCH  16  23
ENDBRANCH  11  12
ENDBRANCH   4  11
BRANCH   3  25
ATOM     25  O   UNL     1       6.299   2.695  24.609  0.00  0.00    -0.453 OA
BRANCH  25  26
ATOM     26  C   UNL     1       7.435   3.453  24.351  0.00  0.00    +0.214 A 
ATOM     27  C   UNL     1       7.665   4.845  24.861  0.00  0.00    +0.238 A 
ATOM     28  O   UNL     1       6.739   5.556  25.262  0.00  0.00    -0.283 OA
ATOM     29  C   UNL     1       9.060   5.369  24.824  0.00  0.00    +0.109 A 
ATOM     30  C   UNL     1       9.950   4.734  23.969  0.00  0.00    +0.147 A 
ATOM     31  C   UNL     1      11.282   5.137  23.841  0.00  0.00    +0.092 A 
ATOM     32  C   UNL     1      11.728   6.209  24.593  0.00  0.00    +0.124 A 
ATOM     33  C   UNL     1      10.864   6.874  25.455  0.00  0.00    +0.091 A 
ATOM     34  O   UNL     1       9.565   3.680  23.201  0.00  0.00    -0.451 OA
ATOM     35  C   UNL     1       9.528   6.459  25.575  0.00  0.00    +0.135 A 
ATOM     36  C   UNL     1       8.433   2.975  23.571  0.00  0.00    +0.181 A 
BRANCH  36  37
ATOM     37  C   UNL     1       8.560   1.616  23.020  0.00  0.00    +0.025 A 
ATOM     38  C   UNL     1       8.701   1.430  21.637  0.00  0.00    +0.015 A 
ATOM     39  C   UNL     1       9.321   0.277  21.150  0.00  0.00    +0.050 A 
ATOM     40  C   UNL     1       9.844  -0.642  22.046  0.00  0.00    +0.158 A 
ATOM     41  C   UNL     1       9.648  -0.495  23.417  0.00  0.00    +0.159 A 
ATOM     42  C   UNL     1       8.981   0.610  23.912  0.00  0.00    +0.060 A 
BRANCH  41  43
ATOM     43  O   UNL     1      10.218  -1.409  24.259  0.00  0.00    -0.503 OA
ATOM     44  H   UNL     1      10.615  -0.905  24.990  0.00  0.00    +0.292 HD
ENDBRANCH  41  43
BRANCH  40  45
ATOM     45  O   UNL     1      10.637  -1.635  21.553  0.00  0.00    -0.503 OA
ATOM     46  H   UNL     1      10.951  -2.115  22.344  0.00  0.00    +0.292 HD
ENDBRANCH  40  45
ENDBRANCH  36  37
BRANCH  35  47
ATOM     47  O   UNL     1       8.711   7.107  26.455  0.00  0.00    -0.506 OA
ATOM     48  H   UNL     1       8.090   7.663  25.962  0.00  0.00    +0.292 HD
ENDBRANCH  35  47
BRANCH  32  49
ATOM     49  O   UNL     1      13.021   6.639  24.530  0.00  0.00    -0.507 OA
ATOM     50  H   UNL     1      13.332   6.588  23.603  0.00  0.00    +0.292 HD
ENDBRANCH  32  49
ENDBRANCH  25  26
ENDBRANCH   3  25
BRANCH   1  51
ATOM     51  C   UNL     1       7.287  -1.648  26.545  0.00  0.00    +0.197 C 
BRANCH  51  52
ATOM     52  O   UNL     1       7.920  -2.797  25.924  0.00  0.00    -0.346 OA
BRANCH  52  56
ATOM     53  C   UNL     1       4.068  -4.057  24.056  0.00  0.00    +0.041 C 
ATOM     54  C   UNL     1       5.123  -4.940  24.729  0.00  0.00    +0.149 C 
ATOM     55  O   UNL     1       6.012  -4.175  25.570  0.00  0.00    -0.343 OA
ATOM     56  C   UNL     1       7.033  -3.408  24.913  0.00  0.00    +0.282 C 
ATOM     57  C   UNL     1       7.849  -4.337  23.960  0.00  0.00    +0.201 C 
ATOM     58  C   UNL     1       6.912  -5.050  22.962  0.00  0.00    +0.179 C 
ATOM     59  C   UNL     1       5.857  -5.858  23.734  0.00  0.00    +0.174 C 
BRANCH  59  60
ATOM     60  O   UNL     1       4.925  -6.529  22.876  0.00  0.00    -0.387 OA
ATOM     61  H   UNL     1       4.482  -5.873  22.311  0.00  0.00    +0.210 HD
ENDBRANCH  59  60
BRANCH  58  62
ATOM     62  O   UNL     1       7.657  -5.924  22.101  0.00  0.00    -0.386 OA
ATOM     63  H   UNL     1       7.983  -5.364  21.368  0.00  0.00    +0.210 HD
ENDBRANCH  58  62
BRANCH  57  64
ATOM     64  O   UNL     1       8.540  -5.369  24.696  0.00  0.00    -0.384 OA
ATOM     65  H   UNL     1       9.250  -5.691  24.107  0.00  0.00    +0.210 HD
ENDBRANCH  57  64
ENDBRANCH  52  56
ENDBRANCH  51  52
ENDBRANCH   1  51
TORSDOF 20
ENDMDL
MODEL 7
REMARK VINA RESULT:      -6.2      1.747      8.575
REMARK  Name = 
REMARK  22 active torsions:
REMARK  status: ('A' for Active; 'I' for Inactive)
REMARK    1  A    between atoms: C_1  and  C_2
REMARK    2  A    between atoms: C_3  and  O_53
REMARK    3  A    between atoms: C_4  and  O_52
REMARK    4  A    between atoms: C_5  and  O_51
REMARK    5  A    between atoms: C_6  and  O_8
REMARK    6  A    between atoms: O_8  and  C_9
REMARK    7  A    between atoms: C_9  and  C_10
REMARK    8  A    between atoms: C_11  and  O_50
REMARK    9  A    between atoms: C_12  and  O_49
REMARK   10  A    between atoms: C_13  and  O_38
REMARK   11  A    between atoms: C_14  and  O_16
REMARK   12  A    between atoms: O_16  and  C_17
REMARK   13  A    between atoms: C_18  and  C_30
REMARK   14  A    between atoms: C_22  and  O_29
REMARK   15  A    between atoms: C_24  and  O_28
REMARK   16  A    between atoms: C_32  and  O_37
REMARK   17  A    between atoms: C_33  and  O_36
REMARK   18  A    between atoms: O_38  and  C_39
REMARK   19  A    between atoms: C_40  and  O_48
REMARK   20  A    between atoms: C_41  and  O_47
REMARK   21  A    between atoms: C_42  and  O_46
REMARK   22  A    between atoms: C_43  and  C_45
REMARK                            x       y       z     vdW  Elec       q    Type
REMARK                         _______ _______ _______ _____ _____    ______ ____
ROOT
ATOM      1  C   UNL     1       8.574   0.320  22.046  0.00  0.00    +0.179 C 
ATOM      2  O   UNL     1       7.376   0.739  22.734  0.00  0.00    -0.331 OA
ATOM      3  C   UNL     1       7.074   0.219  24.042  0.00  0.00    +0.340 C 
ATOM      4  C   UNL     1       7.472  -1.297  24.276  0.00  0.00    +0.221 C 
ATOM      5  C   UNL     1       8.917  -1.456  23.766  0.00  0.00    +0.180 C 
ATOM      6  C   UNL     1       8.933  -1.147  22.275  0.00  0.00    +0.177 C 
ENDROOT
BRANCH   6   7
ATOM      7  O   UNL     1      10.169  -1.533  21.678  0.00  0.00    -0.386 OA
ATOM      8  H   UNL     1      10.879  -1.364  22.324  0.00  0.00    +0.210 HD
ENDBRANCH   6   7
BRANCH   5   9
ATOM      9  O   UNL     1       9.497  -2.741  24.002  0.00  0.00    -0.386 OA
ATOM     10  H   UNL     1      10.452  -2.620  24.165  0.00  0.00    +0.210 HD
ENDBRANCH   5   9
BRANCH   4  11
ATOM     11  O   UNL     1       6.531  -2.245  23.681  0.00  0.00    -0.337 OA
BRANCH  11  12
ATOM     12  C   UNL     1       6.340  -3.495  24.390  0.00  0.00    +0.282 C 
ATOM     13  O   UNL     1       7.163  -4.546  23.821  0.00  0.00    -0.343 OA
ATOM     14  C   UNL     1       6.774  -4.978  22.507  0.00  0.00    +0.149 C 
ATOM     15  C   UNL     1       7.724  -6.112  22.112  0.00  0.00    +0.041 C 
ATOM     16  C   UNL     1       5.298  -5.436  22.476  0.00  0.00    +0.174 C 
ATOM     17  C   UNL     1       4.416  -4.324  23.057  0.00  0.00    +0.179 C 
ATOM     18  C   UNL     1       4.883  -4.013  24.481  0.00  0.00    +0.201 C 
BRANCH  18  19
ATOM     19  O   UNL     1       3.966  -3.142  25.141  0.00  0.00    -0.384 OA
ATOM     20  H   UNL     1       4.497  -2.497  25.647  0.00  0.00    +0.210 HD
ENDBRANCH  18  19
BRANCH  17  21
ATOM     21  O   UNL     1       3.030  -4.691  23.090  0.00  0.00    -0.386 OA
ATOM     22  H   UNL     1       2.712  -4.652  22.168  0.00  0.00    +0.210 HD
ENDBRANCH  17  21
BRANCH  16  23
ATOM     23  O   UNL     1       5.092  -6.632  23.254  0.00  0.00    -0.387 OA
ATOM     24  H   UNL     1       5.955  -7.078  23.356  0.00  0.00    +0.210 HD
ENDBRANCH  16  23
ENDBRANCH  11  12
ENDBRANCH   4  11
BRANCH   3  25
ATOM     25  O   UNL     1       5.656   0.351  24.350  0.00  0.00    -0.453 OA
BRANCH  25  26
ATOM     26  C   UNL     1       5.083   1.546  24.769  0.00  0.00    +0.214 A 
ATOM     27  C   UNL     1       4.678   2.664  23.856  0.00  0.00    +0.238 A 
ATOM     28  O   UNL     1       5.121   2.764  22.707  0.00  0.00    -0.283 OA
ATOM     29  C   UNL     1       3.747   3.693  24.400  0.00  0.00    +0.109 A 
ATOM     30  C   UNL     1       3.651   3.790  25.781  0.00  0.00    +0.147 A 
ATOM     31  C   UNL     1       2.819   4.721  26.411  0.00  0.00    +0.092 A 
ATOM     32  C   UNL     1       2.065   5.575  25.627  0.00  0.00    +0.124 A 
ATOM     33  C   UNL     1       2.140   5.513  24.241  0.00  0.00    +0.091 A 
ATOM     34  O   UNL     1       4.374   2.980  26.599  0.00  0.00    -0.451 OA
ATOM     35  C   UNL     1       2.980   4.575  23.621  0.00  0.00    +0.135 A 
ATOM     36  C   UNL     1       4.871   1.796  26.083  0.00  0.00    +0.181 A 
BRANCH  36  37
ATOM     37  C   UNL     1       5.051   0.865  27.207  0.00  0.00    +0.025 A 
ATOM     38  C   UNL     1       5.242   1.361  28.506  0.00  0.00    +0.015 A 
ATOM     39  C   UNL     1       4.903   0.572  29.608  0.00  0.00    +0.050 A 
ATOM     40  C   UNL     1       4.326  -0.670  29.402  0.00  0.00    +0.158 A 
ATOM     41  C   UNL     1       4.197  -1.194  28.118  0.00  0.00    +0.159 A 
ATOM     42  C   UNL     1       4.584  -0.451  27.019  0.00  0.00    +0.060 A 
BRANCH  41  43
ATOM     43  O   UNL     1       3.585  -2.407  27.968  0.00  0.00    -0.503 OA
ATOM     44  H   UNL     1       3.963  -2.814  27.169  0.00  0.00    +0.292 HD
ENDBRANCH  41  43
BRANCH  40  45
ATOM     45  O   UNL     1       3.800  -1.318  30.480  0.00  0.00    -0.503 OA
ATOM     46  H   UNL     1       3.660  -0.616  31.145  0.00  0.00    +0.292 HD
ENDBRANCH  40  45
ENDBRANCH  36  37
BRANCH  35  47
ATOM     47  O   UNL     1       3.007   4.511  22.258  0.00  0.00    -0.506 OA
ATOM     48  H   UNL     1       3.723   5.074  21.927  0.00  0.00    +0.292 HD
ENDBRANCH  35  47
BRANCH  32  49
ATOM     49  O   UNL     1       1.218   6.491  26.179  0.00  0.00    -0.507 OA
ATOM     50  H   UNL     1       0.410   6.036  26.490  0.00  0.00    +0.292 HD
ENDBRANCH  32  49
ENDBRANCH  25  26
ENDBRANCH   3  25
BRANCH   1  51
ATOM     51  C   UNL     1       9.775   1.349  21.978  0.00  0.00    +0.197 C 
BRANCH  51  52
ATOM     52  O   UNL     1      10.520   1.684  23.177  0.00  0.00    -0.346 OA
BRANCH  52  56
ATOM     53  C   UNL     1       7.562   4.724  24.564  0.00  0.00    +0.041 C 
ATOM     54  C   UNL     1       8.452   4.774  23.317  0.00  0.00    +0.149 C 
ATOM     55  O   UNL     1       8.962   3.471  22.966  0.00  0.00    -0.343 OA
ATOM     56  C   UNL     1      10.048   2.959  23.755  0.00  0.00    +0.282 C 
ATOM     57  C   UNL     1      11.204   4.007  23.787  0.00  0.00    +0.201 C 
ATOM     58  C   UNL     1      10.691   5.369  24.301  0.00  0.00    +0.179 C 
ATOM     59  C   UNL     1       9.542   5.857  23.404  0.00  0.00    +0.174 C 
BRANCH  59  60
ATOM     60  O   UNL     1       8.987   7.107  23.834  0.00  0.00    -0.387 OA
ATOM     61  H   UNL     1       8.195   6.936  24.373  0.00  0.00    +0.210 HD
ENDBRANCH  59  60
BRANCH  58  62
ATOM     62  O   UNL     1      11.747   6.341  24.308  0.00  0.00    -0.386 OA
ATOM     63  H   UNL     1      11.522   6.986  23.607  0.00  0.00    +0.210 HD
ENDBRANCH  58  62
BRANCH  57  64
ATOM     64  O   UNL     1      11.745   4.234  22.468  0.00  0.00    -0.384 OA
ATOM     65  H   UNL     1      11.073   3.902  21.841  0.00  0.00    +0.210 HD
ENDBRANCH  57  64
ENDBRANCH  52  56
ENDBRANCH  51  52
ENDBRANCH   1  51
TORSDOF 20
ENDMDL
MODEL 8
REMARK VINA RESULT:      -6.1      1.315      2.085
REMARK  Name = 
REMARK  22 active torsions:
REMARK  status: ('A' for Active; 'I' for Inactive)
REMARK    1  A    between atoms: C_1  and  C_2
REMARK    2  A    between atoms: C_3  and  O_53
REMARK    3  A    between atoms: C_4  and  O_52
REMARK    4  A    between atoms: C_5  and  O_51
REMARK    5  A    between atoms: C_6  and  O_8
REMARK    6  A    between atoms: O_8  and  C_9
REMARK    7  A    between atoms: C_9  and  C_10
REMARK    8  A    between atoms: C_11  and  O_50
REMARK    9  A    between atoms: C_12  and  O_49
REMARK   10  A    between atoms: C_13  and  O_38
REMARK   11  A    between atoms: C_14  and  O_16
REMARK   12  A    between atoms: O_16  and  C_17
REMARK   13  A    between atoms: C_18  and  C_30
REMARK   14  A    between atoms: C_22  and  O_29
REMARK   15  A    between atoms: C_24  and  O_28
REMARK   16  A    between atoms: C_32  and  O_37
REMARK   17  A    between atoms: C_33  and  O_36
REMARK   18  A    between atoms: O_38  and  C_39
REMARK   19  A    between atoms: C_40  and  O_48
REMARK   20  A    between atoms: C_41  and  O_47
REMARK   21  A    between atoms: C_42  and  O_46
REMARK   22  A    between atoms: C_43  and  C_45
REMARK                            x       y       z     vdW  Elec       q    Type
REMARK                         _______ _______ _______ _____ _____    ______ ____
ROOT
ATOM      1  C   UNL     1       5.250  -0.941  26.557  0.00  0.00    +0.179 C 
ATOM      2  O   UNL     1       5.823  -0.385  25.355  0.00  0.00    -0.331 OA
ATOM      3  C   UNL     1       6.806   0.663  25.441  0.00  0.00    +0.340 C 
ATOM      4  C   UNL     1       6.581   1.710  26.609  0.00  0.00    +0.221 C 
ATOM      5  C   UNL     1       6.303   0.892  27.884  0.00  0.00    +0.180 C 
ATOM      6  C   UNL     1       5.029   0.085  27.666  0.00  0.00    +0.177 C 
ENDROOT
BRANCH   6   7
ATOM      7  O   UNL     1       4.559  -0.482  28.887  0.00  0.00    -0.386 OA
ATOM      8  H   UNL     1       4.464  -1.443  28.753  0.00  0.00    +0.210 HD
ENDBRANCH   6   7
BRANCH   5   9
ATOM      9  O   UNL     1       6.188   1.667  29.080  0.00  0.00    -0.386 OA
ATOM     10  H   UNL     1       7.073   2.008  29.309  0.00  0.00    +0.210 HD
ENDBRANCH   5   9
BRANCH   4  11
ATOM     11  O   UNL     1       5.549   2.702  26.310  0.00  0.00    -0.337 OA
BRANCH  11  12
ATOM     12  C   UNL     1       4.187   2.214  26.236  0.00  0.00    +0.282 C 
ATOM     13  O   UNL     1       3.716   2.194  24.864  0.00  0.00    -0.343 OA
ATOM     14  C   UNL     1       3.516   3.487  24.272  0.00  0.00    +0.149 C 
ATOM     15  C   UNL     1       2.976   3.251  22.858  0.00  0.00    +0.041 C 
ATOM     16  C   UNL     1       2.549   4.351  25.113  0.00  0.00    +0.174 C 
ATOM     17  C   UNL     1       3.048   4.396  26.562  0.00  0.00    +0.179 C 
ATOM     18  C   UNL     1       3.142   2.965  27.098  0.00  0.00    +0.201 C 
BRANCH  18  19
ATOM     19  O   UNL     1       3.394   2.962  28.503  0.00  0.00    -0.384 OA
ATOM     20  H   UNL     1       2.831   3.655  28.896  0.00  0.00    +0.210 HD
ENDBRANCH  18  19
BRANCH  17  21
ATOM     21  O   UNL     1       2.180   5.157  27.412  0.00  0.00    -0.386 OA
ATOM     22  H   UNL     1       2.435   6.093  27.300  0.00  0.00    +0.210 HD
ENDBRANCH  17  21
BRANCH  16  23
ATOM     23  O   UNL     1       1.211   3.815  25.109  0.00  0.00    -0.387 OA
ATOM     24  H   UNL     1       1.175   3.098  24.448  0.00  0.00    +0.210 HD
ENDBRANCH  16  23
ENDBRANCH  11  12
ENDBRANCH   4  11
BRANCH   3  25
ATOM     25  O   UNL     1       6.892   1.411  24.194  0.00  0.00    -0.453 OA
BRANCH  25  26
ATOM     26  C   UNL     1       8.005   2.167  23.842  0.00  0.00    +0.214 A 
ATOM     27  C   UNL     1       8.084   3.662  23.934  0.00  0.00    +0.238 A 
ATOM     28  O   UNL     1       7.073   4.368  24.005  0.00  0.00    -0.283 OA
ATOM     29  C   UNL     1       9.439   4.283  23.890  0.00  0.00    +0.109 A 
ATOM     30  C   UNL     1      10.467   3.515  23.362  0.00  0.00    +0.147 A 
ATOM     31  C   UNL     1      11.778   3.989  23.260  0.00  0.00    +0.092 A 
ATOM     32  C   UNL     1      12.058   5.270  23.701  0.00  0.00    +0.124 A 
ATOM     33  C   UNL     1      11.053   6.070  24.229  0.00  0.00    +0.091 A 
ATOM     34  O   UNL     1      10.247   2.253  22.908  0.00  0.00    -0.451 OA
ATOM     35  C   UNL     1       9.740   5.584  24.325  0.00  0.00    +0.135 A 
ATOM     36  C   UNL     1       9.122   1.580  23.350  0.00  0.00    +0.181 A 
BRANCH  36  37
ATOM     37  C   UNL     1       9.399   0.139  23.247  0.00  0.00    +0.025 A 
ATOM     38  C   UNL     1      10.056  -0.525  24.294  0.00  0.00    +0.015 A 
ATOM     39  C   UNL     1       9.874  -1.899  24.468  0.00  0.00    +0.050 A 
ATOM     40  C   UNL     1       8.999  -2.579  23.636  0.00  0.00    +0.158 A 
ATOM     41  C   UNL     1       8.397  -1.938  22.555  0.00  0.00    +0.159 A 
ATOM     42  C   UNL     1       8.615  -0.591  22.333  0.00  0.00    +0.060 A 
BRANCH  41  43
ATOM     43  O   UNL     1       7.511  -2.644  21.790  0.00  0.00    -0.503 OA
ATOM     44  H   UNL     1       7.641  -2.352  20.871  0.00  0.00    +0.292 HD
ENDBRANCH  41  43
BRANCH  40  45
ATOM     45  O   UNL     1       8.668  -3.859  23.965  0.00  0.00    -0.503 OA
ATOM     46  H   UNL     1       8.274  -4.229  23.151  0.00  0.00    +0.292 HD
ENDBRANCH  40  45
ENDBRANCH  36  37
BRANCH  35  47
ATOM     47  O   UNL     1       8.779   6.377  24.880  0.00  0.00    -0.506 OA
ATOM     48  H   UNL     1       8.900   7.287  24.571  0.00  0.00    +0.292 HD
ENDBRANCH  35  47
BRANCH  32  49
ATOM     49  O   UNL     1      13.321   5.784  23.648  0.00  0.00    -0.507 OA
ATOM     50  H   UNL     1      13.305   6.627  23.150  0.00  0.00    +0.292 HD
ENDBRANCH  32  49
ENDBRANCH  25  26
ENDBRANCH   3  25
BRANCH   1  51
ATOM     51  C   UNL     1       5.741  -2.380  27.001  0.00  0.00    +0.197 C 
BRANCH  51  52
ATOM     52  O   UNL     1       4.800  -3.482  27.082  0.00  0.00    -0.346 OA
BRANCH  52  56
ATOM     53  C   UNL     1       1.882  -4.825  23.984  0.00  0.00    +0.041 C 
ATOM     54  C   UNL     1       3.028  -5.626  24.612  0.00  0.00    +0.149 C 
ATOM     55  O   UNL     1       3.488  -5.035  25.845  0.00  0.00    -0.343 OA
ATOM     56  C   UNL     1       4.323  -3.871  25.740  0.00  0.00    +0.282 C 
ATOM     57  C   UNL     1       5.530  -4.181  24.800  0.00  0.00    +0.201 C 
ATOM     58  C   UNL     1       5.036  -4.680  23.425  0.00  0.00    +0.179 C 
ATOM     59  C   UNL     1       4.162  -5.930  23.616  0.00  0.00    +0.174 C 
BRANCH  59  60
ATOM     60  O   UNL     1       3.635  -6.440  22.383  0.00  0.00    -0.387 OA
ATOM     61  H   UNL     1       3.358  -7.363  22.512  0.00  0.00    +0.210 HD
ENDBRANCH  59  60
BRANCH  58  62
ATOM     62  O   UNL     1       6.144  -4.991  22.568  0.00  0.00    -0.386 OA
ATOM     63  H   UNL     1       6.524  -4.129  22.299  0.00  0.00    +0.210 HD
ENDBRANCH  58  62
BRANCH  57  64
ATOM     64  O   UNL     1       6.368  -5.223  25.346  0.00  0.00    -0.384 OA
ATOM     65  H   UNL     1       5.874  -5.597  26.102  0.00  0.00    +0.210 HD
ENDBRANCH  57  64
ENDBRANCH  52  56
ENDBRANCH  51  52
ENDBRANCH   1  51
TORSDOF 20
ENDMDL
MODEL 9
REMARK VINA RESULT:      -6.0      2.048      6.196
REMARK  Name = 
REMARK  22 active torsions:
REMARK  status: ('A' for Active; 'I' for Inactive)
REMARK    1  A    between atoms: C_1  and  C_2
REMARK    2  A    between atoms: C_3  and  O_53
REMARK    3  A    between atoms: C_4  and  O_52
REMARK    4  A    between atoms: C_5  and  O_51
REMARK    5  A    between atoms: C_6  and  O_8
REMARK    6  A    between atoms: O_8  and  C_9
REMARK    7  A    between atoms: C_9  and  C_10
REMARK    8  A    between atoms: C_11  and  O_50
REMARK    9  A    between atoms: C_12  and  O_49
REMARK   10  A    between atoms: C_13  and  O_38
REMARK   11  A    between atoms: C_14  and  O_16
REMARK   12  A    between atoms: O_16  and  C_17
REMARK   13  A    between atoms: C_18  and  C_30
REMARK   14  A    between atoms: C_22  and  O_29
REMARK   15  A    between atoms: C_24  and  O_28
REMARK   16  A    between atoms: C_32  and  O_37
REMARK   17  A    between atoms: C_33  and  O_36
REMARK   18  A    between atoms: O_38  and  C_39
REMARK   19  A    between atoms: C_40  and  O_48
REMARK   20  A    between atoms: C_41  and  O_47
REMARK   21  A    between atoms: C_42  and  O_46
REMARK   22  A    between atoms: C_43  and  C_45
REMARK                            x       y       z     vdW  Elec       q    Type
REMARK                         _______ _______ _______ _____ _____    ______ ____
ROOT
ATOM      1  C   UNL     1       8.308  -3.845  26.383  0.00  0.00    +0.179 C 
ATOM      2  O   UNL     1       7.833  -2.639  27.019  0.00  0.00    -0.331 OA
ATOM      3  C   UNL     1       7.014  -1.710  26.286  0.00  0.00    +0.340 C 
ATOM      4  C   UNL     1       7.380  -1.546  24.753  0.00  0.00    +0.221 C 
ATOM      5  C   UNL     1       7.524  -2.969  24.181  0.00  0.00    +0.180 C 
ATOM      6  C   UNL     1       8.668  -3.663  24.910  0.00  0.00    +0.177 C 
ENDROOT
BRANCH   6   7
ATOM      7  O   UNL     1       9.039  -4.875  24.258  0.00  0.00    -0.386 OA
ATOM      8  H   UNL     1       8.753  -4.815  23.328  0.00  0.00    +0.210 HD
ENDBRANCH   6   7
BRANCH   5   9
ATOM      9  O   UNL     1       7.742  -3.028  22.769  0.00  0.00    -0.386 OA
ATOM     10  H   UNL     1       7.280  -3.815  22.422  0.00  0.00    +0.210 HD
ENDBRANCH   5   9
BRANCH   4  11
ATOM     11  O   UNL     1       8.549  -0.698  24.521  0.00  0.00    -0.337 OA
BRANCH  11  12
ATOM     12  C   UNL     1       8.727  -0.200  23.172  0.00  0.00    +0.282 C 
ATOM     13  O   UNL     1       9.813   0.760  23.112  0.00  0.00    -0.343 OA
ATOM     14  C   UNL     1       9.558   2.009  23.775  0.00  0.00    +0.149 C 
ATOM     15  C   UNL     1      10.790   2.890  23.555  0.00  0.00    +0.041 C 
ATOM     16  C   UNL     1       8.274   2.682  23.238  0.00  0.00    +0.174 C 
ATOM     17  C   UNL     1       7.114   1.682  23.315  0.00  0.00    +0.179 C 
ATOM     18  C   UNL     1       7.480   0.434  22.508  0.00  0.00    +0.201 C 
BRANCH  18  19
ATOM     19  O   UNL     1       6.355  -0.433  22.370  0.00  0.00    -0.384 OA
ATOM     20  H   UNL     1       6.104  -0.428  21.426  0.00  0.00    +0.210 HD
ENDBRANCH  18  19
BRANCH  17  21
ATOM     21  O   UNL     1       5.891   2.229  22.802  0.00  0.00    -0.386 OA
ATOM     22  H   UNL     1       6.139   2.804  22.053  0.00  0.00    +0.210 HD
ENDBRANCH  17  21
BRANCH  16  23
ATOM     23  O   UNL     1       8.423   3.100  21.866  0.00  0.00    -0.387 OA
ATOM     24  H   UNL     1       7.915   3.925  21.745  0.00  0.00    +0.210 HD
ENDBRANCH  16  23
ENDBRANCH  11  12
ENDBRANCH   4  11
BRANCH   3  25
ATOM     25  O   UNL     1       7.048  -0.384  26.888  0.00  0.00    -0.453 OA
BRANCH  25  26
ATOM     26  C   UNL     1       5.946   0.463  26.914  0.00  0.00    +0.214 A 
ATOM     27  C   UNL     1       5.980   1.918  26.554  0.00  0.00    +0.238 A 
ATOM     28  O   UNL     1       7.034   2.563  26.533  0.00  0.00    -0.283 OA
ATOM     29  C   UNL     1       4.679   2.586  26.264  0.00  0.00    +0.109 A 
ATOM     30  C   UNL     1       3.532   1.964  26.737  0.00  0.00    +0.147 A 
ATOM     31  C   UNL     1       2.255   2.496  26.536  0.00  0.00    +0.092 A 
ATOM     32  C   UNL     1       2.133   3.686  25.841  0.00  0.00    +0.124 A 
ATOM     33  C   UNL     1       3.259   4.341  25.358  0.00  0.00    +0.091 A 
ATOM     34  O   UNL     1       3.595   0.797  27.431  0.00  0.00    -0.451 OA
ATOM     35  C   UNL     1       4.536   3.797  25.568  0.00  0.00    +0.135 A 
ATOM     36  C   UNL     1       4.729   0.015  27.306  0.00  0.00    +0.181 A 
BRANCH  36  37
ATOM     37  C   UNL     1       4.346  -1.373  27.607  0.00  0.00    +0.025 A 
ATOM     38  C   UNL     1       4.154  -1.774  28.937  0.00  0.00    +0.015 A 
ATOM     39  C   UNL     1       3.324  -2.861  29.223  0.00  0.00    +0.050 A 
ATOM     40  C   UNL     1       2.653  -3.492  28.188  0.00  0.00    +0.158 A 
ATOM     41  C   UNL     1       2.891  -3.141  26.862  0.00  0.00    +0.159 A 
ATOM     42  C   UNL     1       3.758  -2.107  26.559  0.00  0.00    +0.060 A 
BRANCH  41  43
ATOM     43  O   UNL     1       2.174  -3.768  25.882  0.00  0.00    -0.503 OA
ATOM     44  H   UNL     1       1.260  -3.439  25.951  0.00  0.00    +0.292 HD
ENDBRANCH  41  43
BRANCH  40  45
ATOM     45  O   UNL     1       1.683  -4.394  28.511  0.00  0.00    -0.503 OA
ATOM     46  H   UNL     1       2.123  -5.024  29.114  0.00  0.00    +0.292 HD
ENDBRANCH  40  45
ENDBRANCH  36  37
BRANCH  35  47
ATOM     47  O   UNL     1       5.622   4.442  25.052  0.00  0.00    -0.506 OA
ATOM     48  H   UNL     1       5.992   3.915  24.329  0.00  0.00    +0.292 HD
ENDBRANCH  35  47
BRANCH  32  49
ATOM     49  O   UNL     1       0.914   4.246  25.593  0.00  0.00    -0.507 OA
ATOM     50  H   UNL     1       0.216   3.575  25.736  0.00  0.00    +0.292 HD
ENDBRANCH  32  49
ENDBRANCH  25  26
ENDBRANCH   3  25
BRANCH   1  51
ATOM     51  C   UNL     1       7.608  -5.206  26.787  0.00  0.00    +0.197 C 
BRANCH  51  52
ATOM     52  O   UNL     1       6.161  -5.293  26.857  0.00  0.00    -0.346 OA
BRANCH  52  56
ATOM     53  C   UNL     1       5.264  -5.705  22.505  0.00  0.00    +0.041 C 
ATOM     54  C   UNL     1       4.299  -5.338  23.636  0.00  0.00    +0.149 C 
ATOM     55  O   UNL     1       4.996  -4.896  24.820  0.00  0.00    -0.343 OA
ATOM     56  C   UNL     1       5.608  -5.909  25.633  0.00  0.00    +0.282 C 
ATOM     57  C   UNL     1       4.547  -6.994  25.999  0.00  0.00    +0.201 C 
ATOM     58  C   UNL     1       3.898  -7.572  24.723  0.00  0.00    +0.179 C 
ATOM     59  C   UNL     1       3.255  -6.436  23.912  0.00  0.00    +0.174 C 
BRANCH  59  60
ATOM     60  O   UNL     1       2.655  -6.888  22.691  0.00  0.00    -0.387 OA
ATOM     61  H   UNL     1       3.352  -7.211  22.094  0.00  0.00    +0.210 HD
ENDBRANCH  59  60
BRANCH  58  62
ATOM     62  O   UNL     1       2.903  -8.551  25.058  0.00  0.00    -0.386 OA
ATOM     63  H   UNL     1       3.375  -9.254  25.550  0.00  0.00    +0.210 HD
ENDBRANCH  58  62
BRANCH  57  64
ATOM     64  O   UNL     1       3.479  -6.436  26.795  0.00  0.00    -0.384 OA
ATOM     65  H   UNL     1       3.330  -5.534  26.452  0.00  0.00    +0.210 HD
ENDBRANCH  57  64
ENDBRANCH  52  56
ENDBRANCH  51  52
ENDBRANCH   1  51
TORSDOF 20
ENDMDL
