MODEL 1
REMARK VINA RESULT:      -7.3      0.000      0.000
REMARK  Name = 
REMARK  24 active torsions:
REMARK  status: ('A' for Active; 'I' for Inactive)
REMARK    1  A    between atoms: C_3  and  O_55
REMARK    2  A    between atoms: C_4  and  O_54
REMARK    3  A    between atoms: C_6  and  C_7
REMARK    4  A    between atoms: C_8  and  O_20
REMARK    5  A    between atoms: C_12  and  O_19
REMARK    6  A    between atoms: C_14  and  O_18
REMARK    7  A    between atoms: O_20  and  C_21
REMARK    8  A    between atoms: C_22  and  O_53
REMARK    9  A    between atoms: C_23  and  O_52
REMARK   10  A    between atoms: C_24  and  O_51
REMARK   11  A    between atoms: C_25  and  C_27
REMARK   12  A    between atoms: C_27  and  O_28
REMARK   13  A    between atoms: O_28  and  C_29
REMARK   14  A    between atoms: C_30  and  O_50
REMARK   15  A    between atoms: C_31  and  O_49
REMARK   16  A    between atoms: C_32  and  O_48
REMARK   17  A    between atoms: C_33  and  C_35
REMARK   18  A    between atoms: C_35  and  O_36
REMARK   19  A    between atoms: O_36  and  C_37
REMARK   20  A    between atoms: C_38  and  O_47
REMARK   21  A    between atoms: C_39  and  O_46
REMARK   22  A    between atoms: C_40  and  O_45
REMARK   23  A    between atoms: C_41  and  C_43
REMARK   24  A    between atoms: C_43  and  O_44
REMARK                            x       y       z     vdW  Elec       q    Type
REMARK                         _______ _______ _______ _____ _____    ______ ____
ROOT
ATOM      1  C   UNL     1       6.532  -0.170  27.278  0.00  0.00    +0.340 C 
ATOM      2  O   UNL     1       5.496  -1.172  27.423  0.00  0.00    -0.331 OA
ATOM      3  C   UNL     1       4.139  -0.799  27.775  0.00  0.00    +0.179 C 
ATOM      4  C   UNL     1       3.873   0.644  28.281  0.00  0.00    +0.177 C 
ATOM      5  C   UNL     1       5.038   1.618  28.076  0.00  0.00    +0.180 C 
ATOM      6  C   UNL     1       6.343   0.878  28.378  0.00  0.00    +0.214 C 
ENDROOT
BRANCH   6   7
ATOM      7  O   UNL     1       7.457   1.743  28.563  0.00  0.00    -0.383 OA
ATOM      8  H   UNL     1       8.258   1.224  28.718  0.00  0.00    +0.210 HD
ENDBRANCH   6   7
BRANCH   5   9
ATOM      9  O   UNL     1       4.866   2.719  28.982  0.00  0.00    -0.386 OA
ATOM     10  H   UNL     1       4.364   2.392  29.751  0.00  0.00    +0.210 HD
ENDBRANCH   5   9
BRANCH   4  11
ATOM     11  O   UNL     1       3.524   0.656  29.684  0.00  0.00    -0.386 OA
ATOM     12  H   UNL     1       2.637   1.058  29.779  0.00  0.00    +0.210 HD
ENDBRANCH   4  11
BRANCH   3  13
ATOM     13  C   UNL     1       3.624  -1.850  28.808  0.00  0.00    +0.197 C 
BRANCH  13  14
ATOM     14  O   UNL     1       3.669  -3.188  28.282  0.00  0.00    -0.346 OA
BRANCH  14  15
ATOM     15  C   UNL     1       4.380  -4.099  29.149  0.00  0.00    +0.282 C 
ATOM     16  O   UNL     1       5.394  -4.811  28.403  0.00  0.00    -0.341 OA
ATOM     17  C   UNL     1       4.770  -5.571  27.359  0.00  0.00    +0.178 C 
ATOM     18  C   UNL     1       3.982  -6.718  28.005  0.00  0.00    +0.177 C 
ATOM     19  C   UNL     1       2.821  -6.071  28.770  0.00  0.00    +0.179 C 
ATOM     20  C   UNL     1       3.376  -5.097  29.822  0.00  0.00    +0.201 C 
BRANCH  20  21
ATOM     21  O   UNL     1       2.315  -4.402  30.485  0.00  0.00    -0.384 OA
ATOM     22  H   UNL     1       1.968  -3.744  29.855  0.00  0.00    +0.210 HD
ENDBRANCH  20  21
BRANCH  19  23
ATOM     23  O   UNL     1       1.987  -7.088  29.328  0.00  0.00    -0.386 OA
ATOM     24  H   UNL     1       2.549  -7.621  29.920  0.00  0.00    +0.210 HD
ENDBRANCH  19  23
BRANCH  18  25
ATOM     25  O   UNL     1       4.773  -7.502  28.908  0.00  0.00    -0.386 OA
ATOM     26  H   UNL     1       4.501  -8.447  28.785  0.00  0.00    +0.210 HD
ENDBRANCH  18  25
BRANCH  17  27
ATOM     27  C   UNL     1       5.735  -6.040  26.281  0.00  0.00    +0.197 C 
BRANCH  27  28
ATOM     28  O   UNL     1       5.935  -4.989  25.334  0.00  0.00    -0.346 OA
BRANCH  28  29
ATOM     29  C   UNL     1       5.017  -4.907  24.226  0.00  0.00    +0.282 C 
ATOM     30  O   UNL     1       5.438  -5.544  23.011  0.00  0.00    -0.341 OA
ATOM     31  C   UNL     1       6.618  -5.006  22.393  0.00  0.00    +0.178 C 
ATOM     32  C   UNL     1       6.562  -3.491  22.187  0.00  0.00    +0.177 C 
ATOM     33  C   UNL     1       6.132  -2.799  23.494  0.00  0.00    +0.179 C 
ATOM     34  C   UNL     1       4.796  -3.402  23.979  0.00  0.00    +0.201 C 
BRANCH  34  35
ATOM     35  O   UNL     1       4.337  -2.773  25.180  0.00  0.00    -0.384 OA
ATOM     36  H   UNL     1       3.366  -2.874  25.188  0.00  0.00    +0.210 HD
ENDBRANCH  34  35
BRANCH  33  37
ATOM     37  O   UNL     1       6.022  -1.383  23.287  0.00  0.00    -0.386 OA
ATOM     38  H   UNL     1       6.880  -1.094  22.917  0.00  0.00    +0.210 HD
ENDBRANCH  33  37
BRANCH  32  39
ATOM     39  O   UNL     1       5.653  -3.136  21.138  0.00  0.00    -0.386 OA
ATOM     40  H   UNL     1       6.052  -3.382  20.284  0.00  0.00    +0.210 HD
ENDBRANCH  32  39
BRANCH  31  41
ATOM     41  C   UNL     1       6.925  -5.812  21.119  0.00  0.00    +0.190 C 
BRANCH  41  42
ATOM     42  O   UNL     1       5.924  -5.636  20.126  0.00  0.00    -0.392 OA
ATOM     43  H   UNL     1       5.250  -6.330  20.226  0.00  0.00    +0.210 HD
ENDBRANCH  41  42
ENDBRANCH  31  41
ENDBRANCH  28  29
ENDBRANCH  27  28
ENDBRANCH  17  27
ENDBRANCH  14  15
ENDBRANCH  13  14
ENDBRANCH   3  13
BRANCH   1  44
ATOM     44  O   UNL     1       6.574   0.363  25.928  0.00  0.00    -0.453 OA
BRANCH  44  55
ATOM     45  C   UNL     1       8.808   0.331  24.869  0.00  0.00    +0.181 A 
ATOM     46  O   UNL     1       9.816   0.993  24.164  0.00  0.00    -0.451 OA
ATOM     47  C   UNL     1       9.855   2.356  24.083  0.00  0.00    +0.147 A 
ATOM     48  C   UNL     1       8.857   3.151  24.612  0.00  0.00    +0.109 A 
ATOM     49  C   UNL     1       8.992   4.548  24.517  0.00  0.00    +0.135 A 
ATOM     50  C   UNL     1      10.106   5.130  23.896  0.00  0.00    +0.091 A 
ATOM     51  C   UNL     1      11.084   4.308  23.353  0.00  0.00    +0.124 A 
ATOM     52  C   UNL     1       7.705   2.471  25.246  0.00  0.00    +0.238 A 
ATOM     53  O   UNL     1       6.775   3.153  25.669  0.00  0.00    -0.283 OA
ATOM     54  C   UNL     1      10.965   2.925  23.440  0.00  0.00    +0.092 A 
ATOM     55  C   UNL     1       7.732   0.964  25.410  0.00  0.00    +0.214 A 
BRANCH  45  57
ATOM     56  C   UNL     1       9.867  -1.838  24.012  0.00  0.00    +0.015 A 
ATOM     57  C   UNL     1       9.178  -1.118  24.993  0.00  0.00    +0.025 A 
ATOM     58  C   UNL     1       8.684  -1.857  26.092  0.00  0.00    +0.060 A 
ATOM     59  C   UNL     1       8.704  -3.244  26.084  0.00  0.00    +0.159 A 
ATOM     60  C   UNL     1       9.189  -3.929  24.984  0.00  0.00    +0.158 A 
ATOM     61  C   UNL     1       9.816  -3.236  23.963  0.00  0.00    +0.050 A 
BRANCH  60  62
ATOM     62  O   UNL     1       9.017  -5.281  24.941  0.00  0.00    -0.503 OA
ATOM     63  H   UNL     1       8.172  -5.481  25.381  0.00  0.00    +0.292 HD
ENDBRANCH  60  62
BRANCH  59  64
ATOM     64  O   UNL     1       8.184  -3.926  27.145  0.00  0.00    -0.503 OA
ATOM     65  H   UNL     1       8.912  -3.966  27.794  0.00  0.00    +0.292 HD
ENDBRANCH  59  64
ENDBRANCH  45  57
BRANCH  51  66
ATOM     66  O   UNL     1      12.185   4.818  22.729  0.00  0.00    -0.507 OA
ATOM     67  H   UNL     1      12.539   4.161  22.105  0.00  0.00    +0.292 HD
ENDBRANCH  51  66
BRANCH  49  68
ATOM     68  O   UNL     1       8.070   5.422  25.022  0.00  0.00    -0.506 OA
ATOM     69  H   UNL     1       8.023   6.204  24.426  0.00  0.00    +0.292 HD
ENDBRANCH  49  68
ENDBRANCH  44  55
ENDBRANCH   1  44
TORSDOF 24
ENDMDL
MODEL 2
REMARK VINA RESULT:      -7.3      2.870      6.817
REMARK  Name = 
REMARK  24 active torsions:
REMARK  status: ('A' for Active; 'I' for Inactive)
REMARK    1  A    between atoms: C_3  and  O_55
REMARK    2  A    between atoms: C_4  and  O_54
REMARK    3  A    between atoms: C_6  and  C_7
REMARK    4  A    between atoms: C_8  and  O_20
REMARK    5  A    between atoms: C_12  and  O_19
REMARK    6  A    between atoms: C_14  and  O_18
REMARK    7  A    between atoms: O_20  and  C_21
REMARK    8  A    between atoms: C_22  and  O_53
REMARK    9  A    between atoms: C_23  and  O_52
REMARK   10  A    between atoms: C_24  and  O_51
REMARK   11  A    between atoms: C_25  and  C_27
REMARK   12  A    between atoms: C_27  and  O_28
REMARK   13  A    between atoms: O_28  and  C_29
REMARK   14  A    between atoms: C_30  and  O_50
REMARK   15  A    between atoms: C_31  and  O_49
REMARK   16  A    between atoms: C_32  and  O_48
REMARK   17  A    between atoms: C_33  and  C_35
REMARK   18  A    between atoms: C_35  and  O_36
REMARK   19  A    between atoms: O_36  and  C_37
REMARK   20  A    between atoms: C_38  and  O_47
REMARK   21  A    between atoms: C_39  and  O_46
REMARK   22  A    between atoms: C_40  and  O_45
REMARK   23  A    between atoms: C_41  and  C_43
REMARK   24  A    between atoms: C_43  and  O_44
REMARK                            x       y       z     vdW  Elec       q    Type
REMARK                         _______ _______ _______ _____ _____    ______ ____
ROOT
ATOM      1  C   UNL     1       7.191   3.225  27.228  0.00  0.00    +0.340 C 
ATOM      2  O   UNL     1       6.876   2.451  26.044  0.00  0.00    -0.331 OA
ATOM      3  C   UNL     1       5.614   1.748  25.924  0.00  0.00    +0.179 C 
ATOM      4  C   UNL     1       4.729   1.589  27.190  0.00  0.00    +0.177 C 
ATOM      5  C   UNL     1       5.154   2.455  28.380  0.00  0.00    +0.180 C 
ATOM      6  C   UNL     1       6.683   2.457  28.451  0.00  0.00    +0.214 C 
ENDROOT
BRANCH   6   7
ATOM      7  O   UNL     1       7.193   2.927  29.694  0.00  0.00    -0.383 OA
ATOM      8  H   UNL     1       7.014   3.873  29.789  0.00  0.00    +0.210 HD
ENDBRANCH   6   7
BRANCH   5   9
ATOM      9  O   UNL     1       4.598   1.881  29.573  0.00  0.00    -0.386 OA
ATOM     10  H   UNL     1       5.340   1.618  30.147  0.00  0.00    +0.210 HD
ENDBRANCH   5   9
BRANCH   4  11
ATOM     11  O   UNL     1       4.683   0.214  27.633  0.00  0.00    -0.386 OA
ATOM     12  H   UNL     1       3.746  -0.045  27.743  0.00  0.00    +0.210 HD
ENDBRANCH   4  11
BRANCH   3  13
ATOM     13  C   UNL     1       5.919   0.357  25.286  0.00  0.00    +0.197 C 
BRANCH  13  14
ATOM     14  O   UNL     1       7.186   0.343  24.607  0.00  0.00    -0.346 OA
BRANCH  14  15
ATOM     15  C   UNL     1       7.076  -0.109  23.239  0.00  0.00    +0.282 C 
ATOM     16  O   UNL     1       7.757  -1.373  23.072  0.00  0.00    -0.341 OA
ATOM     17  C   UNL     1       9.148  -1.208  23.385  0.00  0.00    +0.178 C 
ATOM     18  C   UNL     1       9.789  -0.350  22.287  0.00  0.00    +0.177 C 
ATOM     19  C   UNL     1       9.185   1.053  22.421  0.00  0.00    +0.179 C 
ATOM     20  C   UNL     1       7.657   0.973  22.265  0.00  0.00    +0.201 C 
BRANCH  20  21
ATOM     21  O   UNL     1       7.054   2.253  22.486  0.00  0.00    -0.384 OA
ATOM     22  H   UNL     1       6.448   2.414  21.740  0.00  0.00    +0.210 HD
ENDBRANCH  20  21
BRANCH  19  23
ATOM     23  O   UNL     1       9.802   1.935  21.483  0.00  0.00    -0.386 OA
ATOM     24  H   UNL     1       9.139   2.612  21.252  0.00  0.00    +0.210 HD
ENDBRANCH  19  23
BRANCH  18  25
ATOM     25  O   UNL     1       9.541  -0.853  20.966  0.00  0.00    -0.386 OA
ATOM     26  H   UNL     1       9.451  -0.067  20.369  0.00  0.00    +0.210 HD
ENDBRANCH  18  25
BRANCH  17  27
ATOM     27  C   UNL     1       9.882  -2.518  23.626  0.00  0.00    +0.197 C 
BRANCH  27  28
ATOM     28  O   UNL     1       9.148  -3.305  24.567  0.00  0.00    -0.346 OA
BRANCH  28  29
ATOM     29  C   UNL     1       8.609  -4.561  24.109  0.00  0.00    +0.282 C 
ATOM     30  O   UNL     1       7.248  -4.535  23.659  0.00  0.00    -0.341 OA
ATOM     31  C   UNL     1       6.263  -4.191  24.648  0.00  0.00    +0.178 C 
ATOM     32  C   UNL     1       6.367  -5.024  25.927  0.00  0.00    +0.177 C 
ATOM     33  C   UNL     1       7.823  -5.038  26.428  0.00  0.00    +0.179 C 
ATOM     34  C   UNL     1       8.750  -5.532  25.297  0.00  0.00    +0.201 C 
BRANCH  34  35
ATOM     35  O   UNL     1      10.117  -5.589  25.721  0.00  0.00    -0.384 OA
ATOM     36  H   UNL     1      10.204  -6.403  26.255  0.00  0.00    +0.210 HD
ENDBRANCH  34  35
BRANCH  33  37
ATOM     37  O   UNL     1       7.934  -5.866  27.595  0.00  0.00    -0.386 OA
ATOM     38  H   UNL     1       8.735  -6.413  27.466  0.00  0.00    +0.210 HD
ENDBRANCH  33  37
BRANCH  32  39
ATOM     39  O   UNL     1       5.922  -6.370  25.717  0.00  0.00    -0.386 OA
ATOM     40  H   UNL     1       6.665  -6.975  25.892  0.00  0.00    +0.210 HD
ENDBRANCH  32  39
BRANCH  31  41
ATOM     41  C   UNL     1       4.872  -4.202  23.990  0.00  0.00    +0.190 C 
BRANCH  41  42
ATOM     42  O   UNL     1       4.918  -3.752  22.643  0.00  0.00    -0.392 OA
ATOM     43  H   UNL     1       5.592  -3.055  22.563  0.00  0.00    +0.210 HD
ENDBRANCH  41  42
ENDBRANCH  31  41
ENDBRANCH  28  29
ENDBRANCH  27  28
ENDBRANCH  17  27
ENDBRANCH  14  15
ENDBRANCH  13  14
ENDBRANCH   3  13
BRANCH   1  44
ATOM     44  O   UNL     1       6.705   4.589  27.119  0.00  0.00    -0.453 OA
BRANCH  44  55
ATOM     45  C   UNL     1       7.172   5.394  24.828  0.00  0.00    +0.181 A 
ATOM     46  O   UNL     1       6.711   5.728  23.552  0.00  0.00    -0.451 OA
ATOM     47  C   UNL     1       5.387   5.957  23.308  0.00  0.00    +0.147 A 
ATOM     48  C   UNL     1       4.420   5.784  24.279  0.00  0.00    +0.109 A 
ATOM     49  C   UNL     1       3.084   6.076  23.954  0.00  0.00    +0.135 A 
ATOM     50  C   UNL     1       2.728   6.526  22.675  0.00  0.00    +0.091 A 
ATOM     51  C   UNL     1       3.716   6.671  21.710  0.00  0.00    +0.124 A 
ATOM     52  C   UNL     1       4.863   5.298  25.605  0.00  0.00    +0.238 A 
ATOM     53  O   UNL     1       4.017   5.076  26.467  0.00  0.00    -0.283 OA
ATOM     54  C   UNL     1       5.043   6.387  22.017  0.00  0.00    +0.092 A 
ATOM     55  C   UNL     1       6.346   5.145  25.882  0.00  0.00    +0.214 A 
BRANCH  45  57
ATOM     56  C   UNL     1       9.406   6.463  25.477  0.00  0.00    +0.015 A 
ATOM     57  C   UNL     1       8.670   5.463  24.834  0.00  0.00    +0.025 A 
ATOM     58  C   UNL     1       9.398   4.562  24.024  0.00  0.00    +0.060 A 
ATOM     59  C   UNL     1      10.733   4.793  23.725  0.00  0.00    +0.159 A 
ATOM     60  C   UNL     1      11.370   5.926  24.200  0.00  0.00    +0.158 A 
ATOM     61  C   UNL     1      10.729   6.743  25.115  0.00  0.00    +0.050 A 
BRANCH  60  62
ATOM     62  O   UNL     1      12.619   6.206  23.730  0.00  0.00    -0.503 OA
ATOM     63  H   UNL     1      12.760   5.661  22.936  0.00  0.00    +0.292 HD
ENDBRANCH  60  62
BRANCH  59  64
ATOM     64  O   UNL     1      11.395   3.923  22.909  0.00  0.00    -0.503 OA
ATOM     65  H   UNL     1      12.340   4.056  23.119  0.00  0.00    +0.292 HD
ENDBRANCH  59  64
ENDBRANCH  45  57
BRANCH  51  66
ATOM     66  O   UNL     1       3.428   7.097  20.446  0.00  0.00    -0.507 OA
ATOM     67  H   UNL     1       2.761   6.510  20.048  0.00  0.00    +0.292 HD
ENDBRANCH  51  66
BRANCH  49  68
ATOM     68  O   UNL     1       2.055   5.954  24.847  0.00  0.00    -0.506 OA
ATOM     69  H   UNL     1       1.499   6.764  24.794  0.00  0.00    +0.292 HD
ENDBRANCH  49  68
ENDBRANCH  44  55
ENDBRANCH   1  44
TORSDOF 24
ENDMDL
MODEL 3
REMARK VINA RESULT:      -6.9      2.134      3.706
REMARK  Name = 
REMARK  24 active torsions:
REMARK  status: ('A' for Active; 'I' for Inactive)
REMARK    1  A    between atoms: C_3  and  O_55
REMARK    2  A    between atoms: C_4  and  O_54
REMARK    3  A    between atoms: C_6  and  C_7
REMARK    4  A    between atoms: C_8  and  O_20
REMARK    5  A    between atoms: C_12  and  O_19
REMARK    6  A    between atoms: C_14  and  O_18
REMARK    7  A    between atoms: O_20  and  C_21
REMARK    8  A    between atoms: C_22  and  O_53
REMARK    9  A    between atoms: C_23  and  O_52
REMARK   10  A    between atoms: C_24  and  O_51
REMARK   11  A    between atoms: C_25  and  C_27
REMARK   12  A    between atoms: C_27  and  O_28
REMARK   13  A    between atoms: O_28  and  C_29
REMARK   14  A    between atoms: C_30  and  O_50
REMARK   15  A    between atoms: C_31  and  O_49
REMARK   16  A    between atoms: C_32  and  O_48
REMARK   17  A    between atoms: C_33  and  C_35
REMARK   18  A    between atoms: C_35  and  O_36
REMARK   19  A    between atoms: O_36  and  C_37
REMARK   20  A    between atoms: C_38  and  O_47
REMARK   21  A    between atoms: C_39  and  O_46
REMARK   22  A    between atoms: C_40  and  O_45
REMARK   23  A    between atoms: C_41  and  C_43
REMARK   24  A    between atoms: C_43  and  O_44
REMARK                            x       y       z     vdW  Elec       q    Type
REMARK                         _______ _______ _______ _____ _____    ______ ____
ROOT
ATOM      1  C   UNL     1       6.196   2.460  25.534  0.00  0.00    +0.340 C 
ATOM      2  O   UNL     1       4.830   2.023  25.323  0.00  0.00    -0.331 OA
ATOM      3  C   UNL     1       3.709   2.843  25.742  0.00  0.00    +0.179 C 
ATOM      4  C   UNL     1       3.982   4.052  26.677  0.00  0.00    +0.177 C 
ATOM      5  C   UNL     1       5.461   4.426  26.824  0.00  0.00    +0.180 C 
ATOM      6  C   UNL     1       6.277   3.134  26.906  0.00  0.00    +0.214 C 
ENDROOT
BRANCH   6   7
ATOM      7  O   UNL     1       7.602   3.329  27.387  0.00  0.00    -0.383 OA
ATOM      8  H   UNL     1       7.672   4.190  27.824  0.00  0.00    +0.210 HD
ENDBRANCH   6   7
BRANCH   5   9
ATOM      9  O   UNL     1       5.611   5.191  28.030  0.00  0.00    -0.386 OA
ATOM     10  H   UNL     1       6.283   5.876  27.862  0.00  0.00    +0.210 HD
ENDBRANCH   5   9
BRANCH   4  11
ATOM     11  O   UNL     1       3.445   3.829  28.000  0.00  0.00    -0.386 OA
ATOM     12  H   UNL     1       2.479   3.692  27.923  0.00  0.00    +0.210 HD
ENDBRANCH   4  11
BRANCH   3  13
ATOM     13  C   UNL     1       2.647   1.889  26.370  0.00  0.00    +0.197 C 
BRANCH  13  14
ATOM     14  O   UNL     1       3.122   0.533  26.450  0.00  0.00    -0.346 OA
BRANCH  14  15
ATOM     15  C   UNL     1       3.422   0.131  27.805  0.00  0.00    +0.282 C 
ATOM     16  O   UNL     1       4.773  -0.379  27.888  0.00  0.00    -0.341 OA
ATOM     17  C   UNL     1       4.902  -1.525  27.035  0.00  0.00    +0.178 C 
ATOM     18  C   UNL     1       4.087  -2.672  27.645  0.00  0.00    +0.177 C 
ATOM     19  C   UNL     1       2.612  -2.264  27.539  0.00  0.00    +0.179 C 
ATOM     20  C   UNL     1       2.388  -0.942  28.290  0.00  0.00    +0.201 C 
BRANCH  20  21
ATOM     21  O   UNL     1       1.043  -0.483  28.125  0.00  0.00    -0.384 OA
ATOM     22  H   UNL     1       0.879  -0.418  27.166  0.00  0.00    +0.210 HD
ENDBRANCH  20  21
BRANCH  19  23
ATOM     23  O   UNL     1       1.784  -3.328  28.010  0.00  0.00    -0.386 OA
ATOM     24  H   UNL     1       1.688  -3.959  27.272  0.00  0.00    +0.210 HD
ENDBRANCH  19  23
BRANCH  18  25
ATOM     25  O   UNL     1       4.416  -2.924  29.018  0.00  0.00    -0.386 OA
ATOM     26  H   UNL     1       5.244  -3.468  29.022  0.00  0.00    +0.210 HD
ENDBRANCH  18  25
BRANCH  17  27
ATOM     27  C   UNL     1       6.342  -1.907  26.734  0.00  0.00    +0.197 C 
BRANCH  27  28
ATOM     28  O   UNL     1       6.530  -3.298  27.008  0.00  0.00    -0.346 OA
BRANCH  28  29
ATOM     29  C   UNL     1       7.050  -4.122  25.947  0.00  0.00    +0.282 C 
ATOM     30  O   UNL     1       6.420  -3.974  24.668  0.00  0.00    -0.341 OA
ATOM     31  C   UNL     1       5.031  -4.338  24.603  0.00  0.00    +0.178 C 
ATOM     32  C   UNL     1       4.739  -5.731  25.163  0.00  0.00    +0.177 C 
ATOM     33  C   UNL     1       5.395  -5.890  26.547  0.00  0.00    +0.179 C 
ATOM     34  C   UNL     1       6.903  -5.576  26.439  0.00  0.00    +0.201 C 
BRANCH  34  35
ATOM     35  O   UNL     1       7.567  -5.734  27.698  0.00  0.00    -0.384 OA
ATOM     36  H   UNL     1       6.951  -6.230  28.271  0.00  0.00    +0.210 HD
ENDBRANCH  34  35
BRANCH  33  37
ATOM     37  O   UNL     1       5.172  -7.216  27.048  0.00  0.00    -0.386 OA
ATOM     38  H   UNL     1       4.527  -7.632  26.441  0.00  0.00    +0.210 HD
ENDBRANCH  33  37
BRANCH  32  39
ATOM     39  O   UNL     1       5.216  -6.761  24.288  0.00  0.00    -0.386 OA
ATOM     40  H   UNL     1       5.376  -7.566  24.813  0.00  0.00    +0.210 HD
ENDBRANCH  32  39
BRANCH  31  41
ATOM     41  C   UNL     1       4.521  -4.106  23.170  0.00  0.00    +0.190 C 
BRANCH  41  42
ATOM     42  O   UNL     1       3.427  -4.954  22.853  0.00  0.00    -0.392 OA
ATOM     43  H   UNL     1       2.864  -5.056  23.640  0.00  0.00    +0.210 HD
ENDBRANCH  41  42
ENDBRANCH  31  41
ENDBRANCH  28  29
ENDBRANCH  27  28
ENDBRANCH  17  27
ENDBRANCH  14  15
ENDBRANCH  13  14
ENDBRANCH   3  13
BRANCH   1  44
ATOM     44  O   UNL     1       6.673   3.270  24.427  0.00  0.00    -0.453 OA
BRANCH  44  55
ATOM     45  C   UNL     1       8.791   2.580  23.356  0.00  0.00    +0.181 A 
ATOM     46  O   UNL     1      10.085   2.894  22.932  0.00  0.00    -0.451 OA
ATOM     47  C   UNL     1      10.740   3.999  23.397  0.00  0.00    +0.147 A 
ATOM     48  C   UNL     1      10.133   4.914  24.235  0.00  0.00    +0.109 A 
ATOM     49  C   UNL     1      10.891   6.005  24.695  0.00  0.00    +0.135 A 
ATOM     50  C   UNL     1      12.229   6.175  24.313  0.00  0.00    +0.091 A 
ATOM     51  C   UNL     1      12.809   5.254  23.452  0.00  0.00    +0.124 A 
ATOM     52  C   UNL     1       8.717   4.679  24.592  0.00  0.00    +0.238 A 
ATOM     53  O   UNL     1       8.136   5.509  25.286  0.00  0.00    -0.283 OA
ATOM     54  C   UNL     1      12.072   4.168  22.989  0.00  0.00    +0.092 A 
ATOM     55  C   UNL     1       8.042   3.397  24.145  0.00  0.00    +0.214 A 
BRANCH  45  57
ATOM     56  C   UNL     1       7.221   0.572  23.106  0.00  0.00    +0.015 A 
ATOM     57  C   UNL     1       8.452   1.197  22.882  0.00  0.00    +0.025 A 
ATOM     58  C   UNL     1       9.469   0.404  22.304  0.00  0.00    +0.060 A 
ATOM     59  C   UNL     1       9.311  -0.967  22.166  0.00  0.00    +0.159 A 
ATOM     60  C   UNL     1       8.157  -1.586  22.614  0.00  0.00    +0.158 A 
ATOM     61  C   UNL     1       7.087  -0.819  23.043  0.00  0.00    +0.050 A 
BRANCH  60  62
ATOM     62  O   UNL     1       8.123  -2.949  22.629  0.00  0.00    -0.503 OA
ATOM     63  H   UNL     1       8.370  -3.256  21.739  0.00  0.00    +0.292 HD
ENDBRANCH  60  62
BRANCH  59  64
ATOM     64  O   UNL     1      10.328  -1.707  21.638  0.00  0.00    -0.503 OA
ATOM     65  H   UNL     1      10.315  -2.543  22.144  0.00  0.00    +0.292 HD
ENDBRANCH  59  64
ENDBRANCH  45  57
BRANCH  51  66
ATOM     66  O   UNL     1      14.104   5.373  23.038  0.00  0.00    -0.507 OA
ATOM     67  H   UNL     1      14.158   6.031  22.324  0.00  0.00    +0.292 HD
ENDBRANCH  51  66
BRANCH  49  68
ATOM     68  O   UNL     1      10.390   6.956  25.541  0.00  0.00    -0.506 OA
ATOM     69  H   UNL     1      10.448   6.615  26.463  0.00  0.00    +0.292 HD
ENDBRANCH  49  68
ENDBRANCH  44  55
ENDBRANCH   1  44
TORSDOF 24
ENDMDL
MODEL 4
REMARK VINA RESULT:      -6.8      2.051      7.079
REMARK  Name = 
REMARK  24 active torsions:
REMARK  status: ('A' for Active; 'I' for Inactive)
REMARK    1  A    between atoms: C_3  and  O_55
REMARK    2  A    between atoms: C_4  and  O_54
REMARK    3  A    between atoms: C_6  and  C_7
REMARK    4  A    between atoms: C_8  and  O_20
REMARK    5  A    between atoms: C_12  and  O_19
REMARK    6  A    between atoms: C_14  and  O_18
REMARK    7  A    between atoms: O_20  and  C_21
REMARK    8  A    between atoms: C_22  and  O_53
REMARK    9  A    between atoms: C_23  and  O_52
REMARK   10  A    between atoms: C_24  and  O_51
REMARK   11  A    between atoms: C_25  and  C_27
REMARK   12  A    between atoms: C_27  and  O_28
REMARK   13  A    between atoms: O_28  and  C_29
REMARK   14  A    between atoms: C_30  and  O_50
REMARK   15  A    between atoms: C_31  and  O_49
REMARK   16  A    between atoms: C_32  and  O_48
REMARK   17  A    between atoms: C_33  and  C_35
REMARK   18  A    between atoms: C_35  and  O_36
REMARK   19  A    between atoms: O_36  and  C_37
REMARK   20  A    between atoms: C_38  and  O_47
REMARK   21  A    between atoms: C_39  and  O_46
REMARK   22  A    between atoms: C_40  and  O_45
REMARK   23  A    between atoms: C_41  and  C_43
REMARK   24  A    between atoms: C_43  and  O_44
REMARK                            x       y       z     vdW  Elec       q    Type
REMARK                         _______ _______ _______ _____ _____    ______ ____
ROOT
ATOM      1  C   UNL     1       7.015   0.471  23.864  0.00  0.00    +0.340 C 
ATOM      2  O   UNL     1       7.575  -0.865  23.910  0.00  0.00    -0.331 OA
ATOM      3  C   UNL     1       8.864  -1.157  23.314  0.00  0.00    +0.179 C 
ATOM      4  C   UNL     1       9.503  -0.100  22.374  0.00  0.00    +0.177 C 
ATOM      5  C   UNL     1       8.831   1.276  22.407  0.00  0.00    +0.180 C 
ATOM      6  C   UNL     1       7.317   1.069  22.488  0.00  0.00    +0.214 C 
ENDROOT
BRANCH   6   7
ATOM      7  O   UNL     1       6.567   2.239  22.179  0.00  0.00    -0.383 OA
ATOM      8  H   UNL     1       5.683   1.994  21.872  0.00  0.00    +0.210 HD
ENDBRANCH   6   7
BRANCH   5   9
ATOM      9  O   UNL     1       9.178   1.974  21.201  0.00  0.00    -0.386 OA
ATOM     10  H   UNL     1      10.137   2.144  21.224  0.00  0.00    +0.210 HD
ENDBRANCH   5   9
BRANCH   4  11
ATOM     11  O   UNL     1       9.520  -0.554  21.001  0.00  0.00    -0.386 OA
ATOM     12  H   UNL     1      10.260  -0.113  20.538  0.00  0.00    +0.210 HD
ENDBRANCH   4  11
BRANCH   3  13
ATOM     13  C   UNL     1       8.737  -2.534  22.590  0.00  0.00    +0.197 C 
BRANCH  13  14
ATOM     14  O   UNL     1       7.696  -3.347  23.160  0.00  0.00    -0.346 OA
BRANCH  14  15
ATOM     15  C   UNL     1       6.520  -3.405  22.322  0.00  0.00    +0.282 C 
ATOM     16  O   UNL     1       5.391  -2.812  23.004  0.00  0.00    -0.341 OA
ATOM     17  C   UNL     1       5.126  -3.541  24.210  0.00  0.00    +0.178 C 
ATOM     18  C   UNL     1       4.580  -4.923  23.826  0.00  0.00    +0.177 C 
ATOM     19  C   UNL     1       5.734  -5.676  23.154  0.00  0.00    +0.179 C 
ATOM     20  C   UNL     1       6.215  -4.890  21.924  0.00  0.00    +0.201 C 
BRANCH  20  21
ATOM     21  O   UNL     1       7.358  -5.517  21.332  0.00  0.00    -0.384 OA
ATOM     22  H   UNL     1       7.627  -4.964  20.575  0.00  0.00    +0.210 HD
ENDBRANCH  20  21
BRANCH  19  23
ATOM     23  O   UNL     1       5.325  -7.009  22.847  0.00  0.00    -0.386 OA
ATOM     24  H   UNL     1       5.209  -7.054  21.880  0.00  0.00    +0.210 HD
ENDBRANCH  19  23
BRANCH  18  25
ATOM     25  O   UNL     1       3.465  -4.854  22.927  0.00  0.00    -0.386 OA
ATOM     26  H   UNL     1       3.555  -4.009  22.418  0.00  0.00    +0.210 HD
ENDBRANCH  18  25
BRANCH  17  27
ATOM     27  C   UNL     1       4.237  -2.798  25.194  0.00  0.00    +0.197 C 
BRANCH  27  28
ATOM     28  O   UNL     1       3.817  -3.695  26.225  0.00  0.00    -0.346 OA
BRANCH  28  29
ATOM     29  C   UNL     1       4.539  -3.662  27.472  0.00  0.00    +0.282 C 
ATOM     30  O   UNL     1       5.935  -3.347  27.384  0.00  0.00    -0.341 OA
ATOM     31  C   UNL     1       6.748  -4.281  26.655  0.00  0.00    +0.178 C 
ATOM     32  C   UNL     1       6.575  -5.729  27.118  0.00  0.00    +0.177 C 
ATOM     33  C   UNL     1       5.078  -6.081  27.194  0.00  0.00    +0.179 C 
ATOM     34  C   UNL     1       4.355  -5.059  28.097  0.00  0.00    +0.201 C 
BRANCH  34  35
ATOM     35  O   UNL     1       2.960  -5.357  28.222  0.00  0.00    -0.384 OA
ATOM     36  H   UNL     1       2.515  -4.508  28.408  0.00  0.00    +0.210 HD
ENDBRANCH  34  35
BRANCH  33  37
ATOM     37  O   UNL     1       4.911  -7.420  27.684  0.00  0.00    -0.386 OA
ATOM     38  H   UNL     1       4.728  -7.976  26.900  0.00  0.00    +0.210 HD
ENDBRANCH  33  37
BRANCH  32  39
ATOM     39  O   UNL     1       7.182  -5.950  28.397  0.00  0.00    -0.386 OA
ATOM     40  H   UNL     1       7.008  -6.868  28.670  0.00  0.00    +0.210 HD
ENDBRANCH  32  39
BRANCH  31  41
ATOM     41  C   UNL     1       8.203  -3.781  26.654  0.00  0.00    +0.190 C 
BRANCH  41  42
ATOM     42  O   UNL     1       8.293  -2.412  26.283  0.00  0.00    -0.392 OA
ATOM     43  H   UNL     1       9.150  -2.255  25.851  0.00  0.00    +0.210 HD
ENDBRANCH  41  42
ENDBRANCH  31  41
ENDBRANCH  28  29
ENDBRANCH  27  28
ENDBRANCH  17  27
ENDBRANCH  14  15
ENDBRANCH  13  14
ENDBRANCH   3  13
BRANCH   1  44
ATOM     44  O   UNL     1       7.459   1.274  24.990  0.00  0.00    -0.453 OA
BRANCH  44  55
ATOM     45  C   UNL     1       5.978   3.121  25.699  0.00  0.00    +0.181 A 
ATOM     46  O   UNL     1       4.907   3.577  26.473  0.00  0.00    -0.451 OA
ATOM     47  C   UNL     1       4.439   2.861  27.538  0.00  0.00    +0.147 A 
ATOM     48  C   UNL     1       4.933   1.611  27.856  0.00  0.00    +0.109 A 
ATOM     49  C   UNL     1       4.421   0.958  28.991  0.00  0.00    +0.135 A 
ATOM     50  C   UNL     1       3.427   1.548  29.784  0.00  0.00    +0.091 A 
ATOM     51  C   UNL     1       2.931   2.796  29.430  0.00  0.00    +0.124 A 
ATOM     52  C   UNL     1       5.975   1.043  26.973  0.00  0.00    +0.238 A 
ATOM     53  O   UNL     1       6.387  -0.092  27.197  0.00  0.00    -0.283 OA
ATOM     54  C   UNL     1       3.429   3.455  28.310  0.00  0.00    +0.092 A 
ATOM     55  C   UNL     1       6.547   1.895  25.856  0.00  0.00    +0.214 A 
BRANCH  45  57
ATOM     56  C   UNL     1       5.543   5.036  24.056  0.00  0.00    +0.015 A 
ATOM     57  C   UNL     1       6.418   4.227  24.787  0.00  0.00    +0.025 A 
ATOM     58  C   UNL     1       7.798   4.384  24.520  0.00  0.00    +0.060 A 
ATOM     59  C   UNL     1       8.233   5.146  23.446  0.00  0.00    +0.159 A 
ATOM     60  C   UNL     1       7.318   5.750  22.601  0.00  0.00    +0.158 A 
ATOM     61  C   UNL     1       5.972   5.739  22.924  0.00  0.00    +0.050 A 
BRANCH  60  62
ATOM     62  O   UNL     1       7.783   6.328  21.457  0.00  0.00    -0.503 OA
ATOM     63  H   UNL     1       8.004   5.611  20.837  0.00  0.00    +0.292 HD
ENDBRANCH  60  62
BRANCH  59  64
ATOM     64  O   UNL     1       9.570   5.244  23.195  0.00  0.00    -0.503 OA
ATOM     65  H   UNL     1       9.908   5.849  23.884  0.00  0.00    +0.292 HD
ENDBRANCH  59  64
ENDBRANCH  45  57
BRANCH  51  66
ATOM     66  O   UNL     1       1.958   3.415  30.158  0.00  0.00    -0.507 OA
ATOM     67  H   UNL     1       1.531   2.769  30.748  0.00  0.00    +0.292 HD
ENDBRANCH  51  66
BRANCH  49  68
ATOM     68  O   UNL     1       4.853  -0.273  29.401  0.00  0.00    -0.506 OA
ATOM     69  H   UNL     1       5.606  -0.147  30.024  0.00  0.00    +0.292 HD
ENDBRANCH  49  68
ENDBRANCH  44  55
ENDBRANCH   1  44
TORSDOF 24
ENDMDL
MODEL 5
REMARK VINA RESULT:      -6.7      2.294      7.013
REMARK  Name = 
REMARK  24 active torsions:
REMARK  status: ('A' for Active; 'I' for Inactive)
REMARK    1  A    between atoms: C_3  and  O_55
REMARK    2  A    between atoms: C_4  and  O_54
REMARK    3  A    between atoms: C_6  and  C_7
REMARK    4  A    between atoms: C_8  and  O_20
REMARK    5  A    between atoms: C_12  and  O_19
REMARK    6  A    between atoms: C_14  and  O_18
REMARK    7  A    between atoms: O_20  and  C_21
REMARK    8  A    between atoms: C_22  and  O_53
REMARK    9  A    between atoms: C_23  and  O_52
REMARK   10  A    between atoms: C_24  and  O_51
REMARK   11  A    between atoms: C_25  and  C_27
REMARK   12  A    between atoms: C_27  and  O_28
REMARK   13  A    between atoms: O_28  and  C_29
REMARK   14  A    between atoms: C_30  and  O_50
REMARK   15  A    between atoms: C_31  and  O_49
REMARK   16  A    between atoms: C_32  and  O_48
REMARK   17  A    between atoms: C_33  and  C_35
REMARK   18  A    between atoms: C_35  and  O_36
REMARK   19  A    between atoms: O_36  and  C_37
REMARK   20  A    between atoms: C_38  and  O_47
REMARK   21  A    between atoms: C_39  and  O_46
REMARK   22  A    between atoms: C_40  and  O_45
REMARK   23  A    between atoms: C_41  and  C_43
REMARK   24  A    between atoms: C_43  and  O_44
REMARK                            x       y       z     vdW  Elec       q    Type
REMARK                         _______ _______ _______ _____ _____    ______ ____
ROOT
ATOM      1  C   UNL     1       7.537   0.590  24.389  0.00  0.00    +0.340 C 
ATOM      2  O   UNL     1       8.407  -0.546  24.619  0.00  0.00    -0.331 OA
ATOM      3  C   UNL     1       9.640  -0.706  23.871  0.00  0.00    +0.179 C 
ATOM      4  C   UNL     1       9.872   0.187  22.623  0.00  0.00    +0.177 C 
ATOM      5  C   UNL     1       8.894   1.357  22.482  0.00  0.00    +0.180 C 
ATOM      6  C   UNL     1       7.500   0.869  22.885  0.00  0.00    +0.214 C 
ENDROOT
BRANCH   6   7
ATOM      7  O   UNL     1       6.453   1.741  22.474  0.00  0.00    -0.383 OA
ATOM      8  H   UNL     1       5.608   1.438  22.836  0.00  0.00    +0.210 HD
ENDBRANCH   6   7
BRANCH   5   9
ATOM      9  O   UNL     1       8.898   1.783  21.110  0.00  0.00    -0.386 OA
ATOM     10  H   UNL     1       9.644   2.398  20.995  0.00  0.00    +0.210 HD
ENDBRANCH   5   9
BRANCH   4  11
ATOM     11  O   UNL     1       9.821  -0.586  21.402  0.00  0.00    -0.386 OA
ATOM     12  H   UNL     1       9.423  -1.457  21.603  0.00  0.00    +0.210 HD
ENDBRANCH   4  11
BRANCH   3  13
ATOM     13  C   UNL     1       9.761  -2.217  23.499  0.00  0.00    +0.197 C 
BRANCH  13  14
ATOM     14  O   UNL     1       9.404  -3.072  24.598  0.00  0.00    -0.346 OA
BRANCH  14  15
ATOM     15  C   UNL     1       8.818  -4.319  24.162  0.00  0.00    +0.282 C 
ATOM     16  O   UNL     1       7.441  -4.116  23.773  0.00  0.00    -0.341 OA
ATOM     17  C   UNL     1       6.695  -3.634  24.900  0.00  0.00    +0.178 C 
ATOM     18  C   UNL     1       6.577  -4.773  25.920  0.00  0.00    +0.177 C 
ATOM     19  C   UNL     1       7.990  -5.024  26.460  0.00  0.00    +0.179 C 
ATOM     20  C   UNL     1       8.927  -5.392  25.298  0.00  0.00    +0.201 C 
BRANCH  20  21
ATOM     21  O   UNL     1      10.276  -5.534  25.756  0.00  0.00    -0.384 OA
ATOM     22  H   UNL     1      10.376  -6.453  26.067  0.00  0.00    +0.210 HD
ENDBRANCH  20  21
BRANCH  19  23
ATOM     23  O   UNL     1       7.945  -6.017  27.485  0.00  0.00    -0.386 OA
ATOM     24  H   UNL     1       8.762  -6.543  27.405  0.00  0.00    +0.210 HD
ENDBRANCH  19  23
BRANCH  18  25
ATOM     25  O   UNL     1       6.060  -5.984  25.351  0.00  0.00    -0.386 OA
ATOM     26  H   UNL     1       5.700  -6.525  26.098  0.00  0.00    +0.210 HD
ENDBRANCH  18  25
BRANCH  17  27
ATOM     27  C   UNL     1       5.354  -3.019  24.531  0.00  0.00    +0.197 C 
BRANCH  27  28
ATOM     28  O   UNL     1       4.376  -4.054  24.407  0.00  0.00    -0.346 OA
BRANCH  28  29
ATOM     29  C   UNL     1       3.039  -3.767  24.861  0.00  0.00    +0.282 C 
ATOM     30  O   UNL     1       2.882  -3.568  26.272  0.00  0.00    -0.341 OA
ATOM     31  C   UNL     1       3.187  -4.697  27.106  0.00  0.00    +0.178 C 
ATOM     32  C   UNL     1       2.466  -5.979  26.684  0.00  0.00    +0.177 C 
ATOM     33  C   UNL     1       2.649  -6.211  25.173  0.00  0.00    +0.179 C 
ATOM     34  C   UNL     1       2.178  -4.960  24.401  0.00  0.00    +0.201 C 
BRANCH  34  35
ATOM     35  O   UNL     1       2.303  -5.134  22.985  0.00  0.00    -0.384 OA
ATOM     36  H   UNL     1       1.819  -5.954  22.767  0.00  0.00    +0.210 HD
ENDBRANCH  34  35
BRANCH  33  37
ATOM     37  O   UNL     1       1.925  -7.380  24.764  0.00  0.00    -0.386 OA
ATOM     38  H   UNL     1       2.190  -8.094  25.378  0.00  0.00    +0.210 HD
ENDBRANCH  33  37
BRANCH  32  39
ATOM     39  O   UNL     1       1.068  -5.923  26.992  0.00  0.00    -0.386 OA
ATOM     40  H   UNL     1       0.845  -5.014  27.263  0.00  0.00    +0.210 HD
ENDBRANCH  32  39
BRANCH  31  41
ATOM     41  C   UNL     1       2.976  -4.301  28.578  0.00  0.00    +0.190 C 
BRANCH  41  42
ATOM     42  O   UNL     1       1.678  -3.768  28.802  0.00  0.00    -0.392 OA
ATOM     43  H   UNL     1       1.543  -3.650  29.759  0.00  0.00    +0.210 HD
ENDBRANCH  41  42
ENDBRANCH  31  41
ENDBRANCH  28  29
ENDBRANCH  27  28
ENDBRANCH  17  27
ENDBRANCH  14  15
ENDBRANCH  13  14
ENDBRANCH   3  13
BRANCH   1  44
ATOM     44  O   UNL     1       7.913   1.725  25.212  0.00  0.00    -0.453 OA
BRANCH  44  55
ATOM     45  C   UNL     1       6.278   3.484  25.801  0.00  0.00    +0.181 A 
ATOM     46  O   UNL     1       5.213   3.922  26.593  0.00  0.00    -0.451 OA
ATOM     47  C   UNL     1       4.897   3.306  27.770  0.00  0.00    +0.147 A 
ATOM     48  C   UNL     1       5.549   2.166  28.200  0.00  0.00    +0.109 A 
ATOM     49  C   UNL     1       5.186   1.616  29.442  0.00  0.00    +0.135 A 
ATOM     50  C   UNL     1       4.183   2.197  30.230  0.00  0.00    +0.091 A 
ATOM     51  C   UNL     1       3.528   3.330  29.766  0.00  0.00    +0.124 A 
ATOM     52  C   UNL     1       6.591   1.600  27.316  0.00  0.00    +0.238 A 
ATOM     53  O   UNL     1       7.142   0.553  27.645  0.00  0.00    -0.283 OA
ATOM     54  C   UNL     1       3.877   3.886  28.539  0.00  0.00    +0.092 A 
ATOM     55  C   UNL     1       6.992   2.355  26.063  0.00  0.00    +0.214 A 
BRANCH  45  57
ATOM     56  C   UNL     1       5.542   5.021  23.890  0.00  0.00    +0.015 A 
ATOM     57  C   UNL     1       6.533   4.502  24.730  0.00  0.00    +0.025 A 
ATOM     58  C   UNL     1       7.867   4.862  24.433  0.00  0.00    +0.060 A 
ATOM     59  C   UNL     1       8.181   5.520  23.253  0.00  0.00    +0.159 A 
ATOM     60  C   UNL     1       7.190   5.816  22.332  0.00  0.00    +0.158 A 
ATOM     61  C   UNL     1       5.861   5.613  22.663  0.00  0.00    +0.050 A 
BRANCH  60  62
ATOM     62  O   UNL     1       7.568   6.292  21.111  0.00  0.00    -0.503 OA
ATOM     63  H   UNL     1       7.652   7.258  21.189  0.00  0.00    +0.292 HD
ENDBRANCH  60  62
BRANCH  59  64
ATOM     64  O   UNL     1       9.484   5.819  22.980  0.00  0.00    -0.503 OA
ATOM     65  H   UNL     1       9.463   6.239  22.098  0.00  0.00    +0.292 HD
ENDBRANCH  59  64
ENDBRANCH  45  57
BRANCH  51  66
ATOM     66  O   UNL     1       2.538   3.933  30.485  0.00  0.00    -0.507 OA
ATOM     67  H   UNL     1       2.019   4.514  29.901  0.00  0.00    +0.292 HD
ENDBRANCH  51  66
BRANCH  49  68
ATOM     68  O   UNL     1       5.781   0.501  29.966  0.00  0.00    -0.506 OA
ATOM     69  H   UNL     1       6.635   0.355  29.498  0.00  0.00    +0.292 HD
ENDBRANCH  49  68
ENDBRANCH  44  55
ENDBRANCH   1  44
TORSDOF 24
ENDMDL
MODEL 6
REMARK VINA RESULT:      -6.7      2.099      3.853
REMARK  Name = 
REMARK  24 active torsions:
REMARK  status: ('A' for Active; 'I' for Inactive)
REMARK    1  A    between atoms: C_3  and  O_55
REMARK    2  A    between atoms: C_4  and  O_54
REMARK    3  A    between atoms: C_6  and  C_7
REMARK    4  A    between atoms: C_8  and  O_20
REMARK    5  A    between atoms: C_12  and  O_19
REMARK    6  A    between atoms: C_14  and  O_18
REMARK    7  A    between atoms: O_20  and  C_21
REMARK    8  A    between atoms: C_22  and  O_53
REMARK    9  A    between atoms: C_23  and  O_52
REMARK   10  A    between atoms: C_24  and  O_51
REMARK   11  A    between atoms: C_25  and  C_27
REMARK   12  A    between atoms: C_27  and  O_28
REMARK   13  A    between atoms: O_28  and  C_29
REMARK   14  A    between atoms: C_30  and  O_50
REMARK   15  A    between atoms: C_31  and  O_49
REMARK   16  A    between atoms: C_32  and  O_48
REMARK   17  A    between atoms: C_33  and  C_35
REMARK   18  A    between atoms: C_35  and  O_36
REMARK   19  A    between atoms: O_36  and  C_37
REMARK   20  A    between atoms: C_38  and  O_47
REMARK   21  A    between atoms: C_39  and  O_46
REMARK   22  A    between atoms: C_40  and  O_45
REMARK   23  A    between atoms: C_41  and  C_43
REMARK   24  A    between atoms: C_43  and  O_44
REMARK                            x       y       z     vdW  Elec       q    Type
REMARK                         _______ _______ _______ _____ _____    ______ ____
ROOT
ATOM      1  C   UNL     1       6.997   2.333  26.258  0.00  0.00    +0.340 C 
ATOM      2  O   UNL     1       6.871   0.889  26.241  0.00  0.00    -0.331 OA
ATOM      3  C   UNL     1       5.578   0.254  26.074  0.00  0.00    +0.179 C 
ATOM      4  C   UNL     1       4.300   1.125  26.208  0.00  0.00    +0.177 C 
ATOM      5  C   UNL     1       4.553   2.636  26.213  0.00  0.00    +0.180 C 
ATOM      6  C   UNL     1       5.813   2.909  27.038  0.00  0.00    +0.214 C 
ENDROOT
BRANCH   6   7
ATOM      7  O   UNL     1       5.963   4.274  27.411  0.00  0.00    -0.383 OA
ATOM      8  H   UNL     1       6.876   4.446  27.677  0.00  0.00    +0.210 HD
ENDBRANCH   6   7
BRANCH   5   9
ATOM      9  O   UNL     1       3.415   3.279  26.809  0.00  0.00    -0.386 OA
ATOM     10  H   UNL     1       3.161   2.759  27.593  0.00  0.00    +0.210 HD
ENDBRANCH   5   9
BRANCH   4  11
ATOM     11  O   UNL     1       3.556   0.793  27.402  0.00  0.00    -0.386 OA
ATOM     12  H   UNL     1       3.987   0.028  27.834  0.00  0.00    +0.210 HD
ENDBRANCH   4  11
BRANCH   3  13
ATOM     13  C   UNL     1       5.527  -0.955  27.059  0.00  0.00    +0.197 C 
BRANCH  13  14
ATOM     14  O   UNL     1       6.718  -1.757  26.989  0.00  0.00    -0.346 OA
BRANCH  14  15
ATOM     15  C   UNL     1       6.723  -2.642  25.847  0.00  0.00    +0.282 C 
ATOM     16  O   UNL     1       5.772  -3.715  26.041  0.00  0.00    -0.341 OA
ATOM     17  C   UNL     1       6.140  -4.471  27.203  0.00  0.00    +0.178 C 
ATOM     18  C   UNL     1       7.431  -5.238  26.888  0.00  0.00    +0.177 C 
ATOM     19  C   UNL     1       8.536  -4.187  26.735  0.00  0.00    +0.179 C 
ATOM     20  C   UNL     1       8.165  -3.209  25.609  0.00  0.00    +0.201 C 
BRANCH  20  21
ATOM     21  O   UNL     1       9.129  -2.156  25.509  0.00  0.00    -0.384 OA
ATOM     22  H   UNL     1       8.697  -1.342  25.827  0.00  0.00    +0.210 HD
ENDBRANCH  20  21
BRANCH  19  23
ATOM     23  O   UNL     1       9.792  -4.836  26.527  0.00  0.00    -0.386 OA
ATOM     24  H   UNL     1      10.485  -4.191  26.761  0.00  0.00    +0.210 HD
ENDBRANCH  19  23
BRANCH  18  25
ATOM     25  O   UNL     1       7.341  -6.017  25.687  0.00  0.00    -0.386 OA
ATOM     26  H   UNL     1       6.396  -6.304  25.598  0.00  0.00    +0.210 HD
ENDBRANCH  18  25
BRANCH  17  27
ATOM     27  C   UNL     1       5.027  -5.363  27.732  0.00  0.00    +0.197 C 
BRANCH  27  28
ATOM     28  O   UNL     1       4.012  -5.496  26.734  0.00  0.00    -0.346 OA
BRANCH  28  29
ATOM     29  C   UNL     1       3.976  -6.723  25.980  0.00  0.00    +0.282 C 
ATOM     30  O   UNL     1       4.804  -6.770  24.811  0.00  0.00    -0.341 OA
ATOM     31  C   UNL     1       4.480  -5.833  23.771  0.00  0.00    +0.178 C 
ATOM     32  C   UNL     1       3.007  -5.865  23.360  0.00  0.00    +0.177 C 
ATOM     33  C   UNL     1       2.110  -5.794  24.609  0.00  0.00    +0.179 C 
ATOM     34  C   UNL     1       2.499  -6.925  25.585  0.00  0.00    +0.201 C 
BRANCH  34  35
ATOM     35  O   UNL     1       1.676  -6.920  26.756  0.00  0.00    -0.384 OA
ATOM     36  H   UNL     1       1.655  -7.841  27.079  0.00  0.00    +0.210 HD
ENDBRANCH  34  35
BRANCH  33  37
ATOM     37  O   UNL     1       0.729  -5.883  24.230  0.00  0.00    -0.386 OA
ATOM     38  H   UNL     1       0.510  -6.836  24.223  0.00  0.00    +0.210 HD
ENDBRANCH  33  37
BRANCH  32  39
ATOM     39  O   UNL     1       2.694  -7.048  22.614  0.00  0.00    -0.386 OA
ATOM     40  H   UNL     1       1.725  -7.137  22.563  0.00  0.00    +0.210 HD
ENDBRANCH  32  39
BRANCH  31  41
ATOM     41  C   UNL     1       5.471  -6.016  22.608  0.00  0.00    +0.190 C 
BRANCH  41  42
ATOM     42  O   UNL     1       6.715  -5.379  22.867  0.00  0.00    -0.392 OA
ATOM     43  H   UNL     1       7.011  -4.920  22.062  0.00  0.00    +0.210 HD
ENDBRANCH  41  42
ENDBRANCH  31  41
ENDBRANCH  28  29
ENDBRANCH  27  28
ENDBRANCH  17  27
ENDBRANCH  14  15
ENDBRANCH  13  14
ENDBRANCH   3  13
BRANCH   1  44
ATOM     44  O   UNL     1       7.164   2.869  24.919  0.00  0.00    -0.453 OA
BRANCH  44  55
ATOM     45  C   UNL     1       9.074   2.533  23.384  0.00  0.00    +0.181 A 
ATOM     46  O   UNL     1      10.225   3.029  22.768  0.00  0.00    -0.451 OA
ATOM     47  C   UNL     1      10.865   4.140  23.238  0.00  0.00    +0.147 A 
ATOM     48  C   UNL     1      10.365   4.886  24.287  0.00  0.00    +0.109 A 
ATOM     49  C   UNL     1      11.106   5.996  24.732  0.00  0.00    +0.135 A 
ATOM     50  C   UNL     1      12.320   6.349  24.128  0.00  0.00    +0.091 A 
ATOM     51  C   UNL     1      12.790   5.596  23.061  0.00  0.00    +0.124 A 
ATOM     52  C   UNL     1       9.074   4.463  24.873  0.00  0.00    +0.238 A 
ATOM     53  O   UNL     1       8.577   5.144  25.766  0.00  0.00    -0.283 OA
ATOM     54  C   UNL     1      12.069   4.495  22.610  0.00  0.00    +0.092 A 
ATOM     55  C   UNL     1       8.433   3.173  24.401  0.00  0.00    +0.214 A 
BRANCH  45  57
ATOM     56  C   UNL     1       7.482   0.623  22.770  0.00  0.00    +0.015 A 
ATOM     57  C   UNL     1       8.763   1.182  22.810  0.00  0.00    +0.025 A 
ATOM     58  C   UNL     1       9.832   0.346  22.415  0.00  0.00    +0.060 A 
ATOM     59  C   UNL     1       9.633  -1.011  22.204  0.00  0.00    +0.159 A 
ATOM     60  C   UNL     1       8.384  -1.574  22.399  0.00  0.00    +0.158 A 
ATOM     61  C   UNL     1       7.292  -0.757  22.637  0.00  0.00    +0.050 A 
BRANCH  60  62
ATOM     62  O   UNL     1       8.278  -2.933  22.363  0.00  0.00    -0.503 OA
ATOM     63  H   UNL     1       7.481  -3.149  21.849  0.00  0.00    +0.292 HD
ENDBRANCH  60  62
BRANCH  59  64
ATOM     64  O   UNL     1      10.695  -1.796  21.860  0.00  0.00    -0.503 OA
ATOM     65  H   UNL     1      10.787  -2.426  22.601  0.00  0.00    +0.292 HD
ENDBRANCH  59  64
ENDBRANCH  45  57
BRANCH  51  66
ATOM     66  O   UNL     1      13.960   5.898  22.428  0.00  0.00    -0.507 OA
ATOM     67  H   UNL     1      13.978   6.847  22.210  0.00  0.00    +0.292 HD
ENDBRANCH  51  66
BRANCH  49  68
ATOM     68  O   UNL     1      10.708   6.789  25.773  0.00  0.00    -0.506 OA
ATOM     69  H   UNL     1       9.785   6.543  26.016  0.00  0.00    +0.292 HD
ENDBRANCH  49  68
ENDBRANCH  44  55
ENDBRANCH   1  44
TORSDOF 24
ENDMDL
MODEL 7
REMARK VINA RESULT:      -6.7      2.801      4.952
REMARK  Name = 
REMARK  24 active torsions:
REMARK  status: ('A' for Active; 'I' for Inactive)
REMARK    1  A    between atoms: C_3  and  O_55
REMARK    2  A    between atoms: C_4  and  O_54
REMARK    3  A    between atoms: C_6  and  C_7
REMARK    4  A    between atoms: C_8  and  O_20
REMARK    5  A    between atoms: C_12  and  O_19
REMARK    6  A    between atoms: C_14  and  O_18
REMARK    7  A    between atoms: O_20  and  C_21
REMARK    8  A    between atoms: C_22  and  O_53
REMARK    9  A    between atoms: C_23  and  O_52
REMARK   10  A    between atoms: C_24  and  O_51
REMARK   11  A    between atoms: C_25  and  C_27
REMARK   12  A    between atoms: C_27  and  O_28
REMARK   13  A    between atoms: O_28  and  C_29
REMARK   14  A    between atoms: C_30  and  O_50
REMARK   15  A    between atoms: C_31  and  O_49
REMARK   16  A    between atoms: C_32  and  O_48
REMARK   17  A    between atoms: C_33  and  C_35
REMARK   18  A    between atoms: C_35  and  O_36
REMARK   19  A    between atoms: O_36  and  C_37
REMARK   20  A    between atoms: C_38  and  O_47
REMARK   21  A    between atoms: C_39  and  O_46
REMARK   22  A    between atoms: C_40  and  O_45
REMARK   23  A    between atoms: C_41  and  C_43
REMARK   24  A    between atoms: C_43  and  O_44
REMARK                            x       y       z     vdW  Elec       q    Type
REMARK                         _______ _______ _______ _____ _____    ______ ____
ROOT
ATOM      1  C   UNL     1       5.124  -0.833  26.019  0.00  0.00    +0.340 C 
ATOM      2  O   UNL     1       4.139  -1.867  25.773  0.00  0.00    -0.331 OA
ATOM      3  C   UNL     1       2.896  -1.907  26.519  0.00  0.00    +0.179 C 
ATOM      4  C   UNL     1       2.757  -1.013  27.780  0.00  0.00    +0.177 C 
ATOM      5  C   UNL     1       3.853   0.046  27.937  0.00  0.00    +0.180 C 
ATOM      6  C   UNL     1       5.188  -0.580  27.527  0.00  0.00    +0.214 C 
ENDROOT
BRANCH   6   7
ATOM      7  O   UNL     1       6.321   0.171  27.950  0.00  0.00    -0.383 OA
ATOM      8  H   UNL     1       6.632   0.736  27.229  0.00  0.00    +0.210 HD
ENDBRANCH   6   7
BRANCH   5   9
ATOM      9  O   UNL     1       3.892   0.451  29.315  0.00  0.00    -0.386 OA
ATOM     10  H   UNL     1       4.817   0.666  29.533  0.00  0.00    +0.210 HD
ENDBRANCH   5   9
BRANCH   4  11
ATOM     11  O   UNL     1       2.726  -1.804  28.989  0.00  0.00    -0.386 OA
ATOM     12  H   UNL     1       2.822  -2.746  28.746  0.00  0.00    +0.210 HD
ENDBRANCH   4  11
BRANCH   3  13
ATOM     13  C   UNL     1       2.615  -3.402  26.870  0.00  0.00    +0.197 C 
BRANCH  13  14
ATOM     14  O   UNL     1       2.287  -4.176  25.703  0.00  0.00    -0.346 OA
BRANCH  14  15
ATOM     15  C   UNL     1       1.799  -5.495  26.033  0.00  0.00    +0.282 C 
ATOM     16  O   UNL     1       2.808  -6.234  26.759  0.00  0.00    -0.341 OA
ATOM     17  C   UNL     1       3.977  -6.375  25.939  0.00  0.00    +0.178 C 
ATOM     18  C   UNL     1       3.642  -7.331  24.787  0.00  0.00    +0.177 C 
ATOM     19  C   UNL     1       2.622  -6.607  23.900  0.00  0.00    +0.179 C 
ATOM     20  C   UNL     1       1.377  -6.255  24.730  0.00  0.00    +0.201 C 
BRANCH  20  21
ATOM     21  O   UNL     1       0.448  -5.490  23.956  0.00  0.00    -0.384 OA
ATOM     22  H   UNL     1      -0.200  -5.112  24.580  0.00  0.00    +0.210 HD
ENDBRANCH  20  21
BRANCH  19  23
ATOM     23  O   UNL     1       2.329  -7.405  22.753  0.00  0.00    -0.386 OA
ATOM     24  H   UNL     1       2.855  -7.043  22.015  0.00  0.00    +0.210 HD
ENDBRANCH  19  23
BRANCH  18  25
ATOM     25  O   UNL     1       3.089  -8.576  25.235  0.00  0.00    -0.386 OA
ATOM     26  H   UNL     1       3.534  -8.800  26.092  0.00  0.00    +0.210 HD
ENDBRANCH  18  25
BRANCH  17  27
ATOM     27  C   UNL     1       5.223  -6.779  26.711  0.00  0.00    +0.197 C 
BRANCH  27  28
ATOM     28  O   UNL     1       6.377  -6.243  26.060  0.00  0.00    -0.346 OA
BRANCH  28  29
ATOM     29  C   UNL     1       6.581  -4.818  26.129  0.00  0.00    +0.282 C 
ATOM     30  O   UNL     1       6.058  -4.053  25.034  0.00  0.00    -0.341 OA
ATOM     31  C   UNL     1       6.634  -4.321  23.746  0.00  0.00    +0.178 C 
ATOM     32  C   UNL     1       8.163  -4.255  23.737  0.00  0.00    +0.177 C 
ATOM     33  C   UNL     1       8.732  -5.092  24.897  0.00  0.00    +0.179 C 
ATOM     34  C   UNL     1       8.106  -4.619  26.226  0.00  0.00    +0.201 C 
BRANCH  34  35
ATOM     35  O   UNL     1       8.623  -5.350  27.343  0.00  0.00    -0.384 OA
ATOM     36  H   UNL     1       8.465  -6.294  27.149  0.00  0.00    +0.210 HD
ENDBRANCH  34  35
BRANCH  33  37
ATOM     37  O   UNL     1      10.163  -4.984  24.926  0.00  0.00    -0.386 OA
ATOM     38  H   UNL     1      10.412  -4.457  24.141  0.00  0.00    +0.210 HD
ENDBRANCH  33  37
BRANCH  32  39
ATOM     39  O   UNL     1       8.633  -2.906  23.847  0.00  0.00    -0.386 OA
ATOM     40  H   UNL     1       8.847  -2.725  24.780  0.00  0.00    +0.210 HD
ENDBRANCH  32  39
BRANCH  31  41
ATOM     41  C   UNL     1       5.951  -3.425  22.698  0.00  0.00    +0.190 C 
BRANCH  41  42
ATOM     42  O   UNL     1       5.783  -2.094  23.166  0.00  0.00    -0.392 OA
ATOM     43  H   UNL     1       6.357  -1.954  23.939  0.00  0.00    +0.210 HD
ENDBRANCH  41  42
ENDBRANCH  31  41
ENDBRANCH  28  29
ENDBRANCH  27  28
ENDBRANCH  17  27
ENDBRANCH  14  15
ENDBRANCH  13  14
ENDBRANCH   3  13
BRANCH   1  44
ATOM     44  O   UNL     1       4.871   0.348  25.212  0.00  0.00    -0.453 OA
BRANCH  44  55
ATOM     45  C   UNL     1       5.844   2.382  24.199  0.00  0.00    +0.181 A 
ATOM     46  O   UNL     1       6.966   3.156  23.892  0.00  0.00    -0.451 OA
ATOM     47  C   UNL     1       8.226   2.630  23.921  0.00  0.00    +0.147 A 
ATOM     48  C   UNL     1       8.473   1.337  24.341  0.00  0.00    +0.109 A 
ATOM     49  C   UNL     1       9.796   0.863  24.306  0.00  0.00    +0.135 A 
ATOM     50  C   UNL     1      10.849   1.676  23.864  0.00  0.00    +0.091 A 
ATOM     51  C   UNL     1      10.578   2.978  23.467  0.00  0.00    +0.124 A 
ATOM     52  C   UNL     1       7.317   0.537  24.804  0.00  0.00    +0.238 A 
ATOM     53  O   UNL     1       7.517  -0.593  25.240  0.00  0.00    -0.283 OA
ATOM     54  C   UNL     1       9.273   3.461  23.496  0.00  0.00    +0.092 A 
ATOM     55  C   UNL     1       5.919   1.107  24.670  0.00  0.00    +0.214 A 
BRANCH  45  57
ATOM     56  C   UNL     1       3.574   3.447  24.721  0.00  0.00    +0.015 A 
ATOM     57  C   UNL     1       4.611   3.153  23.830  0.00  0.00    +0.025 A 
ATOM     58  C   UNL     1       4.393   3.483  22.473  0.00  0.00    +0.060 A 
ATOM     59  C   UNL     1       3.141   3.881  22.029  0.00  0.00    +0.159 A 
ATOM     60  C   UNL     1       2.073   3.940  22.909  0.00  0.00    +0.158 A 
ATOM     61  C   UNL     1       2.291   3.770  24.265  0.00  0.00    +0.050 A 
BRANCH  60  62
ATOM     62  O   UNL     1       0.828   4.153  22.396  0.00  0.00    -0.503 OA
ATOM     63  H   UNL     1       0.202   4.148  23.140  0.00  0.00    +0.292 HD
ENDBRANCH  60  62
BRANCH  59  64
ATOM     64  O   UNL     1       2.957   4.156  20.706  0.00  0.00    -0.503 OA
ATOM     65  H   UNL     1       2.142   3.675  20.463  0.00  0.00    +0.292 HD
ENDBRANCH  59  64
ENDBRANCH  45  57
BRANCH  51  66
ATOM     66  O   UNL     1      11.563   3.818  23.036  0.00  0.00    -0.507 OA
ATOM     67  H   UNL     1      11.404   4.057  22.106  0.00  0.00    +0.292 HD
ENDBRANCH  51  66
BRANCH  49  68
ATOM     68  O   UNL     1      10.143  -0.405  24.684  0.00  0.00    -0.506 OA
ATOM     69  H   UNL     1       9.498  -1.035  24.290  0.00  0.00    +0.292 HD
ENDBRANCH  49  68
ENDBRANCH  44  55
ENDBRANCH   1  44
TORSDOF 24
ENDMDL
MODEL 8
REMARK VINA RESULT:      -6.6      2.165      4.691
REMARK  Name = 
REMARK  24 active torsions:
REMARK  status: ('A' for Active; 'I' for Inactive)
REMARK    1  A    between atoms: C_3  and  O_55
REMARK    2  A    between atoms: C_4  and  O_54
REMARK    3  A    between atoms: C_6  and  C_7
REMARK    4  A    between atoms: C_8  and  O_20
REMARK    5  A    between atoms: C_12  and  O_19
REMARK    6  A    between atoms: C_14  and  O_18
REMARK    7  A    between atoms: O_20  and  C_21
REMARK    8  A    between atoms: C_22  and  O_53
REMARK    9  A    between atoms: C_23  and  O_52
REMARK   10  A    between atoms: C_24  and  O_51
REMARK   11  A    between atoms: C_25  and  C_27
REMARK   12  A    between atoms: C_27  and  O_28
REMARK   13  A    between atoms: O_28  and  C_29
REMARK   14  A    between atoms: C_30  and  O_50
REMARK   15  A    between atoms: C_31  and  O_49
REMARK   16  A    between atoms: C_32  and  O_48
REMARK   17  A    between atoms: C_33  and  C_35
REMARK   18  A    between atoms: C_35  and  O_36
REMARK   19  A    between atoms: O_36  and  C_37
REMARK   20  A    between atoms: C_38  and  O_47
REMARK   21  A    between atoms: C_39  and  O_46
REMARK   22  A    between atoms: C_40  and  O_45
REMARK   23  A    between atoms: C_41  and  C_43
REMARK   24  A    between atoms: C_43  and  O_44
REMARK                            x       y       z     vdW  Elec       q    Type
REMARK                         _______ _______ _______ _____ _____    ______ ____
ROOT
ATOM      1  C   UNL     1       5.143  -1.017  25.950  0.00  0.00    +0.340 C 
ATOM      2  O   UNL     1       4.040  -1.938  25.761  0.00  0.00    -0.331 OA
ATOM      3  C   UNL     1       2.871  -1.891  26.618  0.00  0.00    +0.179 C 
ATOM      4  C   UNL     1       2.938  -1.046  27.918  0.00  0.00    +0.177 C 
ATOM      5  C   UNL     1       4.145  -0.107  28.010  0.00  0.00    +0.180 C 
ATOM      6  C   UNL     1       5.367  -0.841  27.454  0.00  0.00    +0.214 C 
ENDROOT
BRANCH   6   7
ATOM      7  O   UNL     1       6.603  -0.224  27.795  0.00  0.00    -0.383 OA
ATOM      8  H   UNL     1       7.120  -0.811  28.365  0.00  0.00    +0.210 HD
ENDBRANCH   6   7
BRANCH   5   9
ATOM      9  O   UNL     1       4.348   0.228  29.392  0.00  0.00    -0.386 OA
ATOM     10  H   UNL     1       5.299   0.397  29.517  0.00  0.00    +0.210 HD
ENDBRANCH   5   9
BRANCH   4  11
ATOM     11  O   UNL     1       2.935  -1.885  29.095  0.00  0.00    -0.386 OA
ATOM     12  H   UNL     1       3.368  -2.733  28.873  0.00  0.00    +0.210 HD
ENDBRANCH   4  11
BRANCH   3  13
ATOM     13  C   UNL     1       2.474  -3.366  26.938  0.00  0.00    +0.197 C 
BRANCH  13  14
ATOM     14  O   UNL     1       2.254  -4.135  25.744  0.00  0.00    -0.346 OA
BRANCH  14  15
ATOM     15  C   UNL     1       1.740  -5.457  26.024  0.00  0.00    +0.282 C 
ATOM     16  O   UNL     1       2.700  -6.214  26.795  0.00  0.00    -0.341 OA
ATOM     17  C   UNL     1       3.914  -6.349  26.042  0.00  0.00    +0.178 C 
ATOM     18  C   UNL     1       3.642  -7.285  24.857  0.00  0.00    +0.177 C 
ATOM     19  C   UNL     1       2.680  -6.540  23.924  0.00  0.00    +0.179 C 
ATOM     20  C   UNL     1       1.390  -6.193  24.686  0.00  0.00    +0.201 C 
BRANCH  20  21
ATOM     21  O   UNL     1       0.512  -5.409  23.871  0.00  0.00    -0.384 OA
ATOM     22  H   UNL     1      -0.022  -6.033  23.345  0.00  0.00    +0.210 HD
ENDBRANCH  20  21
BRANCH  19  23
ATOM     23  O   UNL     1       2.450  -7.318  22.749  0.00  0.00    -0.386 OA
ATOM     24  H   UNL     1       1.497  -7.253  22.550  0.00  0.00    +0.210 HD
ENDBRANCH  19  23
BRANCH  18  25
ATOM     25  O   UNL     1       3.057  -8.533  25.252  0.00  0.00    -0.386 OA
ATOM     26  H   UNL     1       2.173  -8.326  25.649  0.00  0.00    +0.210 HD
ENDBRANCH  18  25
BRANCH  17  27
ATOM     27  C   UNL     1       5.111  -6.773  26.878  0.00  0.00    +0.197 C 
BRANCH  27  28
ATOM     28  O   UNL     1       6.311  -6.299  26.263  0.00  0.00    -0.346 OA
BRANCH  28  29
ATOM     29  C   UNL     1       6.467  -4.874  26.118  0.00  0.00    +0.282 C 
ATOM     30  O   UNL     1       5.854  -4.287  24.962  0.00  0.00    -0.341 OA
ATOM     31  C   UNL     1       6.364  -4.720  23.690  0.00  0.00    +0.178 C 
ATOM     32  C   UNL     1       7.886  -4.616  23.576  0.00  0.00    +0.177 C 
ATOM     33  C   UNL     1       8.551  -5.263  24.804  0.00  0.00    +0.179 C 
ATOM     34  C   UNL     1       7.988  -4.623  26.091  0.00  0.00    +0.201 C 
BRANCH  34  35
ATOM     35  O   UNL     1       8.594  -5.173  27.265  0.00  0.00    -0.384 OA
ATOM     36  H   UNL     1       7.862  -5.400  27.870  0.00  0.00    +0.210 HD
ENDBRANCH  34  35
BRANCH  33  37
ATOM     37  O   UNL     1       9.976  -5.115  24.727  0.00  0.00    -0.386 OA
ATOM     38  H   UNL     1      10.345  -6.021  24.728  0.00  0.00    +0.210 HD
ENDBRANCH  33  37
BRANCH  32  39
ATOM     39  O   UNL     1       8.313  -3.252  23.465  0.00  0.00    -0.386 OA
ATOM     40  H   UNL     1       7.909  -2.739  24.188  0.00  0.00    +0.210 HD
ENDBRANCH  32  39
BRANCH  31  41
ATOM     41  C   UNL     1       5.589  -4.001  22.572  0.00  0.00    +0.190 C 
BRANCH  41  42
ATOM     42  O   UNL     1       5.256  -2.667  22.930  0.00  0.00    -0.392 OA
ATOM     43  H   UNL     1       6.023  -2.254  23.364  0.00  0.00    +0.210 HD
ENDBRANCH  41  42
ENDBRANCH  31  41
ENDBRANCH  28  29
ENDBRANCH  27  28
ENDBRANCH  17  27
ENDBRANCH  14  15
ENDBRANCH  13  14
ENDBRANCH   3  13
BRANCH   1  44
ATOM     44  O   UNL     1       4.938   0.218  25.215  0.00  0.00    -0.453 OA
BRANCH  44  55
ATOM     45  C   UNL     1       6.366   2.207  25.562  0.00  0.00    +0.181 A 
ATOM     46  O   UNL     1       7.571   2.878  25.340  0.00  0.00    -0.451 OA
ATOM     47  C   UNL     1       8.421   2.507  24.337  0.00  0.00    +0.147 A 
ATOM     48  C   UNL     1       8.185   1.398  23.548  0.00  0.00    +0.109 A 
ATOM     49  C   UNL     1       9.093   1.107  22.514  0.00  0.00    +0.135 A 
ATOM     50  C   UNL     1      10.217   1.912  22.285  0.00  0.00    +0.091 A 
ATOM     51  C   UNL     1      10.443   3.009  23.106  0.00  0.00    +0.124 A 
ATOM     52  C   UNL     1       6.985   0.587  23.849  0.00  0.00    +0.238 A 
ATOM     53  O   UNL     1       6.785  -0.437  23.203  0.00  0.00    -0.283 OA
ATOM     54  C   UNL     1       9.553   3.309  24.133  0.00  0.00    +0.092 A 
ATOM     55  C   UNL     1       6.006   1.073  24.901  0.00  0.00    +0.214 A 
BRANCH  45  57
ATOM     56  C   UNL     1       5.973   3.324  27.833  0.00  0.00    +0.015 A 
ATOM     57  C   UNL     1       5.548   2.996  26.542  0.00  0.00    +0.025 A 
ATOM     58  C   UNL     1       4.209   3.310  26.216  0.00  0.00    +0.060 A 
ATOM     59  C   UNL     1       3.318   3.726  27.195  0.00  0.00    +0.159 A 
ATOM     60  C   UNL     1       3.722   3.819  28.515  0.00  0.00    +0.158 A 
ATOM     61  C   UNL     1       5.060   3.665  28.837  0.00  0.00    +0.050 A 
BRANCH  60  62
ATOM     62  O   UNL     1       2.770   4.048  29.464  0.00  0.00    -0.503 OA
ATOM     63  H   UNL     1       2.255   4.823  29.178  0.00  0.00    +0.292 HD
ENDBRANCH  60  62
BRANCH  59  64
ATOM     64  O   UNL     1       2.023   3.985  26.852  0.00  0.00    -0.503 OA
ATOM     65  H   UNL     1       1.697   4.587  27.549  0.00  0.00    +0.292 HD
ENDBRANCH  59  64
ENDBRANCH  45  57
BRANCH  51  66
ATOM     66  O   UNL     1      11.525   3.822  22.937  0.00  0.00    -0.507 OA
ATOM     67  H   UNL     1      11.226   4.720  22.709  0.00  0.00    +0.292 HD
ENDBRANCH  51  66
BRANCH  49  68
ATOM     68  O   UNL     1       8.942   0.044  21.666  0.00  0.00    -0.506 OA
ATOM     69  H   UNL     1       8.693   0.388  20.777  0.00  0.00    +0.292 HD
ENDBRANCH  49  68
ENDBRANCH  44  55
ENDBRANCH   1  44
TORSDOF 24
ENDMDL
MODEL 9
REMARK VINA RESULT:      -6.6      2.941      7.451
REMARK  Name = 
REMARK  24 active torsions:
REMARK  status: ('A' for Active; 'I' for Inactive)
REMARK    1  A    between atoms: C_3  and  O_55
REMARK    2  A    between atoms: C_4  and  O_54
REMARK    3  A    between atoms: C_6  and  C_7
REMARK    4  A    between atoms: C_8  and  O_20
REMARK    5  A    between atoms: C_12  and  O_19
REMARK    6  A    between atoms: C_14  and  O_18
REMARK    7  A    between atoms: O_20  and  C_21
REMARK    8  A    between atoms: C_22  and  O_53
REMARK    9  A    between atoms: C_23  and  O_52
REMARK   10  A    between atoms: C_24  and  O_51
REMARK   11  A    between atoms: C_25  and  C_27
REMARK   12  A    between atoms: C_27  and  O_28
REMARK   13  A    between atoms: O_28  and  C_29
REMARK   14  A    between atoms: C_30  and  O_50
REMARK   15  A    between atoms: C_31  and  O_49
REMARK   16  A    between atoms: C_32  and  O_48
REMARK   17  A    between atoms: C_33  and  C_35
REMARK   18  A    between atoms: C_35  and  O_36
REMARK   19  A    between atoms: O_36  and  C_37
REMARK   20  A    between atoms: C_38  and  O_47
REMARK   21  A    between atoms: C_39  and  O_46
REMARK   22  A    between atoms: C_40  and  O_45
REMARK   23  A    between atoms: C_41  and  C_43
REMARK   24  A    between atoms: C_43  and  O_44
REMARK                            x       y       z     vdW  Elec       q    Type
REMARK                         _______ _______ _______ _____ _____    ______ ____
ROOT
ATOM      1  C   UNL     1       6.728   3.953  22.956  0.00  0.00    +0.340 C 
ATOM      2  O   UNL     1       7.263   2.634  23.227  0.00  0.00    -0.331 OA
ATOM      3  C   UNL     1       8.607   2.464  23.747  0.00  0.00    +0.179 C 
ATOM      4  C   UNL     1       9.567   3.684  23.733  0.00  0.00    +0.177 C 
ATOM      5  C   UNL     1       8.892   5.027  23.437  0.00  0.00    +0.180 C 
ATOM      6  C   UNL     1       7.842   4.806  22.346  0.00  0.00    +0.214 C 
ENDROOT
BRANCH   6   7
ATOM      7  O   UNL     1       7.393   6.013  21.739  0.00  0.00    -0.383 OA
ATOM      8  H   UNL     1       7.272   6.697  22.411  0.00  0.00    +0.210 HD
ENDBRANCH   6   7
BRANCH   5   9
ATOM      9  O   UNL     1       9.899   5.945  22.985  0.00  0.00    -0.386 OA
ATOM     10  H   UNL     1      10.725   5.442  22.867  0.00  0.00    +0.210 HD
ENDBRANCH   5   9
BRANCH   4  11
ATOM     11  O   UNL     1      10.638   3.504  22.778  0.00  0.00    -0.386 OA
ATOM     12  H   UNL     1      10.598   4.232  22.127  0.00  0.00    +0.210 HD
ENDBRANCH   4  11
BRANCH   3  13
ATOM     13  C   UNL     1       9.243   1.253  22.996  0.00  0.00    +0.197 C 
BRANCH  13  14
ATOM     14  O   UNL     1       8.925   0.001  23.629  0.00  0.00    -0.346 OA
BRANCH  14  15
ATOM     15  C   UNL     1       8.621  -1.040  22.674  0.00  0.00    +0.282 C 
ATOM     16  O   UNL     1       7.234  -1.432  22.786  0.00  0.00    -0.341 OA
ATOM     17  C   UNL     1       6.989  -1.940  24.105  0.00  0.00    +0.178 C 
ATOM     18  C   UNL     1       7.716  -3.284  24.245  0.00  0.00    +0.177 C 
ATOM     19  C   UNL     1       9.217  -2.973  24.215  0.00  0.00    +0.179 C 
ATOM     20  C   UNL     1       9.570  -2.268  22.895  0.00  0.00    +0.201 C 
BRANCH  20  21
ATOM     21  O   UNL     1      10.946  -1.874  22.879  0.00  0.00    -0.384 OA
ATOM     22  H   UNL     1      11.463  -2.631  23.212  0.00  0.00    +0.210 HD
ENDBRANCH  20  21
BRANCH  19  23
ATOM     23  O   UNL     1       9.961  -4.173  24.430  0.00  0.00    -0.386 OA
ATOM     24  H   UNL     1       9.934  -4.676  23.595  0.00  0.00    +0.210 HD
ENDBRANCH  19  23
BRANCH  18  25
ATOM     25  O   UNL     1       7.396  -4.206  23.194  0.00  0.00    -0.386 OA
ATOM     26  H   UNL     1       8.101  -4.114  22.504  0.00  0.00    +0.210 HD
ENDBRANCH  18  25
BRANCH  17  27
ATOM     27  C   UNL     1       5.514  -2.016  24.469  0.00  0.00    +0.197 C 
BRANCH  27  28
ATOM     28  O   UNL     1       5.019  -3.322  24.167  0.00  0.00    -0.346 OA
BRANCH  28  29
ATOM     29  C   UNL     1       4.054  -3.895  25.072  0.00  0.00    +0.282 C 
ATOM     30  O   UNL     1       4.502  -4.109  26.418  0.00  0.00    -0.341 OA
ATOM     31  C   UNL     1       5.579  -5.045  26.582  0.00  0.00    +0.178 C 
ATOM     32  C   UNL     1       5.324  -6.392  25.904  0.00  0.00    +0.177 C 
ATOM     33  C   UNL     1       4.864  -6.171  24.451  0.00  0.00    +0.179 C 
ATOM     34  C   UNL     1       3.635  -5.237  24.439  0.00  0.00    +0.201 C 
BRANCH  34  35
ATOM     35  O   UNL     1       3.150  -5.019  23.110  0.00  0.00    -0.384 OA
ATOM     36  H   UNL     1       3.412  -5.804  22.591  0.00  0.00    +0.210 HD
ENDBRANCH  34  35
BRANCH  33  37
ATOM     37  O   UNL     1       4.568  -7.431  23.832  0.00  0.00    -0.386 OA
ATOM     38  H   UNL     1       4.194  -7.221  22.953  0.00  0.00    +0.210 HD
ENDBRANCH  33  37
BRANCH  32  39
ATOM     39  O   UNL     1       4.337  -7.157  26.606  0.00  0.00    -0.386 OA
ATOM     40  H   UNL     1       4.432  -8.094  26.356  0.00  0.00    +0.210 HD
ENDBRANCH  32  39
BRANCH  31  41
ATOM     41  C   UNL     1       5.933  -5.140  28.076  0.00  0.00    +0.190 C 
BRANCH  41  42
ATOM     42  O   UNL     1       6.699  -6.300  28.368  0.00  0.00    -0.392 OA
ATOM     43  H   UNL     1       6.354  -7.048  27.849  0.00  0.00    +0.210 HD
ENDBRANCH  41  42
ENDBRANCH  31  41
ENDBRANCH  28  29
ENDBRANCH  27  28
ENDBRANCH  17  27
ENDBRANCH  14  15
ENDBRANCH  13  14
ENDBRANCH   3  13
BRANCH   1  44
ATOM     44  O   UNL     1       6.097   4.524  24.133  0.00  0.00    -0.453 OA
BRANCH  44  55
ATOM     45  C   UNL     1       4.273   3.089  24.985  0.00  0.00    +0.181 A 
ATOM     46  O   UNL     1       3.824   2.119  25.886  0.00  0.00    -0.451 OA
ATOM     47  C   UNL     1       4.516   1.829  27.027  0.00  0.00    +0.147 A 
ATOM     48  C   UNL     1       5.738   2.407  27.311  0.00  0.00    +0.109 A 
ATOM     49  C   UNL     1       6.366   2.079  28.526  0.00  0.00    +0.135 A 
ATOM     50  C   UNL     1       5.780   1.183  29.430  0.00  0.00    +0.091 A 
ATOM     51  C   UNL     1       4.561   0.600  29.111  0.00  0.00    +0.124 A 
ATOM     52  C   UNL     1       6.304   3.336  26.309  0.00  0.00    +0.238 A 
ATOM     53  O   UNL     1       7.417   3.815  26.509  0.00  0.00    -0.283 OA
ATOM     54  C   UNL     1       3.927   0.915  27.913  0.00  0.00    +0.092 A 
ATOM     55  C   UNL     1       5.475   3.718  25.099  0.00  0.00    +0.214 A 
BRANCH  45  57
ATOM     56  C   UNL     1       1.820   3.241  24.263  0.00  0.00    +0.015 A 
ATOM     57  C   UNL     1       3.186   3.360  23.987  0.00  0.00    +0.025 A 
ATOM     58  C   UNL     1       3.541   3.608  22.641  0.00  0.00    +0.060 A 
ATOM     59  C   UNL     1       2.596   3.525  21.629  0.00  0.00    +0.159 A 
ATOM     60  C   UNL     1       1.288   3.176  21.920  0.00  0.00    +0.158 A 
ATOM     61  C   UNL     1       0.880   3.078  23.239  0.00  0.00    +0.050 A 
BRANCH  60  62
ATOM     62  O   UNL     1       0.443   2.926  20.880  0.00  0.00    -0.503 OA
ATOM     63  H   UNL     1       0.755   2.115  20.441  0.00  0.00    +0.292 HD
ENDBRANCH  60  62
BRANCH  59  64
ATOM     64  O   UNL     1       2.981   3.733  20.337  0.00  0.00    -0.503 OA
ATOM     65  H   UNL     1       3.938   3.536  20.329  0.00  0.00    +0.292 HD
ENDBRANCH  59  64
ENDBRANCH  45  57
BRANCH  51  66
ATOM     66  O   UNL     1       3.947  -0.285  29.948  0.00  0.00    -0.507 OA
ATOM     67  H   UNL     1       4.416  -1.138  29.921  0.00  0.00    +0.292 HD
ENDBRANCH  51  66
BRANCH  49  68
ATOM     68  O   UNL     1       7.568   2.608  28.909  0.00  0.00    -0.506 OA
ATOM     69  H   UNL     1       7.423   3.163  29.709  0.00  0.00    +0.292 HD
ENDBRANCH  49  68
ENDBRANCH  44  55
ENDBRANCH   1  44
TORSDOF 24
ENDMDL
