MODEL 1
REMARK VINA RESULT:      -7.3      0.000      0.000
REMARK  Name = 
REMARK  18 active torsions:
REMARK  status: ('A' for Active; 'I' for Inactive)
REMARK    1  A    between atoms: C_3  and  O_51
REMARK    2  A    between atoms: C_4  and  O_50
REMARK    3  A    between atoms: C_6  and  C_7
REMARK    4  A    between atoms: C_8  and  O_20
REMARK    5  A    between atoms: C_12  and  O_19
REMARK    6  A    between atoms: C_14  and  O_18
REMARK    7  A    between atoms: O_20  and  C_21
REMARK    8  A    between atoms: C_23  and  O_35
REMARK    9  A    between atoms: C_24  and  O_34
REMARK   10  A    between atoms: C_26  and  O_33
REMARK   11  A    between atoms: C_28  and  C_30
REMARK   12  A    between atoms: C_30  and  O_32
REMARK   13  A    between atoms: O_35  and  C_36
REMARK   14  A    between atoms: C_38  and  O_49
REMARK   15  A    between atoms: C_39  and  O_48
REMARK   16  A    between atoms: C_41  and  O_47
REMARK   17  A    between atoms: C_43  and  C_45
REMARK   18  A    between atoms: C_45  and  O_46
REMARK                            x       y       z     vdW  Elec       q    Type
REMARK                         _______ _______ _______ _____ _____    ______ ____
ROOT
ATOM      1  C   UNL     1       5.895  -1.888  24.217  0.00  0.00    +0.340 C 
ATOM      2  O   UNL     1       4.998  -3.051  23.982  0.00  0.00    -0.322 OA
ATOM      3  C   UNL     1       5.575  -4.311  23.514  0.00  0.00    +0.261 C 
ATOM      4  C   UNL     1       6.726  -4.240  22.477  0.00  0.00    +0.185 C 
ATOM      5  C   UNL     1       7.634  -3.100  22.860  0.00  0.00    +0.181 C 
ATOM      6  C   UNL     1       6.792  -1.796  22.977  0.00  0.00    +0.221 C 
ENDROOT
BRANCH   5   7
ATOM      7  O   UNL     1       8.213  -3.615  24.048  0.00  0.00    -0.386 OA
ATOM      8  H   UNL     1       9.096  -3.223  24.170  0.00  0.00    +0.210 HD
ENDBRANCH   5   7
BRANCH   4   9
ATOM      9  O   UNL     1       6.322  -4.050  21.122  0.00  0.00    -0.386 OA
ATOM     10  H   UNL     1       5.434  -4.462  21.052  0.00  0.00    +0.210 HD
ENDBRANCH   4   9
BRANCH   3  11
ATOM     11  C   UNL     1       4.515  -5.229  22.876  0.00  0.00    +0.337 C 
ATOM     12  O   UNL     1       3.306  -5.056  22.953  0.00  0.00    -0.248 OA
BRANCH  11  13
ATOM     13  O   UNL     1       5.063  -6.291  22.235  0.00  0.00    -0.479 OA
ATOM     14  H   UNL     1       4.358  -6.771  21.750  0.00  0.00    +0.295 HD
ENDBRANCH  11  13
ENDBRANCH   3  11
BRANCH   6  15
ATOM     15  O   UNL     1       7.619  -0.677  22.686  0.00  0.00    -0.337 OA
BRANCH  15  16
ATOM     16  C   UNL     1       8.769  -0.355  23.455  0.00  0.00    +0.282 C 
ATOM     17  O   UNL     1       8.656   0.624  24.470  0.00  0.00    -0.341 OA
ATOM     18  C   UNL     1       8.202   1.898  24.017  0.00  0.00    +0.178 C 
ATOM     19  C   UNL     1       8.971   2.465  22.790  0.00  0.00    +0.177 C 
ATOM     20  C   UNL     1       9.537   1.408  21.818  0.00  0.00    +0.179 C 
ATOM     21  C   UNL     1       9.852   0.045  22.448  0.00  0.00    +0.201 C 
BRANCH  21  22
ATOM     22  O   UNL     1       9.951  -0.958  21.417  0.00  0.00    -0.384 OA
ATOM     23  H   UNL     1      10.658  -0.699  20.800  0.00  0.00    +0.210 HD
ENDBRANCH  21  22
BRANCH  20  24
ATOM     24  O   UNL     1       8.652   1.276  20.696  0.00  0.00    -0.386 OA
ATOM     25  H   UNL     1       9.175   1.478  19.894  0.00  0.00    +0.210 HD
ENDBRANCH  20  24
BRANCH  19  26
ATOM     26  O   UNL     1      10.052   3.328  23.169  0.00  0.00    -0.386 OA
ATOM     27  H   UNL     1       9.907   4.172  22.690  0.00  0.00    +0.210 HD
ENDBRANCH  19  26
BRANCH  18  28
ATOM     28  C   UNL     1       8.188   2.853  25.233  0.00  0.00    +0.190 C 
BRANCH  28  29
ATOM     29  O   UNL     1       7.821   2.166  26.426  0.00  0.00    -0.392 OA
ATOM     30  H   UNL     1       7.478   2.833  27.043  0.00  0.00    +0.210 HD
ENDBRANCH  28  29
ENDBRANCH  18  28
ENDBRANCH  15  16
ENDBRANCH   6  15
BRANCH   1  31
ATOM     31  O   UNL     1       6.462  -1.836  25.558  0.00  0.00    -0.453 OA
BRANCH  31  42
ATOM     32  C   UNL     1       4.886  -2.064  27.508  0.00  0.00    +0.181 A 
ATOM     33  O   UNL     1       4.274  -2.957  28.406  0.00  0.00    -0.451 OA
ATOM     34  C   UNL     1       4.714  -4.217  28.616  0.00  0.00    +0.147 A 
ATOM     35  C   UNL     1       5.905  -4.654  28.088  0.00  0.00    +0.109 A 
ATOM     36  C   UNL     1       6.418  -5.901  28.487  0.00  0.00    +0.135 A 
ATOM     37  C   UNL     1       5.687  -6.763  29.308  0.00  0.00    +0.091 A 
ATOM     38  C   UNL     1       4.427  -6.352  29.728  0.00  0.00    +0.124 A 
ATOM     39  C   UNL     1       6.530  -3.796  27.097  0.00  0.00    +0.238 A 
ATOM     40  O   UNL     1       7.557  -4.235  26.588  0.00  0.00    -0.283 OA
ATOM     41  C   UNL     1       3.945  -5.084  29.395  0.00  0.00    +0.092 A 
ATOM     42  C   UNL     1       5.948  -2.438  26.720  0.00  0.00    +0.214 A 
BRANCH  32  44
ATOM     43  C   UNL     1       4.879   0.345  28.284  0.00  0.00    +0.015 A 
ATOM     44  C   UNL     1       4.153  -0.724  27.675  0.00  0.00    +0.025 A 
ATOM     45  C   UNL     1       2.925  -0.351  27.112  0.00  0.00    +0.060 A 
ATOM     46  C   UNL     1       2.461   0.980  27.156  0.00  0.00    +0.159 A 
ATOM     47  C   UNL     1       3.216   1.985  27.766  0.00  0.00    +0.158 A 
ATOM     48  C   UNL     1       4.429   1.674  28.337  0.00  0.00    +0.050 A 
BRANCH  47  49
ATOM     49  O   UNL     1       2.728   3.259  27.736  0.00  0.00    -0.503 OA
ATOM     50  H   UNL     1       1.997   3.326  28.376  0.00  0.00    +0.292 HD
ENDBRANCH  47  49
BRANCH  46  51
ATOM     51  O   UNL     1       1.282   1.313  26.570  0.00  0.00    -0.503 OA
ATOM     52  H   UNL     1       1.474   1.346  25.612  0.00  0.00    +0.292 HD
ENDBRANCH  46  51
ENDBRANCH  32  44
BRANCH  38  53
ATOM     53  O   UNL     1       3.638  -7.166  30.485  0.00  0.00    -0.507 OA
ATOM     54  H   UNL     1       4.157  -7.932  30.774  0.00  0.00    +0.292 HD
ENDBRANCH  38  53
BRANCH  36  55
ATOM     55  O   UNL     1       7.661  -6.362  28.123  0.00  0.00    -0.506 OA
ATOM     56  H   UNL     1       8.216  -5.577  27.915  0.00  0.00    +0.292 HD
ENDBRANCH  36  55
ENDBRANCH  31  42
ENDBRANCH   1  31
TORSDOF 18
ENDMDL
MODEL 2
REMARK VINA RESULT:      -7.3      2.206      6.260
REMARK  Name = 
REMARK  18 active torsions:
REMARK  status: ('A' for Active; 'I' for Inactive)
REMARK    1  A    between atoms: C_3  and  O_51
REMARK    2  A    between atoms: C_4  and  O_50
REMARK    3  A    between atoms: C_6  and  C_7
REMARK    4  A    between atoms: C_8  and  O_20
REMARK    5  A    between atoms: C_12  and  O_19
REMARK    6  A    between atoms: C_14  and  O_18
REMARK    7  A    between atoms: O_20  and  C_21
REMARK    8  A    between atoms: C_23  and  O_35
REMARK    9  A    between atoms: C_24  and  O_34
REMARK   10  A    between atoms: C_26  and  O_33
REMARK   11  A    between atoms: C_28  and  C_30
REMARK   12  A    between atoms: C_30  and  O_32
REMARK   13  A    between atoms: O_35  and  C_36
REMARK   14  A    between atoms: C_38  and  O_49
REMARK   15  A    between atoms: C_39  and  O_48
REMARK   16  A    between atoms: C_41  and  O_47
REMARK   17  A    between atoms: C_43  and  C_45
REMARK   18  A    between atoms: C_45  and  O_46
REMARK                            x       y       z     vdW  Elec       q    Type
REMARK                         _______ _______ _______ _____ _____    ______ ____
ROOT
ATOM      1  C   UNL     1       8.129  -0.789  24.795  0.00  0.00    +0.340 C 
ATOM      2  O   UNL     1       8.510   0.412  24.005  0.00  0.00    -0.322 OA
ATOM      3  C   UNL     1       8.436   0.357  22.546  0.00  0.00    +0.261 C 
ATOM      4  C   UNL     1       8.860  -0.961  21.847  0.00  0.00    +0.185 C 
ATOM      5  C   UNL     1       8.339  -2.115  22.665  0.00  0.00    +0.181 C 
ATOM      6  C   UNL     1       8.846  -1.971  24.130  0.00  0.00    +0.221 C 
ENDROOT
BRANCH   5   7
ATOM      7  O   UNL     1       6.944  -1.987  22.439  0.00  0.00    -0.386 OA
ATOM      8  H   UNL     1       6.697  -2.514  21.659  0.00  0.00    +0.210 HD
ENDBRANCH   5   7
BRANCH   4   9
ATOM      9  O   UNL     1      10.264  -1.139  21.672  0.00  0.00    -0.386 OA
ATOM     10  H   UNL     1      10.649  -1.102  22.574  0.00  0.00    +0.210 HD
ENDBRANCH   4   9
BRANCH   3  11
ATOM     11  C   UNL     1       9.289   1.455  21.883  0.00  0.00    +0.337 C 
ATOM     12  O   UNL     1      10.464   1.677  22.145  0.00  0.00    -0.248 OA
BRANCH  11  13
ATOM     13  O   UNL     1       8.588   2.191  20.986  0.00  0.00    -0.479 OA
ATOM     14  H   UNL     1       9.114   2.281  20.163  0.00  0.00    +0.295 HD
ENDBRANCH  11  13
ENDBRANCH   3  11
BRANCH   6  15
ATOM     15  O   UNL     1       8.951  -3.260  24.719  0.00  0.00    -0.337 OA
BRANCH  15  16
ATOM     16  C   UNL     1       8.337  -4.410  24.155  0.00  0.00    +0.282 C 
ATOM     17  O   UNL     1       6.924  -4.458  24.077  0.00  0.00    -0.341 OA
ATOM     18  C   UNL     1       6.256  -4.315  25.329  0.00  0.00    +0.178 C 
ATOM     19  C   UNL     1       6.776  -5.252  26.456  0.00  0.00    +0.177 C 
ATOM     20  C   UNL     1       8.271  -5.627  26.367  0.00  0.00    +0.179 C 
ATOM     21  C   UNL     1       8.866  -5.605  24.953  0.00  0.00    +0.201 C 
BRANCH  21  22
ATOM     22  O   UNL     1      10.304  -5.539  25.030  0.00  0.00    -0.384 OA
ATOM     23  H   UNL     1      10.550  -5.056  25.839  0.00  0.00    +0.210 HD
ENDBRANCH  21  22
BRANCH  20  24
ATOM     24  O   UNL     1       9.021  -4.794  27.265  0.00  0.00    -0.386 OA
ATOM     25  H   UNL     1       9.371  -4.047  26.738  0.00  0.00    +0.210 HD
ENDBRANCH  20  24
BRANCH  19  26
ATOM     26  O   UNL     1       6.029  -6.473  26.546  0.00  0.00    -0.386 OA
ATOM     27  H   UNL     1       6.611  -7.115  27.004  0.00  0.00    +0.210 HD
ENDBRANCH  19  26
BRANCH  18  28
ATOM     28  C   UNL     1       4.737  -4.443  25.070  0.00  0.00    +0.190 C 
BRANCH  28  29
ATOM     29  O   UNL     1       3.989  -4.240  26.266  0.00  0.00    -0.392 OA
ATOM     30  H   UNL     1       3.824  -5.117  26.648  0.00  0.00    +0.210 HD
ENDBRANCH  28  29
ENDBRANCH  18  28
ENDBRANCH  15  16
ENDBRANCH   6  15
BRANCH   1  31
ATOM     31  O   UNL     1       6.710  -0.861  25.120  0.00  0.00    -0.453 OA
BRANCH  31  42
ATOM     32  C   UNL     1       5.718   1.281  25.995  0.00  0.00    +0.181 A 
ATOM     33  O   UNL     1       4.708   1.851  26.790  0.00  0.00    -0.451 OA
ATOM     34  C   UNL     1       3.997   1.152  27.701  0.00  0.00    +0.147 A 
ATOM     35  C   UNL     1       4.336  -0.138  28.034  0.00  0.00    +0.109 A 
ATOM     36  C   UNL     1       3.693  -0.760  29.119  0.00  0.00    +0.135 A 
ATOM     37  C   UNL     1       2.629  -0.148  29.786  0.00  0.00    +0.091 A 
ATOM     38  C   UNL     1       2.219   1.106  29.349  0.00  0.00    +0.124 A 
ATOM     39  C   UNL     1       5.319  -0.790  27.187  0.00  0.00    +0.238 A 
ATOM     40  O   UNL     1       5.558  -1.963  27.460  0.00  0.00    -0.283 OA
ATOM     41  C   UNL     1       2.902   1.759  28.321  0.00  0.00    +0.092 A 
ATOM     42  C   UNL     1       6.009  -0.061  26.040  0.00  0.00    +0.214 A 
BRANCH  32  44
ATOM     43  C   UNL     1       7.532   3.028  25.740  0.00  0.00    +0.015 A 
ATOM     44  C   UNL     1       6.343   2.441  25.206  0.00  0.00    +0.025 A 
ATOM     45  C   UNL     1       6.013   2.864  23.911  0.00  0.00    +0.060 A 
ATOM     46  C   UNL     1       6.806   3.796  23.208  0.00  0.00    +0.159 A 
ATOM     47  C   UNL     1       7.959   4.336  23.782  0.00  0.00    +0.158 A 
ATOM     48  C   UNL     1       8.329   3.958  25.053  0.00  0.00    +0.050 A 
BRANCH  47  49
ATOM     49  O   UNL     1       8.703   5.200  23.033  0.00  0.00    -0.503 OA
ATOM     50  H   UNL     1       8.120   5.621  22.376  0.00  0.00    +0.292 HD
ENDBRANCH  47  49
BRANCH  46  51
ATOM     51  O   UNL     1       6.476   4.157  21.942  0.00  0.00    -0.503 OA
ATOM     52  H   UNL     1       6.305   5.118  21.987  0.00  0.00    +0.292 HD
ENDBRANCH  46  51
ENDBRANCH  32  44
BRANCH  38  53
ATOM     53  O   UNL     1       1.153   1.736  29.919  0.00  0.00    -0.507 OA
ATOM     54  H   UNL     1       0.687   2.249  29.240  0.00  0.00    +0.292 HD
ENDBRANCH  38  53
BRANCH  36  55
ATOM     55  O   UNL     1       4.058  -1.990  29.613  0.00  0.00    -0.506 OA
ATOM     56  H   UNL     1       3.859  -1.990  30.576  0.00  0.00    +0.292 HD
ENDBRANCH  36  55
ENDBRANCH  31  42
ENDBRANCH   1  31
TORSDOF 18
ENDMDL
MODEL 3
REMARK VINA RESULT:      -7.0      2.538      6.412
REMARK  Name = 
REMARK  18 active torsions:
REMARK  status: ('A' for Active; 'I' for Inactive)
REMARK    1  A    between atoms: C_3  and  O_51
REMARK    2  A    between atoms: C_4  and  O_50
REMARK    3  A    between atoms: C_6  and  C_7
REMARK    4  A    between atoms: C_8  and  O_20
REMARK    5  A    between atoms: C_12  and  O_19
REMARK    6  A    between atoms: C_14  and  O_18
REMARK    7  A    between atoms: O_20  and  C_21
REMARK    8  A    between atoms: C_23  and  O_35
REMARK    9  A    between atoms: C_24  and  O_34
REMARK   10  A    between atoms: C_26  and  O_33
REMARK   11  A    between atoms: C_28  and  C_30
REMARK   12  A    between atoms: C_30  and  O_32
REMARK   13  A    between atoms: O_35  and  C_36
REMARK   14  A    between atoms: C_38  and  O_49
REMARK   15  A    between atoms: C_39  and  O_48
REMARK   16  A    between atoms: C_41  and  O_47
REMARK   17  A    between atoms: C_43  and  C_45
REMARK   18  A    between atoms: C_45  and  O_46
REMARK                            x       y       z     vdW  Elec       q    Type
REMARK                         _______ _______ _______ _____ _____    ______ ____
ROOT
ATOM      1  C   UNL     1       5.200   1.882  26.282  0.00  0.00    +0.340 C 
ATOM      2  O   UNL     1       4.482   1.512  27.531  0.00  0.00    -0.322 OA
ATOM      3  C   UNL     1       3.057   1.814  27.649  0.00  0.00    +0.261 C 
ATOM      4  C   UNL     1       2.548   3.155  27.058  0.00  0.00    +0.185 C 
ATOM      5  C   UNL     1       3.255   3.388  25.747  0.00  0.00    +0.181 C 
ATOM      6  C   UNL     1       4.792   3.330  25.981  0.00  0.00    +0.221 C 
ENDROOT
BRANCH   5   7
ATOM      7  O   UNL     1       2.674   2.367  24.951  0.00  0.00    -0.386 OA
ATOM      8  H   UNL     1       1.913   2.733  24.466  0.00  0.00    +0.210 HD
ENDBRANCH   5   7
BRANCH   4   9
ATOM      9  O   UNL     1       2.746   4.303  27.880  0.00  0.00    -0.386 OA
ATOM     10  H   UNL     1       1.871   4.744  27.931  0.00  0.00    +0.210 HD
ENDBRANCH   4   9
BRANCH   3  11
ATOM     11  C   UNL     1       2.587   1.819  29.116  0.00  0.00    +0.337 C 
ATOM     12  O   UNL     1       3.294   1.540  30.075  0.00  0.00    -0.248 OA
BRANCH  11  13
ATOM     13  O   UNL     1       1.275   2.136  29.243  0.00  0.00    -0.479 OA
ATOM     14  H   UNL     1       1.191   3.103  29.388  0.00  0.00    +0.295 HD
ENDBRANCH  11  13
ENDBRANCH   3  11
BRANCH   6  15
ATOM     15  O   UNL     1       5.444   4.145  25.016  0.00  0.00    -0.337 OA
BRANCH  15  16
ATOM     16  C   UNL     1       6.619   3.732  24.334  0.00  0.00    +0.282 C 
ATOM     17  O   UNL     1       7.757   4.573  24.369  0.00  0.00    -0.341 OA
ATOM     18  C   UNL     1       7.537   5.890  23.867  0.00  0.00    +0.178 C 
ATOM     19  C   UNL     1       6.853   5.948  22.471  0.00  0.00    +0.177 C 
ATOM     20  C   UNL     1       5.890   4.784  22.157  0.00  0.00    +0.179 C 
ATOM     21  C   UNL     1       6.197   3.469  22.886  0.00  0.00    +0.201 C 
BRANCH  21  22
ATOM     22  O   UNL     1       5.034   2.617  22.866  0.00  0.00    -0.384 OA
ATOM     23  H   UNL     1       4.816   2.368  23.781  0.00  0.00    +0.210 HD
ENDBRANCH  21  22
BRANCH  20  24
ATOM     24  O   UNL     1       4.540   5.211  22.392  0.00  0.00    -0.386 OA
ATOM     25  H   UNL     1       4.239   4.773  23.214  0.00  0.00    +0.210 HD
ENDBRANCH  20  24
BRANCH  19  26
ATOM     26  O   UNL     1       7.800   6.029  21.397  0.00  0.00    -0.386 OA
ATOM     27  H   UNL     1       7.530   6.800  20.854  0.00  0.00    +0.210 HD
ENDBRANCH  19  26
BRANCH  18  28
ATOM     28  C   UNL     1       8.883   6.649  23.928  0.00  0.00    +0.190 C 
BRANCH  28  29
ATOM     29  O   UNL     1       9.904   5.949  23.223  0.00  0.00    -0.392 OA
ATOM     30  H   UNL     1      10.470   5.528  23.890  0.00  0.00    +0.210 HD
ENDBRANCH  28  29
ENDBRANCH  18  28
ENDBRANCH  15  16
ENDBRANCH   6  15
BRANCH   1  31
ATOM     31  O   UNL     1       5.154   0.859  25.245  0.00  0.00    -0.453 OA
BRANCH  31  42
ATOM     32  C   UNL     1       7.116  -0.685  24.925  0.00  0.00    +0.181 A 
ATOM     33  O   UNL     1       7.721  -1.889  25.328  0.00  0.00    -0.451 OA
ATOM     34  C   UNL     1       7.065  -2.864  25.994  0.00  0.00    +0.147 A 
ATOM     35  C   UNL     1       5.703  -2.813  26.173  0.00  0.00    +0.109 A 
ATOM     36  C   UNL     1       5.036  -3.933  26.700  0.00  0.00    +0.135 A 
ATOM     37  C   UNL     1       5.737  -5.048  27.165  0.00  0.00    +0.091 A 
ATOM     38  C   UNL     1       7.125  -5.025  27.090  0.00  0.00    +0.124 A 
ATOM     39  C   UNL     1       5.051  -1.558  25.844  0.00  0.00    +0.238 A 
ATOM     40  O   UNL     1       3.846  -1.510  26.075  0.00  0.00    -0.283 OA
ATOM     41  C   UNL     1       7.788  -3.946  26.500  0.00  0.00    +0.092 A 
ATOM     42  C   UNL     1       5.815  -0.382  25.247  0.00  0.00    +0.214 A 
BRANCH  32  44
ATOM     43  C   UNL     1       8.237  -0.228  22.702  0.00  0.00    +0.015 A 
ATOM     44  C   UNL     1       8.172   0.066  24.099  0.00  0.00    +0.025 A 
ATOM     45  C   UNL     1       8.945   1.164  24.502  0.00  0.00    +0.060 A 
ATOM     46  C   UNL     1       9.718   1.905  23.585  0.00  0.00    +0.159 A 
ATOM     47  C   UNL     1       9.743   1.571  22.229  0.00  0.00    +0.158 A 
ATOM     48  C   UNL     1       9.005   0.500  21.778  0.00  0.00    +0.050 A 
BRANCH  47  49
ATOM     49  O   UNL     1      10.479   2.354  21.390  0.00  0.00    -0.503 OA
ATOM     50  H   UNL     1      10.415   3.277  21.693  0.00  0.00    +0.292 HD
ENDBRANCH  47  49
BRANCH  46  51
ATOM     51  O   UNL     1      10.427   2.984  24.005  0.00  0.00    -0.503 OA
ATOM     52  H   UNL     1      11.328   2.851  23.651  0.00  0.00    +0.292 HD
ENDBRANCH  46  51
ENDBRANCH  32  44
BRANCH  38  53
ATOM     53  O   UNL     1       7.873  -6.056  27.576  0.00  0.00    -0.507 OA
ATOM     54  H   UNL     1       7.283  -6.721  27.963  0.00  0.00    +0.292 HD
ENDBRANCH  38  53
BRANCH  36  55
ATOM     55  O   UNL     1       3.668  -4.030  26.787  0.00  0.00    -0.506 OA
ATOM     56  H   UNL     1       3.462  -4.597  27.564  0.00  0.00    +0.292 HD
ENDBRANCH  36  55
ENDBRANCH  31  42
ENDBRANCH   1  31
TORSDOF 18
ENDMDL
MODEL 4
REMARK VINA RESULT:      -6.9      3.228      7.022
REMARK  Name = 
REMARK  18 active torsions:
REMARK  status: ('A' for Active; 'I' for Inactive)
REMARK    1  A    between atoms: C_3  and  O_51
REMARK    2  A    between atoms: C_4  and  O_50
REMARK    3  A    between atoms: C_6  and  C_7
REMARK    4  A    between atoms: C_8  and  O_20
REMARK    5  A    between atoms: C_12  and  O_19
REMARK    6  A    between atoms: C_14  and  O_18
REMARK    7  A    between atoms: O_20  and  C_21
REMARK    8  A    between atoms: C_23  and  O_35
REMARK    9  A    between atoms: C_24  and  O_34
REMARK   10  A    between atoms: C_26  and  O_33
REMARK   11  A    between atoms: C_28  and  C_30
REMARK   12  A    between atoms: C_30  and  O_32
REMARK   13  A    between atoms: O_35  and  C_36
REMARK   14  A    between atoms: C_38  and  O_49
REMARK   15  A    between atoms: C_39  and  O_48
REMARK   16  A    between atoms: C_41  and  O_47
REMARK   17  A    between atoms: C_43  and  C_45
REMARK   18  A    between atoms: C_45  and  O_46
REMARK                            x       y       z     vdW  Elec       q    Type
REMARK                         _______ _______ _______ _____ _____    ______ ____
ROOT
ATOM      1  C   UNL     1       5.538   1.801  25.377  0.00  0.00    +0.340 C 
ATOM      2  O   UNL     1       6.176   1.919  26.715  0.00  0.00    -0.322 OA
ATOM      3  C   UNL     1       5.332   1.917  27.909  0.00  0.00    +0.261 C 
ATOM      4  C   UNL     1       3.976   2.668  27.839  0.00  0.00    +0.185 C 
ATOM      5  C   UNL     1       3.361   2.401  26.489  0.00  0.00    +0.181 C 
ATOM      6  C   UNL     1       4.376   2.802  25.379  0.00  0.00    +0.221 C 
ENDROOT
BRANCH   5   7
ATOM      7  O   UNL     1       3.038   1.025  26.616  0.00  0.00    -0.386 OA
ATOM      8  H   UNL     1       2.469   0.901  27.396  0.00  0.00    +0.210 HD
ENDBRANCH   5   7
BRANCH   4   9
ATOM      9  O   UNL     1       4.045   4.080  28.025  0.00  0.00    -0.386 OA
ATOM     10  H   UNL     1       3.438   4.463  27.356  0.00  0.00    +0.210 HD
ENDBRANCH   4   9
BRANCH   3  11
ATOM     11  C   UNL     1       6.057   2.514  29.130  0.00  0.00    +0.337 C 
ATOM     12  O   UNL     1       5.513   2.820  30.182  0.00  0.00    -0.248 OA
BRANCH  11  13
ATOM     13  O   UNL     1       7.381   2.704  28.910  0.00  0.00    -0.479 OA
ATOM     14  H   UNL     1       7.891   2.054  29.440  0.00  0.00    +0.295 HD
ENDBRANCH  11  13
ENDBRANCH   3  11
BRANCH   6  15
ATOM     15  O   UNL     1       3.665   3.183  24.210  0.00  0.00    -0.337 OA
BRANCH  15  16
ATOM     16  C   UNL     1       4.288   3.295  22.938  0.00  0.00    +0.282 C 
ATOM     17  O   UNL     1       5.312   4.258  22.765  0.00  0.00    -0.341 OA
ATOM     18  C   UNL     1       4.920   5.598  23.053  0.00  0.00    +0.178 C 
ATOM     19  C   UNL     1       3.609   6.058  22.354  0.00  0.00    +0.177 C 
ATOM     20  C   UNL     1       2.573   4.945  22.091  0.00  0.00    +0.179 C 
ATOM     21  C   UNL     1       3.158   3.535  21.933  0.00  0.00    +0.201 C 
BRANCH  21  22
ATOM     22  O   UNL     1       2.120   2.553  22.126  0.00  0.00    -0.384 OA
ATOM     23  H   UNL     1       1.448   2.671  21.431  0.00  0.00    +0.210 HD
ENDBRANCH  21  22
BRANCH  20  24
ATOM     24  O   UNL     1       1.567   4.984  23.115  0.00  0.00    -0.386 OA
ATOM     25  H   UNL     1       0.820   5.509  22.762  0.00  0.00    +0.210 HD
ENDBRANCH  20  24
BRANCH  19  26
ATOM     26  O   UNL     1       3.854   6.724  21.108  0.00  0.00    -0.386 OA
ATOM     27  H   UNL     1       4.619   6.265  20.700  0.00  0.00    +0.210 HD
ENDBRANCH  19  26
BRANCH  18  28
ATOM     28  C   UNL     1       6.130   6.516  22.763  0.00  0.00    +0.190 C 
BRANCH  28  29
ATOM     29  O   UNL     1       6.748   6.180  21.524  0.00  0.00    -0.392 OA
ATOM     30  H   UNL     1       7.419   6.860  21.349  0.00  0.00    +0.210 HD
ENDBRANCH  28  29
ENDBRANCH  18  28
ENDBRANCH  15  16
ENDBRANCH   6  15
BRANCH   1  31
ATOM     31  O   UNL     1       5.343   0.427  24.931  0.00  0.00    -0.453 OA
BRANCH  31  42
ATOM     32  C   UNL     1       7.695  -0.338  24.457  0.00  0.00    +0.181 A 
ATOM     33  O   UNL     1       8.597  -1.415  24.514  0.00  0.00    -0.451 OA
ATOM     34  C   UNL     1       8.210  -2.701  24.661  0.00  0.00    +0.147 A 
ATOM     35  C   UNL     1       6.885  -3.060  24.591  0.00  0.00    +0.109 A 
ATOM     36  C   UNL     1       6.543  -4.423  24.557  0.00  0.00    +0.135 A 
ATOM     37  C   UNL     1       7.505  -5.422  24.720  0.00  0.00    +0.091 A 
ATOM     38  C   UNL     1       8.825  -5.032  24.916  0.00  0.00    +0.124 A 
ATOM     39  C   UNL     1       5.917  -1.977  24.611  0.00  0.00    +0.238 A 
ATOM     40  O   UNL     1       4.738  -2.321  24.616  0.00  0.00    -0.283 OA
ATOM     41  C   UNL     1       9.180  -3.681  24.877  0.00  0.00    +0.092 A 
ATOM     42  C   UNL     1       6.341  -0.513  24.619  0.00  0.00    +0.214 A 
BRANCH  32  44
ATOM     43  C   UNL     1       9.952   0.801  24.345  0.00  0.00    +0.015 A 
ATOM     44  C   UNL     1       8.540   0.910  24.159  0.00  0.00    +0.025 A 
ATOM     45  C   UNL     1       8.123   2.088  23.522  0.00  0.00    +0.060 A 
ATOM     46  C   UNL     1       9.043   3.073  23.107  0.00  0.00    +0.159 A 
ATOM     47  C   UNL     1      10.415   2.911  23.316  0.00  0.00    +0.158 A 
ATOM     48  C   UNL     1      10.879   1.775  23.939  0.00  0.00    +0.050 A 
BRANCH  47  49
ATOM     49  O   UNL     1      11.252   3.883  22.852  0.00  0.00    -0.503 OA
ATOM     50  H   UNL     1      11.543   3.639  21.956  0.00  0.00    +0.292 HD
ENDBRANCH  47  49
BRANCH  46  51
ATOM     51  O   UNL     1       8.607   4.186  22.462  0.00  0.00    -0.503 OA
ATOM     52  H   UNL     1       8.317   4.794  23.170  0.00  0.00    +0.292 HD
ENDBRANCH  46  51
ENDBRANCH  32  44
BRANCH  38  53
ATOM     53  O   UNL     1       9.805  -5.952  25.137  0.00  0.00    -0.507 OA
ATOM     54  H   UNL     1       9.751  -6.643  24.458  0.00  0.00    +0.292 HD
ENDBRANCH  38  53
BRANCH  36  55
ATOM     55  O   UNL     1       5.263  -4.879  24.350  0.00  0.00    -0.506 OA
ATOM     56  H   UNL     1       4.678  -4.092  24.281  0.00  0.00    +0.292 HD
ENDBRANCH  36  55
ENDBRANCH  31  42
ENDBRANCH   1  31
TORSDOF 18
ENDMDL
MODEL 5
REMARK VINA RESULT:      -6.9      1.989      7.692
REMARK  Name = 
REMARK  18 active torsions:
REMARK  status: ('A' for Active; 'I' for Inactive)
REMARK    1  A    between atoms: C_3  and  O_51
REMARK    2  A    between atoms: C_4  and  O_50
REMARK    3  A    between atoms: C_6  and  C_7
REMARK    4  A    between atoms: C_8  and  O_20
REMARK    5  A    between atoms: C_12  and  O_19
REMARK    6  A    between atoms: C_14  and  O_18
REMARK    7  A    between atoms: O_20  and  C_21
REMARK    8  A    between atoms: C_23  and  O_35
REMARK    9  A    between atoms: C_24  and  O_34
REMARK   10  A    between atoms: C_26  and  O_33
REMARK   11  A    between atoms: C_28  and  C_30
REMARK   12  A    between atoms: C_30  and  O_32
REMARK   13  A    between atoms: O_35  and  C_36
REMARK   14  A    between atoms: C_38  and  O_49
REMARK   15  A    between atoms: C_39  and  O_48
REMARK   16  A    between atoms: C_41  and  O_47
REMARK   17  A    between atoms: C_43  and  C_45
REMARK   18  A    between atoms: C_45  and  O_46
REMARK                            x       y       z     vdW  Elec       q    Type
REMARK                         _______ _______ _______ _____ _____    ______ ____
ROOT
ATOM      1  C   UNL     1       6.715  -1.853  25.095  0.00  0.00    +0.340 C 
ATOM      2  O   UNL     1       7.919  -1.492  24.301  0.00  0.00    -0.322 OA
ATOM      3  C   UNL     1       8.027  -1.959  22.920  0.00  0.00    +0.261 C 
ATOM      4  C   UNL     1       7.522  -3.389  22.596  0.00  0.00    +0.185 C 
ATOM      5  C   UNL     1       6.246  -3.621  23.365  0.00  0.00    +0.181 C 
ATOM      6  C   UNL     1       6.508  -3.357  24.877  0.00  0.00    +0.221 C 
ENDROOT
BRANCH   5   7
ATOM      7  O   UNL     1       5.367  -2.736  22.689  0.00  0.00    -0.386 OA
ATOM      8  H   UNL     1       5.626  -2.683  21.752  0.00  0.00    +0.210 HD
ENDBRANCH   5   7
BRANCH   4   9
ATOM      9  O   UNL     1       8.427  -4.446  22.908  0.00  0.00    -0.386 OA
ATOM     10  H   UNL     1       9.245  -4.250  22.404  0.00  0.00    +0.210 HD
ENDBRANCH   4   9
BRANCH   3  11
ATOM     11  C   UNL     1       9.480  -1.923  22.410  0.00  0.00    +0.337 C 
ATOM     12  O   UNL     1      10.434  -2.425  22.990  0.00  0.00    -0.248 OA
BRANCH  11  13
ATOM     13  O   UNL     1       9.610  -1.236  21.249  0.00  0.00    -0.479 OA
ATOM     14  H   UNL     1       9.002  -1.619  20.580  0.00  0.00    +0.295 HD
ENDBRANCH  11  13
ENDBRANCH   3  11
BRANCH   6  15
ATOM     15  O   UNL     1       5.618  -4.149  25.652  0.00  0.00    -0.337 OA
BRANCH  15  16
ATOM     16  C   UNL     1       5.781  -5.551  25.809  0.00  0.00    +0.282 C 
ATOM     17  O   UNL     1       4.835  -6.418  25.210  0.00  0.00    -0.341 OA
ATOM     18  C   UNL     1       3.487  -6.200  25.622  0.00  0.00    +0.178 C 
ATOM     19  C   UNL     1       3.279  -6.140  27.162  0.00  0.00    +0.177 C 
ATOM     20  C   UNL     1       4.476  -5.599  27.971  0.00  0.00    +0.179 C 
ATOM     21  C   UNL     1       5.850  -5.802  27.318  0.00  0.00    +0.201 C 
BRANCH  21  22
ATOM     22  O   UNL     1       6.811  -4.909  27.916  0.00  0.00    -0.384 OA
ATOM     23  H   UNL     1       7.544  -5.439  28.277  0.00  0.00    +0.210 HD
ENDBRANCH  21  22
BRANCH  20  24
ATOM     24  O   UNL     1       4.246  -4.218  28.289  0.00  0.00    -0.386 OA
ATOM     25  H   UNL     1       3.490  -4.189  28.910  0.00  0.00    +0.210 HD
ENDBRANCH  20  24
BRANCH  19  26
ATOM     26  O   UNL     1       2.919  -7.411  27.719  0.00  0.00    -0.386 OA
ATOM     27  H   UNL     1       3.270  -7.416  28.635  0.00  0.00    +0.210 HD
ENDBRANCH  19  26
BRANCH  18  28
ATOM     28  C   UNL     1       2.603  -7.256  24.919  0.00  0.00    +0.190 C 
BRANCH  28  29
ATOM     29  O   UNL     1       3.086  -8.575  25.156  0.00  0.00    -0.392 OA
ATOM     30  H   UNL     1       3.407  -8.916  24.306  0.00  0.00    +0.210 HD
ENDBRANCH  28  29
ENDBRANCH  18  28
ENDBRANCH  15  16
ENDBRANCH   6  15
BRANCH   1  31
ATOM     31  O   UNL     1       5.607  -0.917  24.956  0.00  0.00    -0.453 OA
BRANCH  31  42
ATOM     32  C   UNL     1       5.969   1.570  25.112  0.00  0.00    +0.181 A 
ATOM     33  O   UNL     1       5.464   2.786  25.607  0.00  0.00    -0.451 OA
ATOM     34  C   UNL     1       4.534   2.862  26.583  0.00  0.00    +0.147 A 
ATOM     35  C   UNL     1       4.141   1.746  27.283  0.00  0.00    +0.109 A 
ATOM     36  C   UNL     1       3.318   1.897  28.412  0.00  0.00    +0.135 A 
ATOM     37  C   UNL     1       2.785   3.138  28.767  0.00  0.00    +0.091 A 
ATOM     38  C   UNL     1       3.094   4.233  27.969  0.00  0.00    +0.124 A 
ATOM     39  C   UNL     1       4.576   0.464  26.757  0.00  0.00    +0.238 A 
ATOM     40  O   UNL     1       4.159  -0.524  27.356  0.00  0.00    -0.283 OA
ATOM     41  C   UNL     1       3.970   4.102  26.890  0.00  0.00    +0.092 A 
ATOM     42  C   UNL     1       5.493   0.355  25.544  0.00  0.00    +0.214 A 
BRANCH  32  44
ATOM     43  C   UNL     1       8.272   2.517  24.661  0.00  0.00    +0.015 A 
ATOM     44  C   UNL     1       7.081   1.943  24.120  0.00  0.00    +0.025 A 
ATOM     45  C   UNL     1       7.162   1.598  22.764  0.00  0.00    +0.060 A 
ATOM     46  C   UNL     1       8.337   1.808  22.012  0.00  0.00    +0.159 A 
ATOM     47  C   UNL     1       9.473   2.375  22.596  0.00  0.00    +0.158 A 
ATOM     48  C   UNL     1       9.448   2.735  23.924  0.00  0.00    +0.050 A 
BRANCH  47  49
ATOM     49  O   UNL     1      10.588   2.513  21.823  0.00  0.00    -0.503 OA
ATOM     50  H   UNL     1      11.310   2.852  22.381  0.00  0.00    +0.292 HD
ENDBRANCH  47  49
BRANCH  46  51
ATOM     51  O   UNL     1       8.392   1.430  20.709  0.00  0.00    -0.503 OA
ATOM     52  H   UNL     1       8.161   0.480  20.710  0.00  0.00    +0.292 HD
ENDBRANCH  46  51
ENDBRANCH  32  44
BRANCH  38  53
ATOM     53  O   UNL     1       2.564   5.463  28.226  0.00  0.00    -0.507 OA
ATOM     54  H   UNL     1       1.862   5.646  27.582  0.00  0.00    +0.292 HD
ENDBRANCH  38  53
BRANCH  36  55
ATOM     55  O   UNL     1       2.987   0.861  29.253  0.00  0.00    -0.506 OA
ATOM     56  H   UNL     1       2.995   0.035  28.720  0.00  0.00    +0.292 HD
ENDBRANCH  36  55
ENDBRANCH  31  42
ENDBRANCH   1  31
TORSDOF 18
ENDMDL
MODEL 6
REMARK VINA RESULT:      -6.9      2.750      6.136
REMARK  Name = 
REMARK  18 active torsions:
REMARK  status: ('A' for Active; 'I' for Inactive)
REMARK    1  A    between atoms: C_3  and  O_51
REMARK    2  A    between atoms: C_4  and  O_50
REMARK    3  A    between atoms: C_6  and  C_7
REMARK    4  A    between atoms: C_8  and  O_20
REMARK    5  A    between atoms: C_12  and  O_19
REMARK    6  A    between atoms: C_14  and  O_18
REMARK    7  A    between atoms: O_20  and  C_21
REMARK    8  A    between atoms: C_23  and  O_35
REMARK    9  A    between atoms: C_24  and  O_34
REMARK   10  A    between atoms: C_26  and  O_33
REMARK   11  A    between atoms: C_28  and  C_30
REMARK   12  A    between atoms: C_30  and  O_32
REMARK   13  A    between atoms: O_35  and  C_36
REMARK   14  A    between atoms: C_38  and  O_49
REMARK   15  A    between atoms: C_39  and  O_48
REMARK   16  A    between atoms: C_41  and  O_47
REMARK   17  A    between atoms: C_43  and  C_45
REMARK   18  A    between atoms: C_45  and  O_46
REMARK                            x       y       z     vdW  Elec       q    Type
REMARK                         _______ _______ _______ _____ _____    ______ ____
ROOT
ATOM      1  C   UNL     1       7.068   1.041  24.061  0.00  0.00    +0.340 C 
ATOM      2  O   UNL     1       7.663   0.055  23.120  0.00  0.00    -0.322 OA
ATOM      3  C   UNL     1       9.110   0.050  22.914  0.00  0.00    +0.261 C 
ATOM      4  C   UNL     1       9.840   1.419  22.865  0.00  0.00    +0.185 C 
ATOM      5  C   UNL     1       9.239   2.309  23.922  0.00  0.00    +0.181 C 
ATOM      6  C   UNL     1       7.700   2.392  23.703  0.00  0.00    +0.221 C 
ENDROOT
BRANCH   5   7
ATOM      7  O   UNL     1       9.699   1.666  25.099  0.00  0.00    -0.386 OA
ATOM      8  H   UNL     1       9.866   0.727  24.906  0.00  0.00    +0.210 HD
ENDBRANCH   5   7
BRANCH   4   9
ATOM      9  O   UNL     1       9.775   2.105  21.616  0.00  0.00    -0.386 OA
ATOM     10  H   UNL     1       8.968   2.662  21.663  0.00  0.00    +0.210 HD
ENDBRANCH   4   9
BRANCH   3  11
ATOM     11  C   UNL     1       9.505  -0.661  21.606  0.00  0.00    +0.337 C 
ATOM     12  O   UNL     1       9.045  -0.397  20.503  0.00  0.00    -0.248 OA
BRANCH  11  13
ATOM     13  O   UNL     1      10.407  -1.654  21.804  0.00  0.00    -0.479 OA
ATOM     14  H   UNL     1      10.670  -1.665  22.749  0.00  0.00    +0.295 HD
ENDBRANCH  11  13
ENDBRANCH   3  11
BRANCH   6  15
ATOM     15  O   UNL     1       7.223   3.638  24.193  0.00  0.00    -0.337 OA
BRANCH  15  16
ATOM     16  C   UNL     1       7.861   4.337  25.252  0.00  0.00    +0.282 C 
ATOM     17  O   UNL     1       7.873   3.755  26.542  0.00  0.00    -0.341 OA
ATOM     18  C   UNL     1       6.581   3.468  27.075  0.00  0.00    +0.178 C 
ATOM     19  C   UNL     1       5.575   4.652  27.016  0.00  0.00    +0.177 C 
ATOM     20  C   UNL     1       5.772   5.630  25.839  0.00  0.00    +0.179 C 
ATOM     21  C   UNL     1       7.206   5.720  25.300  0.00  0.00    +0.201 C 
BRANCH  21  22
ATOM     22  O   UNL     1       7.194   6.299  23.979  0.00  0.00    -0.384 OA
ATOM     23  H   UNL     1       8.043   6.753  23.832  0.00  0.00    +0.210 HD
ENDBRANCH  21  22
BRANCH  20  24
ATOM     24  O   UNL     1       4.839   5.309  24.797  0.00  0.00    -0.386 OA
ATOM     25  H   UNL     1       5.045   4.400  24.497  0.00  0.00    +0.210 HD
ENDBRANCH  20  24
BRANCH  19  26
ATOM     26  O   UNL     1       5.563   5.425  28.224  0.00  0.00    -0.386 OA
ATOM     27  H   UNL     1       4.738   5.955  28.199  0.00  0.00    +0.210 HD
ENDBRANCH  19  26
BRANCH  18  28
ATOM     28  C   UNL     1       6.776   2.891  28.497  0.00  0.00    +0.190 C 
BRANCH  28  29
ATOM     29  O   UNL     1       7.526   1.680  28.466  0.00  0.00    -0.392 OA
ATOM     30  H   UNL     1       8.461   1.925  28.556  0.00  0.00    +0.210 HD
ENDBRANCH  28  29
ENDBRANCH  18  28
ENDBRANCH  15  16
ENDBRANCH   6  15
BRANCH   1  31
ATOM     31  O   UNL     1       7.012   0.584  25.444  0.00  0.00    -0.453 OA
BRANCH  31  42
ATOM     32  C   UNL     1       6.342  -1.623  26.454  0.00  0.00    +0.181 A 
ATOM     33  O   UNL     1       5.433  -2.282  27.302  0.00  0.00    -0.451 OA
ATOM     34  C   UNL     1       4.246  -1.754  27.671  0.00  0.00    +0.147 A 
ATOM     35  C   UNL     1       3.769  -0.599  27.099  0.00  0.00    +0.109 A 
ATOM     36  C   UNL     1       2.452  -0.190  27.370  0.00  0.00    +0.135 A 
ATOM     37  C   UNL     1       1.658  -0.857  28.305  0.00  0.00    +0.091 A 
ATOM     38  C   UNL     1       2.206  -1.949  28.967  0.00  0.00    +0.124 A 
ATOM     39  C   UNL     1       4.703   0.153  26.280  0.00  0.00    +0.238 A 
ATOM     40  O   UNL     1       4.280   1.216  25.833  0.00  0.00    -0.283 OA
ATOM     41  C   UNL     1       3.488  -2.404  28.647  0.00  0.00    +0.092 A 
ATOM     42  C   UNL     1       6.113  -0.349  25.993  0.00  0.00    +0.214 A 
BRANCH  32  44
ATOM     43  C   UNL     1       7.396  -3.891  26.843  0.00  0.00    +0.015 A 
ATOM     44  C   UNL     1       7.482  -2.619  26.197  0.00  0.00    +0.025 A 
ATOM     45  C   UNL     1       8.499  -2.520  25.236  0.00  0.00    +0.060 A 
ATOM     46  C   UNL     1       9.356  -3.601  24.946  0.00  0.00    +0.159 A 
ATOM     47  C   UNL     1       9.225  -4.822  25.612  0.00  0.00    +0.158 A 
ATOM     48  C   UNL     1       8.245  -4.975  26.567  0.00  0.00    +0.050 A 
BRANCH  47  49
ATOM     49  O   UNL     1      10.060  -5.840  25.255  0.00  0.00    -0.503 OA
ATOM     50  H   UNL     1      10.479  -6.193  26.059  0.00  0.00    +0.292 HD
ENDBRANCH  47  49
BRANCH  46  51
ATOM     51  O   UNL     1      10.308  -3.480  23.985  0.00  0.00    -0.503 OA
ATOM     52  H   UNL     1      11.017  -2.945  24.394  0.00  0.00    +0.292 HD
ENDBRANCH  46  51
ENDBRANCH  32  44
BRANCH  38  53
ATOM     53  O   UNL     1       1.507  -2.612  29.931  0.00  0.00    -0.507 OA
ATOM     54  H   UNL     1       0.724  -3.022  29.530  0.00  0.00    +0.292 HD
ENDBRANCH  38  53
BRANCH  36  55
ATOM     55  O   UNL     1       1.841   0.869  26.740  0.00  0.00    -0.506 OA
ATOM     56  H   UNL     1       1.395   1.405  27.433  0.00  0.00    +0.292 HD
ENDBRANCH  36  55
ENDBRANCH  31  42
ENDBRANCH   1  31
TORSDOF 18
ENDMDL
MODEL 7
REMARK VINA RESULT:      -6.9      2.042      7.543
REMARK  Name = 
REMARK  18 active torsions:
REMARK  status: ('A' for Active; 'I' for Inactive)
REMARK    1  A    between atoms: C_3  and  O_51
REMARK    2  A    between atoms: C_4  and  O_50
REMARK    3  A    between atoms: C_6  and  C_7
REMARK    4  A    between atoms: C_8  and  O_20
REMARK    5  A    between atoms: C_12  and  O_19
REMARK    6  A    between atoms: C_14  and  O_18
REMARK    7  A    between atoms: O_20  and  C_21
REMARK    8  A    between atoms: C_23  and  O_35
REMARK    9  A    between atoms: C_24  and  O_34
REMARK   10  A    between atoms: C_26  and  O_33
REMARK   11  A    between atoms: C_28  and  C_30
REMARK   12  A    between atoms: C_30  and  O_32
REMARK   13  A    between atoms: O_35  and  C_36
REMARK   14  A    between atoms: C_38  and  O_49
REMARK   15  A    between atoms: C_39  and  O_48
REMARK   16  A    between atoms: C_41  and  O_47
REMARK   17  A    between atoms: C_43  and  C_45
REMARK   18  A    between atoms: C_45  and  O_46
REMARK                            x       y       z     vdW  Elec       q    Type
REMARK                         _______ _______ _______ _____ _____    ______ ____
ROOT
ATOM      1  C   UNL     1       5.957  -2.748  24.910  0.00  0.00    +0.340 C 
ATOM      2  O   UNL     1       7.417  -2.481  24.821  0.00  0.00    -0.322 OA
ATOM      3  C   UNL     1       8.056  -2.444  23.507  0.00  0.00    +0.261 C 
ATOM      4  C   UNL     1       7.583  -3.469  22.442  0.00  0.00    +0.185 C 
ATOM      5  C   UNL     1       6.083  -3.591  22.541  0.00  0.00    +0.181 C 
ATOM      6  C   UNL     1       5.699  -3.958  24.004  0.00  0.00    +0.221 C 
ENDROOT
BRANCH   5   7
ATOM      7  O   UNL     1       5.685  -2.318  22.059  0.00  0.00    -0.386 OA
ATOM      8  H   UNL     1       5.253  -1.824  22.778  0.00  0.00    +0.210 HD
ENDBRANCH   5   7
BRANCH   4   9
ATOM      9  O   UNL     1       8.143  -4.775  22.555  0.00  0.00    -0.386 OA
ATOM     10  H   UNL     1       9.066  -4.695  22.232  0.00  0.00    +0.210 HD
ENDBRANCH   4   9
BRANCH   3  11
ATOM     11  C   UNL     1       9.581  -2.638  23.599  0.00  0.00    +0.337 C 
ATOM     12  O   UNL     1      10.406  -1.958  23.004  0.00  0.00    -0.248 OA
BRANCH  11  13
ATOM     13  O   UNL     1       9.928  -3.679  24.395  0.00  0.00    -0.479 OA
ATOM     14  H   UNL     1       9.817  -4.516  23.894  0.00  0.00    +0.295 HD
ENDBRANCH  11  13
ENDBRANCH   3  11
BRANCH   6  15
ATOM     15  O   UNL     1       4.481  -4.690  23.998  0.00  0.00    -0.337 OA
BRANCH  15  16
ATOM     16  C   UNL     1       3.505  -4.559  25.022  0.00  0.00    +0.282 C 
ATOM     17  O   UNL     1       3.880  -4.834  26.359  0.00  0.00    -0.341 OA
ATOM     18  C   UNL     1       4.398  -6.146  26.571  0.00  0.00    +0.178 C 
ATOM     19  C   UNL     1       3.517  -7.294  26.000  0.00  0.00    +0.177 C 
ATOM     20  C   UNL     1       2.696  -6.935  24.744  0.00  0.00    +0.179 C 
ATOM     21  C   UNL     1       2.332  -5.451  24.605  0.00  0.00    +0.201 C 
BRANCH  21  22
ATOM     22  O   UNL     1       1.966  -5.165  23.240  0.00  0.00    -0.384 OA
ATOM     23  H   UNL     1       2.767  -4.906  22.751  0.00  0.00    +0.210 HD
ENDBRANCH  21  22
BRANCH  20  24
ATOM     24  O   UNL     1       3.379  -7.420  23.578  0.00  0.00    -0.386 OA
ATOM     25  H   UNL     1       3.217  -6.773  22.862  0.00  0.00    +0.210 HD
ENDBRANCH  20  24
BRANCH  19  26
ATOM     26  O   UNL     1       2.609  -7.828  26.973  0.00  0.00    -0.386 OA
ATOM     27  H   UNL     1       3.075  -8.582  27.395  0.00  0.00    +0.210 HD
ENDBRANCH  19  26
BRANCH  18  28
ATOM     28  C   UNL     1       4.703  -6.293  28.080  0.00  0.00    +0.190 C 
BRANCH  28  29
ATOM     29  O   UNL     1       5.251  -7.576  28.374  0.00  0.00    -0.392 OA
ATOM     30  H   UNL     1       5.885  -7.781  27.668  0.00  0.00    +0.210 HD
ENDBRANCH  28  29
ENDBRANCH  18  28
ENDBRANCH  15  16
ENDBRANCH   6  15
BRANCH   1  31
ATOM     31  O   UNL     1       5.127  -1.553  24.818  0.00  0.00    -0.453 OA
BRANCH  31  42
ATOM     32  C   UNL     1       6.047   0.757  25.218  0.00  0.00    +0.181 A 
ATOM     33  O   UNL     1       5.822   2.005  25.826  0.00  0.00    -0.451 OA
ATOM     34  C   UNL     1       4.906   2.202  26.799  0.00  0.00    +0.147 A 
ATOM     35  C   UNL     1       4.247   1.147  27.385  0.00  0.00    +0.109 A 
ATOM     36  C   UNL     1       3.449   1.379  28.519  0.00  0.00    +0.135 A 
ATOM     37  C   UNL     1       3.207   2.671  28.990  0.00  0.00    +0.091 A 
ATOM     38  C   UNL     1       3.782   3.735  28.304  0.00  0.00    +0.124 A 
ATOM     39  C   UNL     1       4.390  -0.146  26.739  0.00  0.00    +0.238 A 
ATOM     40  O   UNL     1       3.741  -1.061  27.237  0.00  0.00    -0.283 OA
ATOM     41  C   UNL     1       4.635   3.505  27.222  0.00  0.00    +0.092 A 
ATOM     42  C   UNL     1       5.292  -0.350  25.527  0.00  0.00    +0.214 A 
BRANCH  32  44
ATOM     43  C   UNL     1       6.952   1.241  22.905  0.00  0.00    +0.015 A 
ATOM     44  C   UNL     1       7.243   0.953  24.274  0.00  0.00    +0.025 A 
ATOM     45  C   UNL     1       8.592   1.093  24.628  0.00  0.00    +0.060 A 
ATOM     46  C   UNL     1       9.569   1.490  23.690  0.00  0.00    +0.159 A 
ATOM     47  C   UNL     1       9.225   1.759  22.363  0.00  0.00    +0.158 A 
ATOM     48  C   UNL     1       7.915   1.634  21.960  0.00  0.00    +0.050 A 
BRANCH  47  49
ATOM     49  O   UNL     1      10.211   2.177  21.519  0.00  0.00    -0.503 OA
ATOM     50  H   UNL     1      11.072   2.012  21.943  0.00  0.00    +0.292 HD
ENDBRANCH  47  49
BRANCH  46  51
ATOM     51  O   UNL     1      10.861   1.649  24.076  0.00  0.00    -0.503 OA
ATOM     52  H   UNL     1      11.247   2.266  23.423  0.00  0.00    +0.292 HD
ENDBRANCH  46  51
ENDBRANCH  32  44
BRANCH  38  53
ATOM     53  O   UNL     1       3.542   5.024  28.677  0.00  0.00    -0.507 OA
ATOM     54  H   UNL     1       2.657   5.080  29.072  0.00  0.00    +0.292 HD
ENDBRANCH  38  53
BRANCH  36  55
ATOM     55  O   UNL     1       2.865   0.374  29.253  0.00  0.00    -0.506 OA
ATOM     56  H   UNL     1       2.938   0.622  30.201  0.00  0.00    +0.292 HD
ENDBRANCH  36  55
ENDBRANCH  31  42
ENDBRANCH   1  31
TORSDOF 18
ENDMDL
MODEL 8
REMARK VINA RESULT:      -6.8      2.057      8.508
REMARK  Name = 
REMARK  18 active torsions:
REMARK  status: ('A' for Active; 'I' for Inactive)
REMARK    1  A    between atoms: C_3  and  O_51
REMARK    2  A    between atoms: C_4  and  O_50
REMARK    3  A    between atoms: C_6  and  C_7
REMARK    4  A    between atoms: C_8  and  O_20
REMARK    5  A    between atoms: C_12  and  O_19
REMARK    6  A    between atoms: C_14  and  O_18
REMARK    7  A    between atoms: O_20  and  C_21
REMARK    8  A    between atoms: C_23  and  O_35
REMARK    9  A    between atoms: C_24  and  O_34
REMARK   10  A    between atoms: C_26  and  O_33
REMARK   11  A    between atoms: C_28  and  C_30
REMARK   12  A    between atoms: C_30  and  O_32
REMARK   13  A    between atoms: O_35  and  C_36
REMARK   14  A    between atoms: C_38  and  O_49
REMARK   15  A    between atoms: C_39  and  O_48
REMARK   16  A    between atoms: C_41  and  O_47
REMARK   17  A    between atoms: C_43  and  C_45
REMARK   18  A    between atoms: C_45  and  O_46
REMARK                            x       y       z     vdW  Elec       q    Type
REMARK                         _______ _______ _______ _____ _____    ______ ____
ROOT
ATOM      1  C   UNL     1       4.443  -1.730  26.333  0.00  0.00    +0.340 C 
ATOM      2  O   UNL     1       3.378  -0.691  26.326  0.00  0.00    -0.322 OA
ATOM      3  C   UNL     1       2.712  -0.347  27.581  0.00  0.00    +0.261 C 
ATOM      4  C   UNL     1       2.401  -1.496  28.576  0.00  0.00    +0.185 C 
ATOM      5  C   UNL     1       3.579  -2.437  28.589  0.00  0.00    +0.181 C 
ATOM      6  C   UNL     1       3.871  -2.906  27.134  0.00  0.00    +0.221 C 
ENDROOT
BRANCH   5   7
ATOM      7  O   UNL     1       4.554  -1.626  29.225  0.00  0.00    -0.386 OA
ATOM      8  H   UNL     1       5.187  -2.197  29.696  0.00  0.00    +0.210 HD
ENDBRANCH   5   7
BRANCH   4   9
ATOM      9  O   UNL     1       1.228  -2.255  28.289  0.00  0.00    -0.386 OA
ATOM     10  H   UNL     1       1.550  -3.130  27.983  0.00  0.00    +0.210 HD
ENDBRANCH   4   9
BRANCH   3  11
ATOM     11  C   UNL     1       1.361   0.355  27.344  0.00  0.00    +0.337 C 
ATOM     12  O   UNL     1       0.911   1.253  28.042  0.00  0.00    -0.248 OA
BRANCH  11  13
ATOM     13  O   UNL     1       0.687  -0.155  26.284  0.00  0.00    -0.479 OA
ATOM     14  H   UNL     1       0.950  -1.092  26.157  0.00  0.00    +0.295 HD
ENDBRANCH  11  13
ENDBRANCH   3  11
BRANCH   6  15
ATOM     15  O   UNL     1       4.466  -4.196  27.169  0.00  0.00    -0.337 OA
BRANCH  15  16
ATOM     16  C   UNL     1       5.264  -4.700  26.108  0.00  0.00    +0.282 C 
ATOM     17  O   UNL     1       4.721  -4.724  24.801  0.00  0.00    -0.341 OA
ATOM     18  C   UNL     1       3.510  -5.468  24.677  0.00  0.00    +0.178 C 
ATOM     19  C   UNL     1       3.561  -6.901  25.278  0.00  0.00    +0.177 C 
ATOM     20  C   UNL     1       4.507  -7.079  26.484  0.00  0.00    +0.179 C 
ATOM     21  C   UNL     1       5.693  -6.107  26.532  0.00  0.00    +0.201 C 
BRANCH  21  22
ATOM     22  O   UNL     1       6.238  -6.068  27.866  0.00  0.00    -0.384 OA
ATOM     23  H   UNL     1       5.818  -6.770  28.393  0.00  0.00    +0.210 HD
ENDBRANCH  21  22
BRANCH  20  24
ATOM     24  O   UNL     1       3.740  -7.031  27.697  0.00  0.00    -0.386 OA
ATOM     25  H   UNL     1       4.016  -6.225  28.178  0.00  0.00    +0.210 HD
ENDBRANCH  20  24
BRANCH  19  26
ATOM     26  O   UNL     1       3.910  -7.894  24.304  0.00  0.00    -0.386 OA
ATOM     27  H   UNL     1       4.077  -8.721  24.806  0.00  0.00    +0.210 HD
ENDBRANCH  19  26
BRANCH  18  28
ATOM     28  C   UNL     1       3.088  -5.436  23.189  0.00  0.00    +0.190 C 
BRANCH  28  29
ATOM     29  O   UNL     1       4.085  -6.020  22.356  0.00  0.00    -0.392 OA
ATOM     30  H   UNL     1       3.820  -6.941  22.201  0.00  0.00    +0.210 HD
ENDBRANCH  28  29
ENDBRANCH  18  28
ENDBRANCH  15  16
ENDBRANCH   6  15
BRANCH   1  31
ATOM     31  O   UNL     1       5.777  -1.213  26.609  0.00  0.00    -0.453 OA
BRANCH  31  42
ATOM     32  C   UNL     1       6.990  -0.626  24.482  0.00  0.00    +0.181 A 
ATOM     33  O   UNL     1       7.447   0.419  23.659  0.00  0.00    -0.451 OA
ATOM     34  C   UNL     1       7.568   1.697  24.079  0.00  0.00    +0.147 A 
ATOM     35  C   UNL     1       7.413   2.031  25.403  0.00  0.00    +0.109 A 
ATOM     36  C   UNL     1       7.735   3.332  25.827  0.00  0.00    +0.135 A 
ATOM     37  C   UNL     1       8.086   4.331  24.916  0.00  0.00    +0.091 A 
ATOM     38  C   UNL     1       8.112   4.003  23.565  0.00  0.00    +0.124 A 
ATOM     39  C   UNL     1       6.868   1.003  26.272  0.00  0.00    +0.238 A 
ATOM     40  O   UNL     1       6.675   1.341  27.437  0.00  0.00    -0.283 OA
ATOM     41  C   UNL     1       7.865   2.693  23.147  0.00  0.00    +0.092 A 
ATOM     42  C   UNL     1       6.563  -0.404  25.769  0.00  0.00    +0.214 A 
BRANCH  32  44
ATOM     43  C   UNL     1       7.969  -2.941  24.184  0.00  0.00    +0.015 A 
ATOM     44  C   UNL     1       7.130  -1.912  23.654  0.00  0.00    +0.025 A 
ATOM     45  C   UNL     1       6.370  -2.294  22.540  0.00  0.00    +0.060 A 
ATOM     46  C   UNL     1       6.443  -3.595  22.000  0.00  0.00    +0.159 A 
ATOM     47  C   UNL     1       7.282  -4.560  22.561  0.00  0.00    +0.158 A 
ATOM     48  C   UNL     1       8.053  -4.239  23.656  0.00  0.00    +0.050 A 
BRANCH  47  49
ATOM     49  O   UNL     1       7.274  -5.811  22.016  0.00  0.00    -0.503 OA
ATOM     50  H   UNL     1       6.910  -6.431  22.672  0.00  0.00    +0.292 HD
ENDBRANCH  47  49
BRANCH  46  51
ATOM     51  O   UNL     1       5.667  -3.940  20.941  0.00  0.00    -0.503 OA
ATOM     52  H   UNL     1       5.009  -3.221  20.862  0.00  0.00    +0.292 HD
ENDBRANCH  46  51
ENDBRANCH  32  44
BRANCH  38  53
ATOM     53  O   UNL     1       8.392   4.942  22.618  0.00  0.00    -0.507 OA
ATOM     54  H   UNL     1       7.915   5.760  22.832  0.00  0.00    +0.292 HD
ENDBRANCH  38  53
BRANCH  36  55
ATOM     55  O   UNL     1       7.746   3.720  27.146  0.00  0.00    -0.506 OA
ATOM     56  H   UNL     1       8.686   3.825  27.414  0.00  0.00    +0.292 HD
ENDBRANCH  36  55
ENDBRANCH  31  42
ENDBRANCH   1  31
TORSDOF 18
ENDMDL
MODEL 9
REMARK VINA RESULT:      -6.8      2.383      6.186
REMARK  Name = 
REMARK  18 active torsions:
REMARK  status: ('A' for Active; 'I' for Inactive)
REMARK    1  A    between atoms: C_3  and  O_51
REMARK    2  A    between atoms: C_4  and  O_50
REMARK    3  A    between atoms: C_6  and  C_7
REMARK    4  A    between atoms: C_8  and  O_20
REMARK    5  A    between atoms: C_12  and  O_19
REMARK    6  A    between atoms: C_14  and  O_18
REMARK    7  A    between atoms: O_20  and  C_21
REMARK    8  A    between atoms: C_23  and  O_35
REMARK    9  A    between atoms: C_24  and  O_34
REMARK   10  A    between atoms: C_26  and  O_33
REMARK   11  A    between atoms: C_28  and  C_30
REMARK   12  A    between atoms: C_30  and  O_32
REMARK   13  A    between atoms: O_35  and  C_36
REMARK   14  A    between atoms: C_38  and  O_49
REMARK   15  A    between atoms: C_39  and  O_48
REMARK   16  A    between atoms: C_41  and  O_47
REMARK   17  A    between atoms: C_43  and  C_45
REMARK   18  A    between atoms: C_45  and  O_46
REMARK                            x       y       z     vdW  Elec       q    Type
REMARK                         _______ _______ _______ _____ _____    ______ ____
ROOT
ATOM      1  C   UNL     1       7.073   0.850  26.724  0.00  0.00    +0.340 C 
ATOM      2  O   UNL     1       7.318   1.242  28.137  0.00  0.00    -0.322 OA
ATOM      3  C   UNL     1       6.594   2.384  28.695  0.00  0.00    +0.261 C 
ATOM      4  C   UNL     1       6.363   3.614  27.778  0.00  0.00    +0.185 C 
ATOM      5  C   UNL     1       6.019   3.113  26.399  0.00  0.00    +0.181 C 
ATOM      6  C   UNL     1       7.141   2.150  25.913  0.00  0.00    +0.221 C 
ENDROOT
BRANCH   5   7
ATOM      7  O   UNL     1       4.735   2.557  26.634  0.00  0.00    -0.386 OA
ATOM      8  H   UNL     1       4.567   1.852  25.984  0.00  0.00    +0.210 HD
ENDBRANCH   5   7
BRANCH   4   9
ATOM      9  O   UNL     1       7.466   4.510  27.663  0.00  0.00    -0.386 OA
ATOM     10  H   UNL     1       7.071   5.403  27.565  0.00  0.00    +0.210 HD
ENDBRANCH   4   9
BRANCH   3  11
ATOM     11  C   UNL     1       7.283   2.946  29.953  0.00  0.00    +0.337 C 
ATOM     12  O   UNL     1       8.272   2.458  30.482  0.00  0.00    -0.248 OA
BRANCH  11  13
ATOM     13  O   UNL     1       6.652   4.038  30.450  0.00  0.00    -0.479 OA
ATOM     14  H   UNL     1       5.723   3.804  30.660  0.00  0.00    +0.295 HD
ENDBRANCH  11  13
ENDBRANCH   3  11
BRANCH   6  15
ATOM     15  O   UNL     1       7.209   2.188  24.494  0.00  0.00    -0.337 OA
BRANCH  15  16
ATOM     16  C   UNL     1       8.373   2.607  23.795  0.00  0.00    +0.282 C 
ATOM     17  O   UNL     1       8.971   3.840  24.148  0.00  0.00    -0.341 OA
ATOM     18  C   UNL     1       8.107   4.970  24.044  0.00  0.00    +0.178 C 
ATOM     19  C   UNL     1       7.355   5.092  22.688  0.00  0.00    +0.177 C 
ATOM     20  C   UNL     1       7.038   3.756  21.985  0.00  0.00    +0.179 C 
ATOM     21  C   UNL     1       7.998   2.604  22.310  0.00  0.00    +0.201 C 
BRANCH  21  22
ATOM     22  O   UNL     1       7.384   1.345  21.967  0.00  0.00    -0.384 OA
ATOM     23  H   UNL     1       7.486   1.201  21.009  0.00  0.00    +0.210 HD
ENDBRANCH  21  22
BRANCH  20  24
ATOM     24  O   UNL     1       5.675   3.393  22.250  0.00  0.00    -0.386 OA
ATOM     25  H   UNL     1       5.627   3.128  23.191  0.00  0.00    +0.210 HD
ENDBRANCH  20  24
BRANCH  19  26
ATOM     26  O   UNL     1       8.048   5.923  21.747  0.00  0.00    -0.386 OA
ATOM     27  H   UNL     1       8.738   5.357  21.341  0.00  0.00    +0.210 HD
ENDBRANCH  19  26
BRANCH  18  28
ATOM     28  C   UNL     1       8.929   6.227  24.411  0.00  0.00    +0.190 C 
BRANCH  28  29
ATOM     29  O   UNL     1      10.053   6.380  23.549  0.00  0.00    -0.392 OA
ATOM     30  H   UNL     1       9.800   7.022  22.866  0.00  0.00    +0.210 HD
ENDBRANCH  28  29
ENDBRANCH  18  28
ENDBRANCH  15  16
ENDBRANCH   6  15
BRANCH   1  31
ATOM     31  O   UNL     1       5.968  -0.085  26.550  0.00  0.00    -0.453 OA
BRANCH  31  42
ATOM     32  C   UNL     1       6.954  -2.314  25.918  0.00  0.00    +0.181 A 
ATOM     33  O   UNL     1       7.108  -3.661  26.292  0.00  0.00    -0.451 OA
ATOM     34  C   UNL     1       6.336  -4.267  27.221  0.00  0.00    +0.147 A 
ATOM     35  C   UNL     1       5.227  -3.646  27.742  0.00  0.00    +0.109 A 
ATOM     36  C   UNL     1       4.347  -4.379  28.557  0.00  0.00    +0.135 A 
ATOM     37  C   UNL     1       4.638  -5.686  28.955  0.00  0.00    +0.091 A 
ATOM     38  C   UNL     1       5.830  -6.252  28.518  0.00  0.00    +0.124 A 
ATOM     39  C   UNL     1       5.074  -2.233  27.445  0.00  0.00    +0.238 A 
ATOM     40  O   UNL     1       4.114  -1.680  27.975  0.00  0.00    -0.283 OA
ATOM     41  C   UNL     1       6.672  -5.554  27.648  0.00  0.00    +0.092 A 
ATOM     42  C   UNL     1       6.041  -1.489  26.530  0.00  0.00    +0.214 A 
BRANCH  32  44
ATOM     43  C   UNL     1       7.582  -2.620  23.486  0.00  0.00    +0.015 A 
ATOM     44  C   UNL     1       7.936  -2.079  24.760  0.00  0.00    +0.025 A 
ATOM     45  C   UNL     1       9.041  -1.217  24.743  0.00  0.00    +0.060 A 
ATOM     46  C   UNL     1       9.734  -0.921  23.551  0.00  0.00    +0.159 A 
ATOM     47  C   UNL     1       9.342  -1.480  22.332  0.00  0.00    +0.158 A 
ATOM     48  C   UNL     1       8.265  -2.336  22.292  0.00  0.00    +0.050 A 
BRANCH  47  49
ATOM     49  O   UNL     1      10.030  -1.119  21.211  0.00  0.00    -0.503 OA
ATOM     50  H   UNL     1      10.918  -0.822  21.476  0.00  0.00    +0.292 HD
ENDBRANCH  47  49
BRANCH  46  51
ATOM     51  O   UNL     1      10.779  -0.054  23.566  0.00  0.00    -0.503 OA
ATOM     52  H   UNL     1      10.921   0.191  22.630  0.00  0.00    +0.292 HD
ENDBRANCH  46  51
ENDBRANCH  32  44
BRANCH  38  53
ATOM     53  O   UNL     1       6.203  -7.502  28.912  0.00  0.00    -0.507 OA
ATOM     54  H   UNL     1       6.766  -7.896  28.228  0.00  0.00    +0.292 HD
ENDBRANCH  38  53
BRANCH  36  55
ATOM     55  O   UNL     1       3.146  -3.889  29.010  0.00  0.00    -0.506 OA
ATOM     56  H   UNL     1       3.280  -3.591  29.937  0.00  0.00    +0.292 HD
ENDBRANCH  36  55
ENDBRANCH  31  42
ENDBRANCH   1  31
TORSDOF 18
ENDMDL
