MODEL 1
REMARK VINA RESULT:      -5.9      0.000      0.000
REMARK  Name = 
REMARK  31 active torsions:
REMARK  status: ('A' for Active; 'I' for Inactive)
REMARK    1  A    between atoms: C_1  and  O_2
REMARK    2  A    between atoms: O_2  and  C_3
REMARK    3  A    between atoms: C_5  and  C_11
REMARK    4  A    between atoms: C_7  and  O_10
REMARK    5  A    between atoms: C_8  and  O_9
REMARK    6  A    between atoms: C_12  and  C_13
REMARK    7  A    between atoms: C_13  and  O_15
REMARK    8  A    between atoms: O_15  and  C_16
REMARK    9  A    between atoms: C_16  and  C_17
REMARK   10  A    between atoms: C_19  and  O_84
REMARK   11  A    between atoms: C_21  and  O_83
REMARK   12  A    between atoms: C_23  and  O_82
REMARK   13  A    between atoms: C_25  and  O_28
REMARK   14  A    between atoms: O_28  and  C_29
REMARK   15  A    between atoms: C_31  and  O_81
REMARK   16  A    between atoms: C_33  and  O_80
REMARK   17  A    between atoms: C_35  and  C_78
REMARK   18  A    between atoms: C_38  and  O_40
REMARK   19  A    between atoms: O_40  and  C_41
REMARK   20  A    between atoms: C_42  and  C_70
REMARK   21  A    between atoms: C_46  and  O_53
REMARK   22  A    between atoms: C_48  and  O_52
REMARK   23  A    between atoms: O_53  and  C_54
REMARK   24  A    between atoms: C_56  and  O_69
REMARK   25  A    between atoms: C_58  and  O_68
REMARK   26  A    between atoms: C_60  and  O_67
REMARK   27  A    between atoms: C_62  and  C_65
REMARK   28  A    between atoms: C_65  and  O_66
REMARK   29  A    between atoms: C_72  and  O_77
REMARK   30  A    between atoms: C_73  and  O_76
REMARK   31  A    between atoms: C_78  and  O_79
REMARK                            x       y       z     vdW  Elec       q    Type
REMARK                         _______ _______ _______ _____ _____    ______ ____
ROOT
ATOM      1  C   UNL     1       3.703   2.566  25.722  0.00  0.00    +0.221 C 
ATOM      2  C   UNL     1       4.143   2.878  27.192  0.00  0.00    +0.340 C 
ATOM      3  O   UNL     1       2.951   2.920  28.013  0.00  0.00    -0.331 OA
ATOM      4  C   UNL     1       2.237   4.155  27.773  0.00  0.00    +0.179 C 
ATOM      5  C   UNL     1       1.818   4.265  26.296  0.00  0.00    +0.177 C 
ATOM      6  C   UNL     1       2.957   3.886  25.316  0.00  0.00    +0.180 C 
ENDROOT
BRANCH   5   7
ATOM      7  O   UNL     1       1.409   5.615  26.031  0.00  0.00    -0.386 OA
ATOM      8  H   UNL     1       2.073   6.184  26.468  0.00  0.00    +0.210 HD
ENDBRANCH   5   7
BRANCH   6   9
ATOM      9  O   UNL     1       2.383   3.820  24.002  0.00  0.00    -0.386 OA
ATOM     10  H   UNL     1       2.525   4.698  23.602  0.00  0.00    +0.210 HD
ENDBRANCH   6   9
BRANCH   2  11
ATOM     11  O   UNL     1       5.098   1.964  27.760  0.00  0.00    -0.453 OA
BRANCH  11  12
ATOM     12  C   UNL     1       4.856   0.609  27.485  0.00  0.00    +0.214 A 
ATOM     13  C   UNL     1       3.584  -0.056  27.964  0.00  0.00    +0.238 A 
ATOM     14  O   UNL     1       2.996   0.337  28.964  0.00  0.00    -0.283 OA
ATOM     15  C   UNL     1       3.117  -1.225  27.207  0.00  0.00    +0.109 A 
ATOM     16  C   UNL     1       4.092  -1.952  26.555  0.00  0.00    +0.147 A 
ATOM     17  C   UNL     1       3.753  -3.138  25.881  0.00  0.00    +0.093 A 
ATOM     18  C   UNL     1       2.432  -3.584  25.822  0.00  0.00    +0.131 A 
ATOM     19  C   UNL     1       1.441  -2.835  26.485  0.00  0.00    +0.092 A 
ATOM     20  O   UNL     1       5.412  -1.567  26.587  0.00  0.00    -0.451 OA
ATOM     21  C   UNL     1       1.785  -1.677  27.170  0.00  0.00    +0.135 A 
ATOM     22  C   UNL     1       5.750  -0.231  26.897  0.00  0.00    +0.181 A 
BRANCH  22  23
ATOM     23  C   UNL     1       7.166   0.084  26.461  0.00  0.00    +0.025 A 
ATOM     24  C   UNL     1       8.162  -0.915  26.626  0.00  0.00    +0.015 A 
ATOM     25  C   UNL     1       9.440  -0.809  26.060  0.00  0.00    +0.050 A 
ATOM     26  C   UNL     1       9.760   0.320  25.338  0.00  0.00    +0.158 A 
ATOM     27  C   UNL     1       8.871   1.384  25.294  0.00  0.00    +0.159 A 
ATOM     28  C   UNL     1       7.584   1.279  25.843  0.00  0.00    +0.060 A 
BRANCH  26  29
ATOM     29  O   UNL     1      10.945   0.369  24.664  0.00  0.00    -0.503 OA
ATOM     30  H   UNL     1      11.609   0.617  25.338  0.00  0.00    +0.292 HD
ENDBRANCH  26  29
BRANCH  27  31
ATOM     31  O   UNL     1       9.294   2.530  24.678  0.00  0.00    -0.503 OA
ATOM     32  H   UNL     1       9.108   2.423  23.725  0.00  0.00    +0.292 HD
ENDBRANCH  27  31
ENDBRANCH  22  23
BRANCH  21  33
ATOM     33  O   UNL     1       0.795  -0.949  27.782  0.00  0.00    -0.506 OA
ATOM     34  H   UNL     1       0.472  -1.435  28.567  0.00  0.00    +0.292 HD
ENDBRANCH  21  33
BRANCH  18  35
ATOM     35  O   UNL     1       2.184  -4.745  25.128  0.00  0.00    -0.461 OA
BRANCH  35  36
ATOM     36  C   UNL     1       3.153  -5.813  25.208  0.00  0.00    +0.339 C 
ATOM     37  O   UNL     1       3.166  -6.691  24.073  0.00  0.00    -0.331 OA
ATOM     38  C   UNL     1       2.020  -7.545  23.893  0.00  0.00    +0.179 C 
ATOM     39  C   UNL     1       1.609  -8.320  25.162  0.00  0.00    +0.177 C 
ATOM     40  C   UNL     1       1.613  -7.433  26.413  0.00  0.00    +0.180 C 
ATOM     41  C   UNL     1       2.923  -6.630  26.499  0.00  0.00    +0.214 C 
BRANCH  40  42
ATOM     42  O   UNL     1       0.445  -6.613  26.449  0.00  0.00    -0.386 OA
ATOM     43  H   UNL     1      -0.325  -7.156  26.702  0.00  0.00    +0.210 HD
ENDBRANCH  40  42
BRANCH  41  44
ATOM     44  O   UNL     1       4.029  -7.526  26.717  0.00  0.00    -0.383 OA
ATOM     45  H   UNL     1       4.774  -6.985  27.063  0.00  0.00    +0.210 HD
ENDBRANCH  41  44
BRANCH  39  46
ATOM     46  O   UNL     1       2.563  -9.384  25.352  0.00  0.00    -0.386 OA
ATOM     47  H   UNL     1       2.058 -10.216  25.440  0.00  0.00    +0.210 HD
ENDBRANCH  39  46
BRANCH  38  48
ATOM     48  C   UNL     1       0.857  -6.792  23.231  0.00  0.00    +0.190 C 
BRANCH  48  49
ATOM     49  O   UNL     1       1.340  -5.754  22.375  0.00  0.00    -0.392 OA
ATOM     50  H   UNL     1       0.572  -5.268  22.028  0.00  0.00    +0.210 HD
ENDBRANCH  48  49
ENDBRANCH  38  48
ENDBRANCH  35  36
ENDBRANCH  18  35
ENDBRANCH  11  12
ENDBRANCH   2  11
BRANCH   1  51
ATOM     51  O   UNL     1       4.720   2.276  24.723  0.00  0.00    -0.337 OA
BRANCH  51  54
ATOM     52  C   UNL     1       7.013   3.724  22.280  0.00  0.00    +0.190 C 
ATOM     53  O   UNL     1       6.473   2.770  23.222  0.00  0.00    -0.339 OA
ATOM     54  C   UNL     1       5.443   3.347  24.079  0.00  0.00    +0.282 C 
ATOM     55  C   UNL     1       6.176   4.371  25.006  0.00  0.00    +0.201 C 
ATOM     56  C   UNL     1       6.738   5.479  24.085  0.00  0.00    +0.179 C 
ATOM     57  C   UNL     1       7.666   4.919  23.001  0.00  0.00    +0.178 C 
BRANCH  57  58
ATOM     58  O   UNL     1       7.959   5.996  22.093  0.00  0.00    -0.386 OA
ATOM     59  H   UNL     1       8.895   5.910  21.829  0.00  0.00    +0.210 HD
ENDBRANCH  57  58
BRANCH  55  60
ATOM     60  O   UNL     1       5.378   4.997  26.015  0.00  0.00    -0.384 OA
ATOM     61  H   UNL     1       4.904   5.752  25.641  0.00  0.00    +0.210 HD
ENDBRANCH  55  60
BRANCH  56  62
ATOM     62  O   UNL     1       7.449   6.487  24.822  0.00  0.00    -0.386 OA
ATOM     63  H   UNL     1       6.982   7.324  24.628  0.00  0.00    +0.210 HD
ENDBRANCH  56  62
BRANCH  52  64
ATOM     64  C   UNL     1       8.048   3.039  21.355  0.00  0.00    +0.266 C 
BRANCH  64  65
ATOM     65  O   UNL     1       7.923   1.592  21.329  0.00  0.00    -0.459 OA
BRANCH  65  66
ATOM     66  C   UNL     1       9.019   0.888  21.732  0.00  0.00    +0.332 C 
ATOM     67  O   UNL     1      10.140   1.344  21.885  0.00  0.00    -0.246 OA
BRANCH  66  69
ATOM     68  C   UNL     1       7.498  -0.887  22.539  0.00  0.00    +0.015 C 
ATOM     69  C   UNL     1       8.643  -0.538  21.922  0.00  0.00    +0.092 C 
BRANCH  68  74
ATOM     70  C   UNL     1       7.721  -4.541  23.617  0.00  0.00    +0.166 A 
ATOM     71  C   UNL     1       6.429  -4.977  23.330  0.00  0.00    +0.201 A 
ATOM     72  C   UNL     1       5.489  -4.081  22.820  0.00  0.00    +0.163 A 
ATOM     73  C   UNL     1       5.811  -2.748  22.584  0.00  0.00    +0.057 A 
ATOM     74  C   UNL     1       7.102  -2.279  22.858  0.00  0.00    -0.018 A 
ATOM     75  C   UNL     1       8.051  -3.196  23.353  0.00  0.00    +0.057 A 
BRANCH  70  77
ATOM     76  C   UNL     1       9.144  -5.093  25.442  0.00  0.00    +0.277 C 
ATOM     77  O   UNL     1       8.758  -5.306  24.087  0.00  0.00    -0.491 OA
ENDBRANCH  70  77
BRANCH  72  78
ATOM     78  O   UNL     1       4.243  -4.579  22.538  0.00  0.00    -0.503 OA
ATOM     79  H   UNL     1       3.866  -4.069  21.800  0.00  0.00    +0.292 HD
ENDBRANCH  72  78
BRANCH  71  80
ATOM     80  O   UNL     1       6.031  -6.278  23.484  0.00  0.00    -0.501 OA
ATOM     81  H   UNL     1       5.795  -6.359  24.430  0.00  0.00    +0.292 HD
ENDBRANCH  71  80
ENDBRANCH  68  74
ENDBRANCH  66  69
ENDBRANCH  65  66
ENDBRANCH  64  65
ENDBRANCH  52  64
ENDBRANCH  51  54
ENDBRANCH   1  51
BRANCH   4  82
ATOM     82  C   UNL     1       1.023   4.247  28.716  0.00  0.00    +0.190 C 
BRANCH  82  83
ATOM     83  O   UNL     1       1.420   4.230  30.086  0.00  0.00    -0.392 OA
ATOM     84  H   UNL     1       0.884   4.908  30.536  0.00  0.00    +0.210 HD
ENDBRANCH  82  83
ENDBRANCH   4  82
TORSDOF 30
ENDMDL
MODEL 2
REMARK VINA RESULT:      -5.1      2.373      8.724
REMARK  Name = 
REMARK  31 active torsions:
REMARK  status: ('A' for Active; 'I' for Inactive)
REMARK    1  A    between atoms: C_1  and  O_2
REMARK    2  A    between atoms: O_2  and  C_3
REMARK    3  A    between atoms: C_5  and  C_11
REMARK    4  A    between atoms: C_7  and  O_10
REMARK    5  A    between atoms: C_8  and  O_9
REMARK    6  A    between atoms: C_12  and  C_13
REMARK    7  A    between atoms: C_13  and  O_15
REMARK    8  A    between atoms: O_15  and  C_16
REMARK    9  A    between atoms: C_16  and  C_17
REMARK   10  A    between atoms: C_19  and  O_84
REMARK   11  A    between atoms: C_21  and  O_83
REMARK   12  A    between atoms: C_23  and  O_82
REMARK   13  A    between atoms: C_25  and  O_28
REMARK   14  A    between atoms: O_28  and  C_29
REMARK   15  A    between atoms: C_31  and  O_81
REMARK   16  A    between atoms: C_33  and  O_80
REMARK   17  A    between atoms: C_35  and  C_78
REMARK   18  A    between atoms: C_38  and  O_40
REMARK   19  A    between atoms: O_40  and  C_41
REMARK   20  A    between atoms: C_42  and  C_70
REMARK   21  A    between atoms: C_46  and  O_53
REMARK   22  A    between atoms: C_48  and  O_52
REMARK   23  A    between atoms: O_53  and  C_54
REMARK   24  A    between atoms: C_56  and  O_69
REMARK   25  A    between atoms: C_58  and  O_68
REMARK   26  A    between atoms: C_60  and  O_67
REMARK   27  A    between atoms: C_62  and  C_65
REMARK   28  A    between atoms: C_65  and  O_66
REMARK   29  A    between atoms: C_72  and  O_77
REMARK   30  A    between atoms: C_73  and  O_76
REMARK   31  A    between atoms: C_78  and  O_79
REMARK                            x       y       z     vdW  Elec       q    Type
REMARK                         _______ _______ _______ _____ _____    ______ ____
ROOT
ATOM      1  C   UNL     1       5.795  -4.963  27.037  0.00  0.00    +0.221 C 
ATOM      2  C   UNL     1       4.383  -5.641  27.026  0.00  0.00    +0.340 C 
ATOM      3  O   UNL     1       3.933  -5.753  28.398  0.00  0.00    -0.331 OA
ATOM      4  C   UNL     1       4.642  -6.826  29.058  0.00  0.00    +0.179 C 
ATOM      5  C   UNL     1       6.158  -6.559  29.060  0.00  0.00    +0.177 C 
ATOM      6  C   UNL     1       6.689  -6.079  27.685  0.00  0.00    +0.180 C 
ENDROOT
BRANCH   5   7
ATOM      7  O   UNL     1       6.841  -7.768  29.424  0.00  0.00    -0.386 OA
ATOM      8  H   UNL     1       6.140  -8.434  29.568  0.00  0.00    +0.210 HD
ENDBRANCH   5   7
BRANCH   6   9
ATOM      9  O   UNL     1       8.049  -5.662  27.877  0.00  0.00    -0.386 OA
ATOM     10  H   UNL     1       8.123  -4.784  27.457  0.00  0.00    +0.210 HD
ENDBRANCH   6   9
BRANCH   2  11
ATOM     11  O   UNL     1       3.384  -4.975  26.233  0.00  0.00    -0.453 OA
BRANCH  11  12
ATOM     12  C   UNL     1       3.481  -3.574  26.213  0.00  0.00    +0.214 A 
ATOM     13  C   UNL     1       2.860  -2.746  27.315  0.00  0.00    +0.238 A 
ATOM     14  O   UNL     1       1.885  -3.143  27.941  0.00  0.00    -0.283 OA
ATOM     15  C   UNL     1       3.447  -1.421  27.565  0.00  0.00    +0.109 A 
ATOM     16  C   UNL     1       4.058  -0.817  26.484  0.00  0.00    +0.147 A 
ATOM     17  C   UNL     1       4.566   0.487  26.602  0.00  0.00    +0.093 A 
ATOM     18  C   UNL     1       4.503   1.181  27.811  0.00  0.00    +0.131 A 
ATOM     19  C   UNL     1       3.883   0.558  28.910  0.00  0.00    +0.092 A 
ATOM     20  O   UNL     1       4.141  -1.449  25.265  0.00  0.00    -0.451 OA
ATOM     21  C   UNL     1       3.360  -0.722  28.782  0.00  0.00    +0.135 A 
ATOM     22  C   UNL     1       4.011  -2.854  25.188  0.00  0.00    +0.181 A 
BRANCH  22  23
ATOM     23  C   UNL     1       4.554  -3.376  23.874  0.00  0.00    +0.025 A 
ATOM     24  C   UNL     1       5.416  -2.537  23.118  0.00  0.00    +0.015 A 
ATOM     25  C   UNL     1       6.141  -3.001  22.011  0.00  0.00    +0.050 A 
ATOM     26  C   UNL     1       5.995  -4.312  21.617  0.00  0.00    +0.158 A 
ATOM     27  C   UNL     1       5.042  -5.113  22.230  0.00  0.00    +0.159 A 
ATOM     28  C   UNL     1       4.325  -4.662  23.348  0.00  0.00    +0.060 A 
BRANCH  26  29
ATOM     29  O   UNL     1       6.801  -4.810  20.636  0.00  0.00    -0.503 OA
ATOM     30  H   UNL     1       6.538  -5.748  20.544  0.00  0.00    +0.292 HD
ENDBRANCH  26  29
BRANCH  27  31
ATOM     31  O   UNL     1       4.845  -6.364  21.711  0.00  0.00    -0.503 OA
ATOM     32  H   UNL     1       5.662  -6.871  21.880  0.00  0.00    +0.292 HD
ENDBRANCH  27  31
ENDBRANCH  22  23
BRANCH  21  33
ATOM     33  O   UNL     1       2.788  -1.319  29.879  0.00  0.00    -0.506 OA
ATOM     34  H   UNL     1       3.233  -2.172  30.053  0.00  0.00    +0.292 HD
ENDBRANCH  21  33
BRANCH  18  35
ATOM     35  O   UNL     1       5.039   2.447  27.846  0.00  0.00    -0.461 OA
BRANCH  35  36
ATOM     36  C   UNL     1       6.467   2.593  27.686  0.00  0.00    +0.339 C 
ATOM     37  O   UNL     1       7.080   3.501  28.614  0.00  0.00    -0.331 OA
ATOM     38  C   UNL     1       6.771   4.900  28.460  0.00  0.00    +0.179 C 
ATOM     39  C   UNL     1       6.928   5.423  27.017  0.00  0.00    +0.177 C 
ATOM     40  C   UNL     1       6.319   4.470  25.982  0.00  0.00    +0.180 C 
ATOM     41  C   UNL     1       6.789   3.027  26.239  0.00  0.00    +0.214 C 
BRANCH  40  42
ATOM     42  O   UNL     1       4.898   4.604  25.953  0.00  0.00    -0.386 OA
ATOM     43  H   UNL     1       4.622   5.272  26.609  0.00  0.00    +0.210 HD
ENDBRANCH  40  42
BRANCH  41  44
ATOM     44  O   UNL     1       8.205   2.926  25.999  0.00  0.00    -0.383 OA
ATOM     45  H   UNL     1       8.588   3.820  26.150  0.00  0.00    +0.210 HD
ENDBRANCH  41  44
BRANCH  39  46
ATOM     46  O   UNL     1       8.339   5.550  26.750  0.00  0.00    -0.386 OA
ATOM     47  H   UNL     1       8.739   4.666  26.870  0.00  0.00    +0.210 HD
ENDBRANCH  39  46
BRANCH  38  48
ATOM     48  C   UNL     1       5.416   5.248  29.094  0.00  0.00    +0.190 C 
BRANCH  48  49
ATOM     49  O   UNL     1       5.136   4.395  30.206  0.00  0.00    -0.392 OA
ATOM     50  H   UNL     1       4.871   3.525  29.859  0.00  0.00    +0.210 HD
ENDBRANCH  48  49
ENDBRANCH  38  48
ENDBRANCH  35  36
ENDBRANCH  18  35
ENDBRANCH  11  12
ENDBRANCH   2  11
BRANCH   1  51
ATOM     51  O   UNL     1       6.396  -4.554  25.778  0.00  0.00    -0.337 OA
BRANCH  51  54
ATOM     52  C   UNL     1       8.851  -2.189  24.471  0.00  0.00    +0.190 C 
ATOM     53  O   UNL     1       8.304  -3.439  24.948  0.00  0.00    -0.339 OA
ATOM     54  C   UNL     1       7.040  -3.267  25.655  0.00  0.00    +0.282 C 
ATOM     55  C   UNL     1       7.385  -2.512  26.980  0.00  0.00    +0.201 C 
ATOM     56  C   UNL     1       7.923  -1.121  26.571  0.00  0.00    +0.179 C 
ATOM     57  C   UNL     1       9.131  -1.217  25.633  0.00  0.00    +0.178 C 
BRANCH  57  58
ATOM     58  O   UNL     1       9.411   0.113  25.162  0.00  0.00    -0.386 OA
ATOM     59  H   UNL     1      10.333   0.322  25.407  0.00  0.00    +0.210 HD
ENDBRANCH  57  58
BRANCH  55  60
ATOM     60  O   UNL     1       6.305  -2.317  27.898  0.00  0.00    -0.384 OA
ATOM     61  H   UNL     1       6.353  -1.431  28.281  0.00  0.00    +0.210 HD
ENDBRANCH  55  60
BRANCH  56  62
ATOM     62  O   UNL     1       8.288  -0.324  27.710  0.00  0.00    -0.386 OA
ATOM     63  H   UNL     1       7.976  -0.829  28.487  0.00  0.00    +0.210 HD
ENDBRANCH  56  62
BRANCH  52  64
ATOM     64  C   UNL     1      10.153  -2.442  23.672  0.00  0.00    +0.266 C 
BRANCH  64  65
ATOM     65  O   UNL     1      10.498  -1.349  22.779  0.00  0.00    -0.459 OA
BRANCH  65  66
ATOM     66  C   UNL     1       9.602  -1.082  21.786  0.00  0.00    +0.332 C 
ATOM     67  O   UNL     1       9.278  -1.848  20.896  0.00  0.00    -0.246 OA
BRANCH  66  69
ATOM     68  C   UNL     1       9.912   1.303  22.369  0.00  0.00    +0.015 C 
ATOM     69  C   UNL     1       9.107   0.313  21.937  0.00  0.00    +0.092 C 
BRANCH  68  74
ATOM     70  C   UNL     1       9.896   4.889  23.675  0.00  0.00    +0.166 A 
ATOM     71  C   UNL     1       8.608   5.287  23.326  0.00  0.00    +0.201 A 
ATOM     72  C   UNL     1       7.766   4.405  22.647  0.00  0.00    +0.163 A 
ATOM     73  C   UNL     1       8.182   3.122  22.305  0.00  0.00    +0.057 A 
ATOM     74  C   UNL     1       9.470   2.690  22.645  0.00  0.00    -0.018 A 
ATOM     75  C   UNL     1      10.307   3.579  23.350  0.00  0.00    +0.057 A 
BRANCH  70  77
ATOM     76  C   UNL     1      12.071   5.852  23.723  0.00  0.00    +0.277 C 
ATOM     77  O   UNL     1      10.821   5.625  24.370  0.00  0.00    -0.491 OA
ENDBRANCH  70  77
BRANCH  72  78
ATOM     78  O   UNL     1       6.502   4.852  22.354  0.00  0.00    -0.503 OA
ATOM     79  H   UNL     1       6.213   5.446  23.067  0.00  0.00    +0.292 HD
ENDBRANCH  72  78
BRANCH  71  80
ATOM     80  O   UNL     1       8.091   6.511  23.659  0.00  0.00    -0.501 OA
ATOM     81  H   UNL     1       7.193   6.322  23.997  0.00  0.00    +0.292 HD
ENDBRANCH  71  80
ENDBRANCH  68  74
ENDBRANCH  66  69
ENDBRANCH  65  66
ENDBRANCH  64  65
ENDBRANCH  52  64
ENDBRANCH  51  54
ENDBRANCH   1  51
BRANCH   4  82
ATOM     82  C   UNL     1       4.096  -7.012  30.485  0.00  0.00    +0.190 C 
BRANCH  82  83
ATOM     83  O   UNL     1       2.774  -7.548  30.475  0.00  0.00    -0.392 OA
ATOM     84  H   UNL     1       2.225  -6.934  30.995  0.00  0.00    +0.210 HD
ENDBRANCH  82  83
ENDBRANCH   4  82
TORSDOF 30
ENDMDL
MODEL 3
REMARK VINA RESULT:      -4.2      2.142      7.649
REMARK  Name = 
REMARK  31 active torsions:
REMARK  status: ('A' for Active; 'I' for Inactive)
REMARK    1  A    between atoms: C_1  and  O_2
REMARK    2  A    between atoms: O_2  and  C_3
REMARK    3  A    between atoms: C_5  and  C_11
REMARK    4  A    between atoms: C_7  and  O_10
REMARK    5  A    between atoms: C_8  and  O_9
REMARK    6  A    between atoms: C_12  and  C_13
REMARK    7  A    between atoms: C_13  and  O_15
REMARK    8  A    between atoms: O_15  and  C_16
REMARK    9  A    between atoms: C_16  and  C_17
REMARK   10  A    between atoms: C_19  and  O_84
REMARK   11  A    between atoms: C_21  and  O_83
REMARK   12  A    between atoms: C_23  and  O_82
REMARK   13  A    between atoms: C_25  and  O_28
REMARK   14  A    between atoms: O_28  and  C_29
REMARK   15  A    between atoms: C_31  and  O_81
REMARK   16  A    between atoms: C_33  and  O_80
REMARK   17  A    between atoms: C_35  and  C_78
REMARK   18  A    between atoms: C_38  and  O_40
REMARK   19  A    between atoms: O_40  and  C_41
REMARK   20  A    between atoms: C_42  and  C_70
REMARK   21  A    between atoms: C_46  and  O_53
REMARK   22  A    between atoms: C_48  and  O_52
REMARK   23  A    between atoms: O_53  and  C_54
REMARK   24  A    between atoms: C_56  and  O_69
REMARK   25  A    between atoms: C_58  and  O_68
REMARK   26  A    between atoms: C_60  and  O_67
REMARK   27  A    between atoms: C_62  and  C_65
REMARK   28  A    between atoms: C_65  and  O_66
REMARK   29  A    between atoms: C_72  and  O_77
REMARK   30  A    between atoms: C_73  and  O_76
REMARK   31  A    between atoms: C_78  and  O_79
REMARK                            x       y       z     vdW  Elec       q    Type
REMARK                         _______ _______ _______ _____ _____    ______ ____
ROOT
ATOM      1  C   UNL     1      10.195  -0.789  23.393  0.00  0.00    +0.221 C 
ATOM      2  C   UNL     1       8.815  -0.399  22.761  0.00  0.00    +0.340 C 
ATOM      3  O   UNL     1       9.000   0.828  22.014  0.00  0.00    -0.331 OA
ATOM      4  C   UNL     1       9.101   1.945  22.927  0.00  0.00    +0.179 C 
ATOM      5  C   UNL     1      10.297   1.766  23.878  0.00  0.00    +0.177 C 
ATOM      6  C   UNL     1      10.391   0.337  24.470  0.00  0.00    +0.180 C 
ENDROOT
BRANCH   5   7
ATOM      7  O   UNL     1      10.177   2.708  24.954  0.00  0.00    -0.386 OA
ATOM      8  H   UNL     1      10.985   2.596  25.494  0.00  0.00    +0.210 HD
ENDBRANCH   5   7
BRANCH   6   9
ATOM      9  O   UNL     1      11.649   0.241  25.153  0.00  0.00    -0.386 OA
ATOM     10  H   UNL     1      12.008  -0.639  24.933  0.00  0.00    +0.210 HD
ENDBRANCH   6   9
BRANCH   2  11
ATOM     11  O   UNL     1       8.215  -1.401  21.922  0.00  0.00    -0.453 OA
BRANCH  11  12
ATOM     12  C   UNL     1       7.079  -2.023  22.464  0.00  0.00    +0.214 A 
ATOM     13  C   UNL     1       6.807  -3.488  22.200  0.00  0.00    +0.238 A 
ATOM     14  O   UNL     1       7.208  -4.039  21.182  0.00  0.00    -0.283 OA
ATOM     15  C   UNL     1       5.995  -4.205  23.193  0.00  0.00    +0.109 A 
ATOM     16  C   UNL     1       5.099  -3.437  23.910  0.00  0.00    +0.147 A 
ATOM     17  C   UNL     1       4.216  -4.048  24.816  0.00  0.00    +0.093 A 
ATOM     18  C   UNL     1       4.250  -5.424  25.042  0.00  0.00    +0.131 A 
ATOM     19  C   UNL     1       5.169  -6.202  24.312  0.00  0.00    +0.092 A 
ATOM     20  O   UNL     1       5.014  -2.077  23.722  0.00  0.00    -0.451 OA
ATOM     21  C   UNL     1       6.023  -5.596  23.399  0.00  0.00    +0.135 A 
ATOM     22  C   UNL     1       6.095  -1.375  23.143  0.00  0.00    +0.181 A 
BRANCH  22  23
ATOM     23  C   UNL     1       5.987   0.110  23.422  0.00  0.00    +0.025 A 
ATOM     24  C   UNL     1       6.129   0.559  24.761  0.00  0.00    +0.015 A 
ATOM     25  C   UNL     1       6.265   1.914  25.094  0.00  0.00    +0.050 A 
ATOM     26  C   UNL     1       6.231   2.856  24.089  0.00  0.00    +0.158 A 
ATOM     27  C   UNL     1       5.931   2.468  22.792  0.00  0.00    +0.159 A 
ATOM     28  C   UNL     1       5.810   1.113  22.448  0.00  0.00    +0.060 A 
BRANCH  26  29
ATOM     29  O   UNL     1       6.506   4.159  24.384  0.00  0.00    -0.503 OA
ATOM     30  H   UNL     1       6.876   4.140  25.290  0.00  0.00    +0.292 HD
ENDBRANCH  26  29
BRANCH  27  31
ATOM     31  O   UNL     1       5.777   3.458  21.860  0.00  0.00    -0.503 OA
ATOM     32  H   UNL     1       6.336   4.205  22.147  0.00  0.00    +0.292 HD
ENDBRANCH  27  31
ENDBRANCH  22  23
BRANCH  21  33
ATOM     33  O   UNL     1       6.931  -6.373  22.723  0.00  0.00    -0.506 OA
ATOM     34  H   UNL     1       6.552  -6.642  21.863  0.00  0.00    +0.292 HD
ENDBRANCH  21  33
BRANCH  18  35
ATOM     35  O   UNL     1       3.363  -5.940  25.958  0.00  0.00    -0.461 OA
BRANCH  35  36
ATOM     36  C   UNL     1       2.883  -5.076  27.010  0.00  0.00    +0.339 C 
ATOM     37  O   UNL     1       3.760  -4.972  28.142  0.00  0.00    -0.331 OA
ATOM     38  C   UNL     1       3.904  -6.143  28.968  0.00  0.00    +0.179 C 
ATOM     39  C   UNL     1       2.565  -6.785  29.387  0.00  0.00    +0.177 C 
ATOM     40  C   UNL     1       1.577  -6.888  28.219  0.00  0.00    +0.180 C 
ATOM     41  C   UNL     1       1.485  -5.545  27.473  0.00  0.00    +0.214 C 
BRANCH  40  42
ATOM     42  O   UNL     1       1.918  -7.983  27.370  0.00  0.00    -0.386 OA
ATOM     43  H   UNL     1       2.372  -7.648  26.574  0.00  0.00    +0.210 HD
ENDBRANCH  40  42
BRANCH  41  44
ATOM     44  O   UNL     1       0.892  -4.551  28.330  0.00  0.00    -0.383 OA
ATOM     45  H   UNL     1       0.340  -5.030  28.989  0.00  0.00    +0.210 HD
ENDBRANCH  41  44
BRANCH  39  46
ATOM     46  O   UNL     1       1.983  -5.951  30.408  0.00  0.00    -0.386 OA
ATOM     47  H   UNL     1       1.086  -6.295  30.590  0.00  0.00    +0.210 HD
ENDBRANCH  39  46
BRANCH  38  48
ATOM     48  C   UNL     1       4.897  -7.142  28.356  0.00  0.00    +0.190 C 
BRANCH  48  49
ATOM     49  O   UNL     1       6.219  -6.600  28.331  0.00  0.00    -0.392 OA
ATOM     50  H   UNL     1       6.166  -5.665  28.595  0.00  0.00    +0.210 HD
ENDBRANCH  48  49
ENDBRANCH  38  48
ENDBRANCH  35  36
ENDBRANCH  18  35
ENDBRANCH  11  12
ENDBRANCH   2  11
BRANCH   1  51
ATOM     51  O   UNL     1      10.340  -2.084  24.037  0.00  0.00    -0.337 OA
BRANCH  51  54
ATOM     52  C   UNL     1       7.443  -2.042  26.259  0.00  0.00    +0.190 C 
ATOM     53  O   UNL     1       8.742  -1.693  25.731  0.00  0.00    -0.339 OA
ATOM     54  C   UNL     1       9.239  -2.669  24.767  0.00  0.00    +0.282 C 
ATOM     55  C   UNL     1       9.535  -3.969  25.583  0.00  0.00    +0.201 C 
ATOM     56  C   UNL     1       8.179  -4.462  26.140  0.00  0.00    +0.179 C 
ATOM     57  C   UNL     1       7.478  -3.398  26.991  0.00  0.00    +0.178 C 
BRANCH  57  58
ATOM     58  O   UNL     1       6.155  -3.885  27.278  0.00  0.00    -0.386 OA
ATOM     59  H   UNL     1       5.525  -3.329  26.781  0.00  0.00    +0.210 HD
ENDBRANCH  57  58
BRANCH  55  60
ATOM     60  O   UNL     1      10.136  -5.048  24.860  0.00  0.00    -0.384 OA
ATOM     61  H   UNL     1      11.098  -4.989  24.918  0.00  0.00    +0.210 HD
ENDBRANCH  55  60
BRANCH  56  62
ATOM     62  O   UNL     1       8.318  -5.658  26.924  0.00  0.00    -0.386 OA
ATOM     63  H   UNL     1       7.443  -6.093  26.885  0.00  0.00    +0.210 HD
ENDBRANCH  56  62
BRANCH  52  64
ATOM     64  C   UNL     1       6.938  -0.938  27.220  0.00  0.00    +0.266 C 
BRANCH  64  65
ATOM     65  O   UNL     1       8.013  -0.216  27.877  0.00  0.00    -0.459 OA
BRANCH  65  66
ATOM     66  C   UNL     1       7.635   0.706  28.807  0.00  0.00    +0.332 C 
ATOM     67  O   UNL     1       8.322   1.108  29.730  0.00  0.00    -0.246 OA
BRANCH  66  69
ATOM     68  C   UNL     1       5.849   2.409  28.637  0.00  0.00    +0.015 C 
ATOM     69  C   UNL     1       6.232   1.121  28.542  0.00  0.00    +0.092 C 
BRANCH  68  74
ATOM     70  C   UNL     1       2.795   4.262  27.291  0.00  0.00    +0.166 A 
ATOM     71  C   UNL     1       1.850   3.947  28.264  0.00  0.00    +0.201 A 
ATOM     72  C   UNL     1       2.198   3.115  29.329  0.00  0.00    +0.163 A 
ATOM     73  C   UNL     1       3.479   2.587  29.450  0.00  0.00    +0.057 A 
ATOM     74  C   UNL     1       4.454   2.888  28.490  0.00  0.00    -0.018 A 
ATOM     75  C   UNL     1       4.101   3.746  27.429  0.00  0.00    +0.057 A 
BRANCH  70  77
ATOM     76  C   UNL     1       2.972   4.558  24.937  0.00  0.00    +0.277 C 
ATOM     77  O   UNL     1       2.616   5.089  26.211  0.00  0.00    -0.491 OA
ENDBRANCH  70  77
BRANCH  72  78
ATOM     78  O   UNL     1       1.226   2.862  30.265  0.00  0.00    -0.503 OA
ATOM     79  H   UNL     1       1.592   2.257  30.933  0.00  0.00    +0.292 HD
ENDBRANCH  72  78
BRANCH  71  80
ATOM     80  O   UNL     1       0.578   4.454  28.258  0.00  0.00    -0.501 OA
ATOM     81  H   UNL     1       0.248   4.317  29.168  0.00  0.00    +0.292 HD
ENDBRANCH  71  80
ENDBRANCH  68  74
ENDBRANCH  66  69
ENDBRANCH  65  66
ENDBRANCH  64  65
ENDBRANCH  52  64
ENDBRANCH  51  54
ENDBRANCH   1  51
BRANCH   4  82
ATOM     82  C   UNL     1       9.196   3.260  22.132  0.00  0.00    +0.190 C 
BRANCH  82  83
ATOM     83  O   UNL     1       9.075   4.398  22.984  0.00  0.00    -0.392 OA
ATOM     84  H   UNL     1       8.329   4.214  23.583  0.00  0.00    +0.210 HD
ENDBRANCH  82  83
ENDBRANCH   4  82
TORSDOF 30
ENDMDL
MODEL 4
REMARK VINA RESULT:      -4.2      2.111      7.472
REMARK  Name = 
REMARK  31 active torsions:
REMARK  status: ('A' for Active; 'I' for Inactive)
REMARK    1  A    between atoms: C_1  and  O_2
REMARK    2  A    between atoms: O_2  and  C_3
REMARK    3  A    between atoms: C_5  and  C_11
REMARK    4  A    between atoms: C_7  and  O_10
REMARK    5  A    between atoms: C_8  and  O_9
REMARK    6  A    between atoms: C_12  and  C_13
REMARK    7  A    between atoms: C_13  and  O_15
REMARK    8  A    between atoms: O_15  and  C_16
REMARK    9  A    between atoms: C_16  and  C_17
REMARK   10  A    between atoms: C_19  and  O_84
REMARK   11  A    between atoms: C_21  and  O_83
REMARK   12  A    between atoms: C_23  and  O_82
REMARK   13  A    between atoms: C_25  and  O_28
REMARK   14  A    between atoms: O_28  and  C_29
REMARK   15  A    between atoms: C_31  and  O_81
REMARK   16  A    between atoms: C_33  and  O_80
REMARK   17  A    between atoms: C_35  and  C_78
REMARK   18  A    between atoms: C_38  and  O_40
REMARK   19  A    between atoms: O_40  and  C_41
REMARK   20  A    between atoms: C_42  and  C_70
REMARK   21  A    between atoms: C_46  and  O_53
REMARK   22  A    between atoms: C_48  and  O_52
REMARK   23  A    between atoms: O_53  and  C_54
REMARK   24  A    between atoms: C_56  and  O_69
REMARK   25  A    between atoms: C_58  and  O_68
REMARK   26  A    between atoms: C_60  and  O_67
REMARK   27  A    between atoms: C_62  and  C_65
REMARK   28  A    between atoms: C_65  and  O_66
REMARK   29  A    between atoms: C_72  and  O_77
REMARK   30  A    between atoms: C_73  and  O_76
REMARK   31  A    between atoms: C_78  and  O_79
REMARK                            x       y       z     vdW  Elec       q    Type
REMARK                         _______ _______ _______ _____ _____    ______ ____
ROOT
ATOM      1  C   UNL     1      10.187  -1.183  24.145  0.00  0.00    +0.221 C 
ATOM      2  C   UNL     1       9.187  -0.811  22.998  0.00  0.00    +0.340 C 
ATOM      3  O   UNL     1       9.749   0.302  22.262  0.00  0.00    -0.331 OA
ATOM      4  C   UNL     1       9.602   1.519  23.030  0.00  0.00    +0.179 C 
ATOM      5  C   UNL     1      10.333   1.405  24.380  0.00  0.00    +0.177 C 
ATOM      6  C   UNL     1      10.067   0.058  25.099  0.00  0.00    +0.180 C 
ENDROOT
BRANCH   5   7
ATOM      7  O   UNL     1       9.904   2.478  25.231  0.00  0.00    -0.386 OA
ATOM      8  H   UNL     1      10.517   2.474  25.991  0.00  0.00    +0.210 HD
ENDBRANCH   5   7
BRANCH   6   9
ATOM      9  O   UNL     1      10.962  -0.010  26.218  0.00  0.00    -0.386 OA
ATOM     10  H   UNL     1      11.742  -0.509  25.908  0.00  0.00    +0.210 HD
ENDBRANCH   6   9
BRANCH   2  11
ATOM     11  O   UNL     1       8.857  -1.881  22.094  0.00  0.00    -0.453 OA
BRANCH  11  12
ATOM     12  C   UNL     1       7.596  -2.463  22.303  0.00  0.00    +0.214 A 
ATOM     13  C   UNL     1       7.339  -3.899  21.904  0.00  0.00    +0.238 A 
ATOM     14  O   UNL     1       7.960  -4.431  20.993  0.00  0.00    -0.283 OA
ATOM     15  C   UNL     1       6.273  -4.610  22.625  0.00  0.00    +0.109 A 
ATOM     16  C   UNL     1       5.258  -3.824  23.133  0.00  0.00    +0.147 A 
ATOM     17  C   UNL     1       4.150  -4.422  23.757  0.00  0.00    +0.093 A 
ATOM     18  C   UNL     1       4.069  -5.806  23.914  0.00  0.00    +0.131 A 
ATOM     19  C   UNL     1       5.109  -6.602  23.398  0.00  0.00    +0.092 A 
ATOM     20  O   UNL     1       5.280  -2.455  23.000  0.00  0.00    -0.451 OA
ATOM     21  C   UNL     1       6.190  -6.007  22.760  0.00  0.00    +0.135 A 
ATOM     22  C   UNL     1       6.501  -1.790  22.747  0.00  0.00    +0.181 A 
BRANCH  22  23
ATOM     23  C   UNL     1       6.388  -0.314  23.065  0.00  0.00    +0.025 A 
ATOM     24  C   UNL     1       6.312   0.082  24.427  0.00  0.00    +0.015 A 
ATOM     25  C   UNL     1       6.428   1.418  24.834  0.00  0.00    +0.050 A 
ATOM     26  C   UNL     1       6.591   2.397  23.879  0.00  0.00    +0.158 A 
ATOM     27  C   UNL     1       6.505   2.067  22.535  0.00  0.00    +0.159 A 
ATOM     28  C   UNL     1       6.407   0.730  22.119  0.00  0.00    +0.060 A 
BRANCH  26  29
ATOM     29  O   UNL     1       6.848   3.677  24.270  0.00  0.00    -0.503 OA
ATOM     30  H   UNL     1       7.379   3.590  25.088  0.00  0.00    +0.292 HD
ENDBRANCH  26  29
BRANCH  27  31
ATOM     31  O   UNL     1       6.539   3.095  21.632  0.00  0.00    -0.503 OA
ATOM     32  H   UNL     1       5.947   3.791  21.976  0.00  0.00    +0.292 HD
ENDBRANCH  27  31
ENDBRANCH  22  23
BRANCH  21  33
ATOM     33  O   UNL     1       7.206  -6.805  22.293  0.00  0.00    -0.506 OA
ATOM     34  H   UNL     1       7.508  -6.471  21.425  0.00  0.00    +0.292 HD
ENDBRANCH  21  33
BRANCH  18  35
ATOM     35  O   UNL     1       2.959  -6.309  24.551  0.00  0.00    -0.461 OA
BRANCH  35  36
ATOM     36  C   UNL     1       3.154  -7.256  25.624  0.00  0.00    +0.339 C 
ATOM     37  O   UNL     1       2.690  -8.584  25.337  0.00  0.00    -0.331 OA
ATOM     38  C   UNL     1       1.265  -8.771  25.233  0.00  0.00    +0.179 C 
ATOM     39  C   UNL     1       0.466  -8.167  26.406  0.00  0.00    +0.177 C 
ATOM     40  C   UNL     1       0.946  -6.759  26.775  0.00  0.00    +0.180 C 
ATOM     41  C   UNL     1       2.479  -6.733  26.911  0.00  0.00    +0.214 C 
BRANCH  40  42
ATOM     42  O   UNL     1       0.445  -5.799  25.845  0.00  0.00    -0.386 OA
ATOM     43  H   UNL     1       0.556  -6.139  24.937  0.00  0.00    +0.210 HD
ENDBRANCH  40  42
BRANCH  41  44
ATOM     44  O   UNL     1       2.882  -7.533  28.038  0.00  0.00    -0.383 OA
ATOM     45  H   UNL     1       2.590  -7.058  28.849  0.00  0.00    +0.210 HD
ENDBRANCH  41  44
BRANCH  39  46
ATOM     46  O   UNL     1       0.648  -9.029  27.547  0.00  0.00    -0.386 OA
ATOM     47  H   UNL     1      -0.140  -8.928  28.118  0.00  0.00    +0.210 HD
ENDBRANCH  39  46
BRANCH  38  48
ATOM     48  C   UNL     1       0.744  -8.347  23.852  0.00  0.00    +0.190 C 
BRANCH  48  49
ATOM     49  O   UNL     1       1.792  -8.362  22.882  0.00  0.00    -0.392 OA
ATOM     50  H   UNL     1       2.003  -7.440  22.652  0.00  0.00    +0.210 HD
ENDBRANCH  48  49
ENDBRANCH  38  48
ENDBRANCH  35  36
ENDBRANCH  18  35
ENDBRANCH  11  12
ENDBRANCH   2  11
BRANCH   1  51
ATOM     51  O   UNL     1       9.961  -2.393  24.919  0.00  0.00    -0.337 OA
BRANCH  51  54
ATOM     52  C   UNL     1       6.846  -1.901  26.759  0.00  0.00    +0.190 C 
ATOM     53  O   UNL     1       8.263  -1.871  26.474  0.00  0.00    -0.339 OA
ATOM     54  C   UNL     1       8.632  -2.743  25.364  0.00  0.00    +0.282 C 
ATOM     55  C   UNL     1       8.412  -4.205  25.872  0.00  0.00    +0.201 C 
ATOM     56  C   UNL     1       6.898  -4.357  26.144  0.00  0.00    +0.179 C 
ATOM     57  C   UNL     1       6.379  -3.318  27.145  0.00  0.00    +0.178 C 
BRANCH  57  58
ATOM     58  O   UNL     1       4.944  -3.422  27.162  0.00  0.00    -0.386 OA
ATOM     59  H   UNL     1       4.590  -2.541  27.390  0.00  0.00    +0.210 HD
ENDBRANCH  57  58
BRANCH  55  60
ATOM     60  O   UNL     1       8.809  -5.252  24.981  0.00  0.00    -0.384 OA
ATOM     61  H   UNL     1       9.751  -5.176  24.781  0.00  0.00    +0.210 HD
ENDBRANCH  55  60
BRANCH  56  62
ATOM     62  O   UNL     1       6.563  -5.668  26.629  0.00  0.00    -0.386 OA
ATOM     63  H   UNL     1       6.434  -5.560  27.592  0.00  0.00    +0.210 HD
ENDBRANCH  56  62
BRANCH  52  64
ATOM     64  C   UNL     1       6.506  -0.907  27.896  0.00  0.00    +0.266 C 
BRANCH  64  65
ATOM     65  O   UNL     1       7.379   0.253  27.922  0.00  0.00    -0.459 OA
BRANCH  65  66
ATOM     66  C   UNL     1       7.006   1.265  28.758  0.00  0.00    +0.332 C 
ATOM     67  O   UNL     1       7.331   1.376  29.928  0.00  0.00    -0.246 OA
BRANCH  66  69
ATOM     68  C   UNL     1       4.769   2.144  28.176  0.00  0.00    +0.015 C 
ATOM     69  C   UNL     1       6.106   2.196  28.028  0.00  0.00    +0.092 C 
BRANCH  68  74
ATOM     70  C   UNL     1       2.515   3.349  25.341  0.00  0.00    +0.166 A 
ATOM     71  C   UNL     1       2.087   4.573  25.851  0.00  0.00    +0.201 A 
ATOM     72  C   UNL     1       2.506   4.985  27.117  0.00  0.00    +0.163 A 
ATOM     73  C   UNL     1       3.350   4.198  27.893  0.00  0.00    +0.057 A 
ATOM     74  C   UNL     1       3.802   2.964  27.408  0.00  0.00    -0.018 A 
ATOM     75  C   UNL     1       3.392   2.566  26.119  0.00  0.00    +0.057 A 
BRANCH  70  77
ATOM     76  C   UNL     1       2.986   3.319  23.009  0.00  0.00    +0.277 C 
ATOM     77  O   UNL     1       2.221   2.828  24.107  0.00  0.00    -0.491 OA
ENDBRANCH  70  77
BRANCH  72  78
ATOM     78  O   UNL     1       2.066   6.210  27.550  0.00  0.00    -0.503 OA
ATOM     79  H   UNL     1       2.687   6.889  27.235  0.00  0.00    +0.292 HD
ENDBRANCH  72  78
BRANCH  71  80
ATOM     80  O   UNL     1       1.294   5.437  25.144  0.00  0.00    -0.501 OA
ATOM     81  H   UNL     1       0.380   5.127  25.303  0.00  0.00    +0.292 HD
ENDBRANCH  71  80
ENDBRANCH  68  74
ENDBRANCH  66  69
ENDBRANCH  65  66
ENDBRANCH  64  65
ENDBRANCH  52  64
ENDBRANCH  51  54
ENDBRANCH   1  51
BRANCH   4  82
ATOM     82  C   UNL     1      10.108   2.719  22.209  0.00  0.00    +0.190 C 
BRANCH  82  83
ATOM     83  O   UNL     1       9.484   3.935  22.616  0.00  0.00    -0.392 OA
ATOM     84  H   UNL     1       9.972   4.654  22.176  0.00  0.00    +0.210 HD
ENDBRANCH  82  83
ENDBRANCH   4  82
TORSDOF 30
ENDMDL
MODEL 5
REMARK VINA RESULT:      -4.0      1.869      4.316
REMARK  Name = 
REMARK  31 active torsions:
REMARK  status: ('A' for Active; 'I' for Inactive)
REMARK    1  A    between atoms: C_1  and  O_2
REMARK    2  A    between atoms: O_2  and  C_3
REMARK    3  A    between atoms: C_5  and  C_11
REMARK    4  A    between atoms: C_7  and  O_10
REMARK    5  A    between atoms: C_8  and  O_9
REMARK    6  A    between atoms: C_12  and  C_13
REMARK    7  A    between atoms: C_13  and  O_15
REMARK    8  A    between atoms: O_15  and  C_16
REMARK    9  A    between atoms: C_16  and  C_17
REMARK   10  A    between atoms: C_19  and  O_84
REMARK   11  A    between atoms: C_21  and  O_83
REMARK   12  A    between atoms: C_23  and  O_82
REMARK   13  A    between atoms: C_25  and  O_28
REMARK   14  A    between atoms: O_28  and  C_29
REMARK   15  A    between atoms: C_31  and  O_81
REMARK   16  A    between atoms: C_33  and  O_80
REMARK   17  A    between atoms: C_35  and  C_78
REMARK   18  A    between atoms: C_38  and  O_40
REMARK   19  A    between atoms: O_40  and  C_41
REMARK   20  A    between atoms: C_42  and  C_70
REMARK   21  A    between atoms: C_46  and  O_53
REMARK   22  A    between atoms: C_48  and  O_52
REMARK   23  A    between atoms: O_53  and  C_54
REMARK   24  A    between atoms: C_56  and  O_69
REMARK   25  A    between atoms: C_58  and  O_68
REMARK   26  A    between atoms: C_60  and  O_67
REMARK   27  A    between atoms: C_62  and  C_65
REMARK   28  A    between atoms: C_65  and  O_66
REMARK   29  A    between atoms: C_72  and  O_77
REMARK   30  A    between atoms: C_73  and  O_76
REMARK   31  A    between atoms: C_78  and  O_79
REMARK                            x       y       z     vdW  Elec       q    Type
REMARK                         _______ _______ _______ _____ _____    ______ ____
ROOT
ATOM      1  C   UNL     1       6.315   2.494  27.261  0.00  0.00    +0.221 C 
ATOM      2  C   UNL     1       6.564   2.252  28.789  0.00  0.00    +0.340 C 
ATOM      3  O   UNL     1       5.691   3.141  29.527  0.00  0.00    -0.331 OA
ATOM      4  C   UNL     1       6.209   4.490  29.472  0.00  0.00    +0.179 C 
ATOM      5  C   UNL     1       6.293   4.984  28.017  0.00  0.00    +0.177 C 
ATOM      6  C   UNL     1       6.907   3.934  27.057  0.00  0.00    +0.180 C 
ENDROOT
BRANCH   5   7
ATOM      7  O   UNL     1       7.095   6.174  27.978  0.00  0.00    -0.386 OA
ATOM      8  H   UNL     1       7.624   6.163  28.800  0.00  0.00    +0.210 HD
ENDBRANCH   5   7
BRANCH   6   9
ATOM      9  O   UNL     1       6.730   4.425  25.720  0.00  0.00    -0.386 OA
ATOM     10  H   UNL     1       7.061   3.722  25.130  0.00  0.00    +0.210 HD
ENDBRANCH   6   9
BRANCH   2  11
ATOM     11  O   UNL     1       6.381   0.898  29.238  0.00  0.00    -0.453 OA
BRANCH  11  12
ATOM     12  C   UNL     1       5.607   0.092  28.388  0.00  0.00    +0.214 A 
ATOM     13  C   UNL     1       6.244  -1.040  27.613  0.00  0.00    +0.238 A 
ATOM     14  O   UNL     1       7.424  -1.006  27.287  0.00  0.00    -0.283 OA
ATOM     15  C   UNL     1       5.370  -2.156  27.223  0.00  0.00    +0.109 A 
ATOM     16  C   UNL     1       4.035  -1.848  27.057  0.00  0.00    +0.147 A 
ATOM     17  C   UNL     1       3.139  -2.828  26.597  0.00  0.00    +0.093 A 
ATOM     18  C   UNL     1       3.564  -4.132  26.338  0.00  0.00    +0.131 A 
ATOM     19  C   UNL     1       4.926  -4.441  26.514  0.00  0.00    +0.092 A 
ATOM     20  O   UNL     1       3.560  -0.578  27.288  0.00  0.00    -0.451 OA
ATOM     21  C   UNL     1       5.812  -3.462  26.945  0.00  0.00    +0.135 A 
ATOM     22  C   UNL     1       4.297   0.315  28.098  0.00  0.00    +0.181 A 
BRANCH  22  23
ATOM     23  C   UNL     1       3.425   1.458  28.573  0.00  0.00    +0.025 A 
ATOM     24  C   UNL     1       2.851   1.378  29.869  0.00  0.00    +0.015 A 
ATOM     25  C   UNL     1       2.219   2.467  30.485  0.00  0.00    +0.050 A 
ATOM     26  C   UNL     1       2.119   3.658  29.799  0.00  0.00    +0.158 A 
ATOM     27  C   UNL     1       2.522   3.724  28.474  0.00  0.00    +0.159 A 
ATOM     28  C   UNL     1       3.171   2.645  27.856  0.00  0.00    +0.060 A 
BRANCH  26  29
ATOM     29  O   UNL     1       1.637   4.761  30.440  0.00  0.00    -0.503 OA
ATOM     30  H   UNL     1       0.838   4.450  30.912  0.00  0.00    +0.292 HD
ENDBRANCH  26  29
BRANCH  27  31
ATOM     31  O   UNL     1       2.277   4.890  27.800  0.00  0.00    -0.503 OA
ATOM     32  H   UNL     1       3.055   5.465  27.939  0.00  0.00    +0.292 HD
ENDBRANCH  27  31
ENDBRANCH  22  23
BRANCH  21  33
ATOM     33  O   UNL     1       7.130  -3.797  27.138  0.00  0.00    -0.506 OA
ATOM     34  H   UNL     1       7.274  -4.721  26.856  0.00  0.00    +0.292 HD
ENDBRANCH  21  33
BRANCH  18  35
ATOM     35  O   UNL     1       2.621  -5.035  25.906  0.00  0.00    -0.461 OA
BRANCH  35  36
ATOM     36  C   UNL     1       2.448  -5.219  24.484  0.00  0.00    +0.339 C 
ATOM     37  O   UNL     1       1.168  -5.748  24.104  0.00  0.00    -0.331 OA
ATOM     38  C   UNL     1       0.892  -7.115  24.465  0.00  0.00    +0.179 C 
ATOM     39  C   UNL     1       2.014  -8.104  24.084  0.00  0.00    +0.177 C 
ATOM     40  C   UNL     1       3.407  -7.570  24.439  0.00  0.00    +0.180 C 
ATOM     41  C   UNL     1       3.573  -6.125  23.936  0.00  0.00    +0.214 C 
BRANCH  40  42
ATOM     42  O   UNL     1       3.657  -7.714  25.837  0.00  0.00    -0.386 OA
ATOM     43  H   UNL     1       3.912  -8.636  26.027  0.00  0.00    +0.210 HD
ENDBRANCH  40  42
BRANCH  41  44
ATOM     44  O   UNL     1       3.560  -6.107  22.496  0.00  0.00    -0.383 OA
ATOM     45  H   UNL     1       3.633  -7.040  22.194  0.00  0.00    +0.210 HD
ENDBRANCH  41  44
BRANCH  39  46
ATOM     46  O   UNL     1       1.949  -8.308  22.659  0.00  0.00    -0.386 OA
ATOM     47  H   UNL     1       2.326  -7.513  22.233  0.00  0.00    +0.210 HD
ENDBRANCH  39  46
BRANCH  38  48
ATOM     48  C   UNL     1       0.446  -7.229  25.930  0.00  0.00    +0.190 C 
BRANCH  48  49
ATOM     49  O   UNL     1       0.875  -8.466  26.501  0.00  0.00    -0.392 OA
ATOM     50  H   UNL     1       1.691  -8.299  27.005  0.00  0.00    +0.210 HD
ENDBRANCH  48  49
ENDBRANCH  38  48
ENDBRANCH  35  36
ENDBRANCH  18  35
ENDBRANCH  11  12
ENDBRANCH   2  11
BRANCH   1  51
ATOM     51  O   UNL     1       6.923   1.596  26.292  0.00  0.00    -0.337 OA
BRANCH  51  54
ATOM     52  C   UNL     1       8.663   3.302  23.573  0.00  0.00    +0.190 C 
ATOM     53  O   UNL     1       7.631   2.551  24.253  0.00  0.00    -0.339 OA
ATOM     54  C   UNL     1       8.079   2.010  25.531  0.00  0.00    +0.282 C 
ATOM     55  C   UNL     1       9.137   0.911  25.188  0.00  0.00    +0.201 C 
ATOM     56  C   UNL     1      10.323   1.634  24.509  0.00  0.00    +0.179 C 
ATOM     57  C   UNL     1       9.890   2.422  23.267  0.00  0.00    +0.178 C 
BRANCH  57  58
ATOM     58  O   UNL     1      11.019   3.208  22.846  0.00  0.00    -0.386 OA
ATOM     59  H   UNL     1      11.765   2.988  23.437  0.00  0.00    +0.210 HD
ENDBRANCH  57  58
BRANCH  55  60
ATOM     60  O   UNL     1       9.650   0.159  26.291  0.00  0.00    -0.384 OA
ATOM     61  H   UNL     1       9.521  -0.786  26.136  0.00  0.00    +0.210 HD
ENDBRANCH  55  60
BRANCH  56  62
ATOM     62  O   UNL     1      11.370   0.724  24.133  0.00  0.00    -0.386 OA
ATOM     63  H   UNL     1      11.756   1.100  23.317  0.00  0.00    +0.210 HD
ENDBRANCH  56  62
BRANCH  52  64
ATOM     64  C   UNL     1       8.110   3.908  22.260  0.00  0.00    +0.266 C 
BRANCH  64  65
ATOM     65  O   UNL     1       7.521   2.918  21.376  0.00  0.00    -0.459 OA
BRANCH  65  66
ATOM     66  C   UNL     1       6.470   2.212  21.882  0.00  0.00    +0.332 C 
ATOM     67  O   UNL     1       5.436   2.690  22.317  0.00  0.00    -0.246 OA
BRANCH  66  69
ATOM     68  C   UNL     1       6.543  -0.037  22.910  0.00  0.00    +0.015 C 
ATOM     69  C   UNL     1       6.796   0.762  21.854  0.00  0.00    +0.092 C 
BRANCH  68  74
ATOM     70  C   UNL     1       6.534  -3.816  22.377  0.00  0.00    +0.166 A 
ATOM     71  C   UNL     1       7.535  -4.206  23.264  0.00  0.00    +0.201 A 
ATOM     72  C   UNL     1       8.224  -3.244  24.003  0.00  0.00    +0.163 A 
ATOM     73  C   UNL     1       7.935  -1.889  23.880  0.00  0.00    +0.057 A 
ATOM     74  C   UNL     1       6.931  -1.464  23.000  0.00  0.00    -0.018 A 
ATOM     75  C   UNL     1       6.225  -2.444  22.273  0.00  0.00    +0.057 A 
BRANCH  70  77
ATOM     76  C   UNL     1       6.422  -5.673  20.895  0.00  0.00    +0.277 C 
ATOM     77  O   UNL     1       5.750  -4.641  21.613  0.00  0.00    -0.491 OA
ENDBRANCH  70  77
BRANCH  72  78
ATOM     78  O   UNL     1       9.183  -3.697  24.875  0.00  0.00    -0.503 OA
ATOM     79  H   UNL     1      10.042  -3.326  24.608  0.00  0.00    +0.292 HD
ENDBRANCH  72  78
BRANCH  71  80
ATOM     80  O   UNL     1       7.861  -5.517  23.489  0.00  0.00    -0.501 OA
ATOM     81  H   UNL     1       7.202  -5.831  24.140  0.00  0.00    +0.292 HD
ENDBRANCH  71  80
ENDBRANCH  68  74
ENDBRANCH  66  69
ENDBRANCH  65  66
ENDBRANCH  64  65
ENDBRANCH  52  64
ENDBRANCH  51  54
ENDBRANCH   1  51
BRANCH   4  82
ATOM     82  C   UNL     1       5.338   5.418  30.339  0.00  0.00    +0.190 C 
BRANCH  82  83
ATOM     83  O   UNL     1       4.457   6.207  29.541  0.00  0.00    -0.392 OA
ATOM     84  H   UNL     1       3.975   5.585  28.967  0.00  0.00    +0.210 HD
ENDBRANCH  82  83
ENDBRANCH   4  82
TORSDOF 30
ENDMDL
MODEL 6
REMARK VINA RESULT:      -3.7      2.386      9.521
REMARK  Name = 
REMARK  31 active torsions:
REMARK  status: ('A' for Active; 'I' for Inactive)
REMARK    1  A    between atoms: C_1  and  O_2
REMARK    2  A    between atoms: O_2  and  C_3
REMARK    3  A    between atoms: C_5  and  C_11
REMARK    4  A    between atoms: C_7  and  O_10
REMARK    5  A    between atoms: C_8  and  O_9
REMARK    6  A    between atoms: C_12  and  C_13
REMARK    7  A    between atoms: C_13  and  O_15
REMARK    8  A    between atoms: O_15  and  C_16
REMARK    9  A    between atoms: C_16  and  C_17
REMARK   10  A    between atoms: C_19  and  O_84
REMARK   11  A    between atoms: C_21  and  O_83
REMARK   12  A    between atoms: C_23  and  O_82
REMARK   13  A    between atoms: C_25  and  O_28
REMARK   14  A    between atoms: O_28  and  C_29
REMARK   15  A    between atoms: C_31  and  O_81
REMARK   16  A    between atoms: C_33  and  O_80
REMARK   17  A    between atoms: C_35  and  C_78
REMARK   18  A    between atoms: C_38  and  O_40
REMARK   19  A    between atoms: O_40  and  C_41
REMARK   20  A    between atoms: C_42  and  C_70
REMARK   21  A    between atoms: C_46  and  O_53
REMARK   22  A    between atoms: C_48  and  O_52
REMARK   23  A    between atoms: O_53  and  C_54
REMARK   24  A    between atoms: C_56  and  O_69
REMARK   25  A    between atoms: C_58  and  O_68
REMARK   26  A    between atoms: C_60  and  O_67
REMARK   27  A    between atoms: C_62  and  C_65
REMARK   28  A    between atoms: C_65  and  O_66
REMARK   29  A    between atoms: C_72  and  O_77
REMARK   30  A    between atoms: C_73  and  O_76
REMARK   31  A    between atoms: C_78  and  O_79
REMARK                            x       y       z     vdW  Elec       q    Type
REMARK                         _______ _______ _______ _____ _____    ______ ____
ROOT
ATOM      1  C   UNL     1       7.411  -1.502  25.523  0.00  0.00    +0.221 C 
ATOM      2  C   UNL     1       8.104  -0.101  25.629  0.00  0.00    +0.340 C 
ATOM      3  O   UNL     1       7.839   0.619  24.402  0.00  0.00    -0.331 OA
ATOM      4  C   UNL     1       8.664   0.092  23.338  0.00  0.00    +0.179 C 
ATOM      5  C   UNL     1       8.366  -1.400  23.105  0.00  0.00    +0.177 C 
ATOM      6  C   UNL     1       8.276  -2.212  24.422  0.00  0.00    +0.180 C 
ENDROOT
BRANCH   5   7
ATOM      7  O   UNL     1       9.405  -1.957  22.286  0.00  0.00    -0.386 OA
ATOM      8  H   UNL     1      10.234  -1.535  22.587  0.00  0.00    +0.210 HD
ENDBRANCH   5   7
BRANCH   6   9
ATOM      9  O   UNL     1       7.785  -3.517  24.083  0.00  0.00    -0.386 OA
ATOM     10  H   UNL     1       8.128  -3.710  23.190  0.00  0.00    +0.210 HD
ENDBRANCH   6   9
BRANCH   2  11
ATOM     11  O   UNL     1       7.715   0.697  26.762  0.00  0.00    -0.453 OA
BRANCH  11  12
ATOM     12  C   UNL     1       7.067   1.901  26.443  0.00  0.00    +0.214 A 
ATOM     13  C   UNL     1       7.746   2.928  25.565  0.00  0.00    +0.238 A 
ATOM     14  O   UNL     1       8.966   3.020  25.516  0.00  0.00    -0.283 OA
ATOM     15  C   UNL     1       6.875   3.845  24.815  0.00  0.00    +0.109 A 
ATOM     16  C   UNL     1       5.639   4.099  25.376  0.00  0.00    +0.147 A 
ATOM     17  C   UNL     1       4.774   5.032  24.780  0.00  0.00    +0.093 A 
ATOM     18  C   UNL     1       5.122   5.687  23.598  0.00  0.00    +0.131 A 
ATOM     19  C   UNL     1       6.381   5.421  23.028  0.00  0.00    +0.092 A 
ATOM     20  O   UNL     1       5.246   3.490  26.546  0.00  0.00    -0.451 OA
ATOM     21  C   UNL     1       7.243   4.515  23.635  0.00  0.00    +0.135 A 
ATOM     22  C   UNL     1       5.875   2.296  26.965  0.00  0.00    +0.181 A 
BRANCH  22  23
ATOM     23  C   UNL     1       5.032   1.576  27.997  0.00  0.00    +0.025 A 
ATOM     24  C   UNL     1       3.978   2.289  28.627  0.00  0.00    +0.015 A 
ATOM     25  C   UNL     1       3.010   1.661  29.423  0.00  0.00    +0.050 A 
ATOM     26  C   UNL     1       3.096   0.302  29.634  0.00  0.00    +0.158 A 
ATOM     27  C   UNL     1       4.201  -0.397  29.170  0.00  0.00    +0.159 A 
ATOM     28  C   UNL     1       5.164   0.221  28.358  0.00  0.00    +0.060 A 
BRANCH  26  29
ATOM     29  O   UNL     1       2.084  -0.339  30.284  0.00  0.00    -0.503 OA
ATOM     30  H   UNL     1       1.570   0.372  30.716  0.00  0.00    +0.292 HD
ENDBRANCH  26  29
BRANCH  27  31
ATOM     31  O   UNL     1       4.302  -1.716  29.522  0.00  0.00    -0.503 OA
ATOM     32  H   UNL     1       4.420  -2.220  28.694  0.00  0.00    +0.292 HD
ENDBRANCH  27  31
ENDBRANCH  22  23
BRANCH  21  33
ATOM     33  O   UNL     1       8.452   4.250  23.042  0.00  0.00    -0.506 OA
ATOM     34  H   UNL     1       8.522   4.754  22.207  0.00  0.00    +0.292 HD
ENDBRANCH  21  33
BRANCH  18  35
ATOM     35  O   UNL     1       4.212   6.574  23.071  0.00  0.00    -0.461 OA
BRANCH  35  36
ATOM     36  C   UNL     1       2.805   6.308  23.263  0.00  0.00    +0.339 C 
ATOM     37  O   UNL     1       2.448   4.919  23.208  0.00  0.00    -0.331 OA
ATOM     38  C   UNL     1       2.548   4.269  21.925  0.00  0.00    +0.179 C 
ATOM     39  C   UNL     1       1.868   5.041  20.776  0.00  0.00    +0.177 C 
ATOM     40  C   UNL     1       2.190   6.540  20.811  0.00  0.00    +0.180 C 
ATOM     41  C   UNL     1       1.978   7.102  22.227  0.00  0.00    +0.214 C 
BRANCH  40  42
ATOM     42  O   UNL     1       3.498   6.783  20.296  0.00  0.00    -0.386 OA
ATOM     43  H   UNL     1       3.430   7.117  19.381  0.00  0.00    +0.210 HD
ENDBRANCH  40  42
BRANCH  41  44
ATOM     44  O   UNL     1       0.580   7.049  22.569  0.00  0.00    -0.383 OA
ATOM     45  H   UNL     1       0.414   6.164  22.965  0.00  0.00    +0.210 HD
ENDBRANCH  41  44
BRANCH  39  46
ATOM     46  O   UNL     1       0.443   4.874  20.921  0.00  0.00    -0.386 OA
ATOM     47  H   UNL     1       0.268   4.664  21.859  0.00  0.00    +0.210 HD
ENDBRANCH  39  46
BRANCH  38  48
ATOM     48  C   UNL     1       3.994   3.857  21.616  0.00  0.00    +0.190 C 
BRANCH  48  49
ATOM     49  O   UNL     1       4.324   2.624  22.259  0.00  0.00    -0.392 OA
ATOM     50  H   UNL     1       3.767   1.925  21.875  0.00  0.00    +0.210 HD
ENDBRANCH  48  49
ENDBRANCH  38  48
ENDBRANCH  35  36
ENDBRANCH  18  35
ENDBRANCH  11  12
ENDBRANCH   2  11
BRANCH   1  51
ATOM     51  O   UNL     1       7.355  -2.357  26.698  0.00  0.00    -0.337 OA
BRANCH  51  54
ATOM     52  C   UNL     1       4.177  -4.133  26.971  0.00  0.00    +0.190 C 
ATOM     53  O   UNL     1       5.193  -3.139  27.233  0.00  0.00    -0.339 OA
ATOM     54  C   UNL     1       6.502  -3.523  26.718  0.00  0.00    +0.282 C 
ATOM     55  C   UNL     1       6.971  -4.734  27.589  0.00  0.00    +0.201 C 
ATOM     56  C   UNL     1       5.972  -5.884  27.324  0.00  0.00    +0.179 C 
ATOM     57  C   UNL     1       4.525  -5.481  27.631  0.00  0.00    +0.178 C 
BRANCH  57  58
ATOM     58  O   UNL     1       3.678  -6.543  27.157  0.00  0.00    -0.386 OA
ATOM     59  H   UNL     1       4.002  -7.374  27.552  0.00  0.00    +0.210 HD
ENDBRANCH  57  58
BRANCH  55  60
ATOM     60  O   UNL     1       8.290  -5.226  27.335  0.00  0.00    -0.384 OA
ATOM     61  H   UNL     1       8.934  -4.726  27.853  0.00  0.00    +0.210 HD
ENDBRANCH  55  60
BRANCH  56  62
ATOM     62  O   UNL     1       6.290  -7.064  28.080  0.00  0.00    -0.386 OA
ATOM     63  H   UNL     1       5.994  -7.812  27.524  0.00  0.00    +0.210 HD
ENDBRANCH  56  62
BRANCH  52  64
ATOM     64  C   UNL     1       2.799  -3.640  27.477  0.00  0.00    +0.266 C 
BRANCH  64  65
ATOM     65  O   UNL     1       2.258  -2.547  26.688  0.00  0.00    -0.459 OA
BRANCH  65  66
ATOM     66  C   UNL     1       1.280  -2.879  25.797  0.00  0.00    +0.332 C 
ATOM     67  O   UNL     1       0.663  -2.097  25.094  0.00  0.00    -0.246 OA
BRANCH  66  69
ATOM     68  C   UNL     1       1.317  -5.134  24.781  0.00  0.00    +0.015 C 
ATOM     69  C   UNL     1       1.054  -4.348  25.843  0.00  0.00    +0.092 C 
BRANCH  68  74
ATOM     70  C   UNL     1       0.629  -8.729  25.864  0.00  0.00    +0.166 A 
ATOM     71  C   UNL     1       0.618  -9.375  24.629  0.00  0.00    +0.201 A 
ATOM     72  C   UNL     1       0.802  -8.640  23.457  0.00  0.00    +0.163 A 
ATOM     73  C   UNL     1       1.001  -7.263  23.487  0.00  0.00    +0.057 A 
ATOM     74  C   UNL     1       1.023  -6.585  24.712  0.00  0.00    -0.018 A 
ATOM     75  C   UNL     1       0.857  -7.337  25.893  0.00  0.00    +0.057 A 
BRANCH  70  77
ATOM     76  C   UNL     1       0.927  -8.546  28.217  0.00  0.00    +0.277 C 
ATOM     77  O   UNL     1       0.499  -9.316  27.096  0.00  0.00    -0.491 OA
ENDBRANCH  70  77
BRANCH  72  78
ATOM     78  O   UNL     1       0.802  -9.340  22.277  0.00  0.00    -0.503 OA
ATOM     79  H   UNL     1       0.560  -8.731  21.558  0.00  0.00    +0.292 HD
ENDBRANCH  72  78
BRANCH  71  80
ATOM     80  O   UNL     1       0.476 -10.731  24.500  0.00  0.00    -0.501 OA
ATOM     81  H   UNL     1       0.041 -11.018  25.327  0.00  0.00    +0.292 HD
ENDBRANCH  71  80
ENDBRANCH  68  74
ENDBRANCH  66  69
ENDBRANCH  65  66
ENDBRANCH  64  65
ENDBRANCH  52  64
ENDBRANCH  51  54
ENDBRANCH   1  51
BRANCH   4  82
ATOM     82  C   UNL     1       8.458   0.921  22.058  0.00  0.00    +0.190 C 
BRANCH  82  83
ATOM     83  O   UNL     1       9.693   1.175  21.392  0.00  0.00    -0.392 OA
ATOM     84  H   UNL     1       9.472   1.345  20.458  0.00  0.00    +0.210 HD
ENDBRANCH  82  83
ENDBRANCH   4  82
TORSDOF 30
ENDMDL
MODEL 7
REMARK VINA RESULT:      -3.1      2.135      5.043
REMARK  Name = 
REMARK  31 active torsions:
REMARK  status: ('A' for Active; 'I' for Inactive)
REMARK    1  A    between atoms: C_1  and  O_2
REMARK    2  A    between atoms: O_2  and  C_3
REMARK    3  A    between atoms: C_5  and  C_11
REMARK    4  A    between atoms: C_7  and  O_10
REMARK    5  A    between atoms: C_8  and  O_9
REMARK    6  A    between atoms: C_12  and  C_13
REMARK    7  A    between atoms: C_13  and  O_15
REMARK    8  A    between atoms: O_15  and  C_16
REMARK    9  A    between atoms: C_16  and  C_17
REMARK   10  A    between atoms: C_19  and  O_84
REMARK   11  A    between atoms: C_21  and  O_83
REMARK   12  A    between atoms: C_23  and  O_82
REMARK   13  A    between atoms: C_25  and  O_28
REMARK   14  A    between atoms: O_28  and  C_29
REMARK   15  A    between atoms: C_31  and  O_81
REMARK   16  A    between atoms: C_33  and  O_80
REMARK   17  A    between atoms: C_35  and  C_78
REMARK   18  A    between atoms: C_38  and  O_40
REMARK   19  A    between atoms: O_40  and  C_41
REMARK   20  A    between atoms: C_42  and  C_70
REMARK   21  A    between atoms: C_46  and  O_53
REMARK   22  A    between atoms: C_48  and  O_52
REMARK   23  A    between atoms: O_53  and  C_54
REMARK   24  A    between atoms: C_56  and  O_69
REMARK   25  A    between atoms: C_58  and  O_68
REMARK   26  A    between atoms: C_60  and  O_67
REMARK   27  A    between atoms: C_62  and  C_65
REMARK   28  A    between atoms: C_65  and  O_66
REMARK   29  A    between atoms: C_72  and  O_77
REMARK   30  A    between atoms: C_73  and  O_76
REMARK   31  A    between atoms: C_78  and  O_79
REMARK                            x       y       z     vdW  Elec       q    Type
REMARK                         _______ _______ _______ _____ _____    ______ ____
ROOT
ATOM      1  C   UNL     1       3.772   2.288  26.092  0.00  0.00    +0.221 C 
ATOM      2  C   UNL     1       4.286   3.229  27.235  0.00  0.00    +0.340 C 
ATOM      3  O   UNL     1       3.169   3.517  28.109  0.00  0.00    -0.331 OA
ATOM      4  C   UNL     1       2.286   4.471  27.474  0.00  0.00    +0.179 C 
ATOM      5  C   UNL     1       1.739   3.911  26.149  0.00  0.00    +0.177 C 
ATOM      6  C   UNL     1       2.834   3.246  25.276  0.00  0.00    +0.180 C 
ENDROOT
BRANCH   5   7
ATOM      7  O   UNL     1       1.141   4.984  25.405  0.00  0.00    -0.386 OA
ATOM      8  H   UNL     1       0.752   4.569  24.610  0.00  0.00    +0.210 HD
ENDBRANCH   5   7
BRANCH   6   9
ATOM      9  O   UNL     1       2.168   2.583  24.192  0.00  0.00    -0.386 OA
ATOM     10  H   UNL     1       1.253   2.428  24.493  0.00  0.00    +0.210 HD
ENDBRANCH   6   9
BRANCH   2  11
ATOM     11  O   UNL     1       5.393   2.722  28.002  0.00  0.00    -0.453 OA
BRANCH  11  12
ATOM     12  C   UNL     1       5.200   1.441  28.543  0.00  0.00    +0.214 A 
ATOM     13  C   UNL     1       4.110   1.194  29.562  0.00  0.00    +0.238 A 
ATOM     14  O   UNL     1       3.715   2.085  30.303  0.00  0.00    -0.283 OA
ATOM     15  C   UNL     1       3.584  -0.175  29.657  0.00  0.00    +0.109 A 
ATOM     16  C   UNL     1       4.454  -1.183  29.293  0.00  0.00    +0.147 A 
ATOM     17  C   UNL     1       4.072  -2.528  29.438  0.00  0.00    +0.093 A 
ATOM     18  C   UNL     1       2.805  -2.873  29.908  0.00  0.00    +0.131 A 
ATOM     19  C   UNL     1       1.920  -1.840  30.273  0.00  0.00    +0.092 A 
ATOM     20  O   UNL     1       5.719  -0.904  28.832  0.00  0.00    -0.451 OA
ATOM     21  C   UNL     1       2.312  -0.513  30.152  0.00  0.00    +0.135 A 
ATOM     22  C   UNL     1       6.013   0.376  28.309  0.00  0.00    +0.181 A 
BRANCH  22  23
ATOM     23  C   UNL     1       7.279   0.343  27.479  0.00  0.00    +0.025 A 
ATOM     24  C   UNL     1       8.025  -0.865  27.430  0.00  0.00    +0.015 A 
ATOM     25  C   UNL     1       9.078  -1.067  26.527  0.00  0.00    +0.050 A 
ATOM     26  C   UNL     1       9.430  -0.048  25.671  0.00  0.00    +0.158 A 
ATOM     27  C   UNL     1       8.834   1.198  25.802  0.00  0.00    +0.159 A 
ATOM     28  C   UNL     1       7.768   1.403  26.691  0.00  0.00    +0.060 A 
BRANCH  26  29
ATOM     29  O   UNL     1      10.353  -0.283  24.694  0.00  0.00    -0.503 OA
ATOM     30  H   UNL     1      10.114  -1.157  24.326  0.00  0.00    +0.292 HD
ENDBRANCH  26  29
BRANCH  27  31
ATOM     31  O   UNL     1       9.315   2.210  25.017  0.00  0.00    -0.503 OA
ATOM     32  H   UNL     1      10.056   1.839  24.500  0.00  0.00    +0.292 HD
ENDBRANCH  27  31
ENDBRANCH  22  23
BRANCH  21  33
ATOM     33  O   UNL     1       1.419   0.476  30.485  0.00  0.00    -0.506 OA
ATOM     34  H   UNL     1       0.820   0.641  29.730  0.00  0.00    +0.292 HD
ENDBRANCH  21  33
BRANCH  18  35
ATOM     35  O   UNL     1       2.505  -4.212  30.004  0.00  0.00    -0.461 OA
BRANCH  35  36
ATOM     36  C   UNL     1       3.237  -5.140  29.175  0.00  0.00    +0.339 C 
ATOM     37  O   UNL     1       2.858  -5.130  27.791  0.00  0.00    -0.331 OA
ATOM     38  C   UNL     1       1.551  -5.643  27.467  0.00  0.00    +0.179 C 
ATOM     39  C   UNL     1       1.243  -7.017  28.095  0.00  0.00    +0.177 C 
ATOM     40  C   UNL     1       1.663  -7.093  29.568  0.00  0.00    +0.180 C 
ATOM     41  C   UNL     1       3.099  -6.570  29.745  0.00  0.00    +0.214 C 
BRANCH  40  42
ATOM     42  O   UNL     1       0.711  -6.422  30.394  0.00  0.00    -0.386 OA
ATOM     43  H   UNL     1       0.955  -5.481  30.471  0.00  0.00    +0.210 HD
ENDBRANCH  40  42
BRANCH  41  44
ATOM     44  O   UNL     1       4.024  -7.454  29.084  0.00  0.00    -0.383 OA
ATOM     45  H   UNL     1       4.124  -7.130  28.161  0.00  0.00    +0.210 HD
ENDBRANCH  41  44
BRANCH  39  46
ATOM     46  O   UNL     1       1.982  -8.010  27.356  0.00  0.00    -0.386 OA
ATOM     47  H   UNL     1       2.701  -8.331  27.936  0.00  0.00    +0.210 HD
ENDBRANCH  39  46
BRANCH  38  48
ATOM     48  C   UNL     1       0.458  -4.594  27.721  0.00  0.00    +0.190 C 
BRANCH  48  49
ATOM     49  O   UNL     1       0.785  -3.351  27.096  0.00  0.00    -0.392 OA
ATOM     50  H   UNL     1       0.061  -2.725  27.272  0.00  0.00    +0.210 HD
ENDBRANCH  48  49
ENDBRANCH  38  48
ENDBRANCH  35  36
ENDBRANCH  18  35
ENDBRANCH  11  12
ENDBRANCH   2  11
BRANCH   1  51
ATOM     51  O   UNL     1       4.733   1.686  25.182  0.00  0.00    -0.337 OA
BRANCH  51  54
ATOM     52  C   UNL     1       6.370  -1.415  24.165  0.00  0.00    +0.190 C 
ATOM     53  O   UNL     1       5.696  -0.142  24.040  0.00  0.00    -0.339 OA
ATOM     54  C   UNL     1       5.062   0.283  25.283  0.00  0.00    +0.282 C 
ATOM     55  C   UNL     1       3.880  -0.711  25.527  0.00  0.00    +0.201 C 
ATOM     56  C   UNL     1       4.511  -2.107  25.740  0.00  0.00    +0.179 C 
ATOM     57  C   UNL     1       5.387  -2.535  24.557  0.00  0.00    +0.178 C 
BRANCH  57  58
ATOM     58  O   UNL     1       6.076  -3.736  24.950  0.00  0.00    -0.386 OA
ATOM     59  H   UNL     1       7.033  -3.553  24.901  0.00  0.00    +0.210 HD
ENDBRANCH  57  58
BRANCH  55  60
ATOM     60  O   UNL     1       3.037  -0.431  26.648  0.00  0.00    -0.384 OA
ATOM     61  H   UNL     1       2.251   0.051  26.359  0.00  0.00    +0.210 HD
ENDBRANCH  55  60
BRANCH  56  62
ATOM     62  O   UNL     1       3.519  -3.121  25.967  0.00  0.00    -0.386 OA
ATOM     63  H   UNL     1       2.696  -2.634  26.170  0.00  0.00    +0.210 HD
ENDBRANCH  56  62
BRANCH  52  64
ATOM     64  C   UNL     1       7.080  -1.779  22.838  0.00  0.00    +0.266 C 
BRANCH  64  65
ATOM     65  O   UNL     1       8.481  -1.397  22.816  0.00  0.00    -0.459 OA
BRANCH  65  66
ATOM     66  C   UNL     1       8.824  -0.426  21.922  0.00  0.00    +0.332 C 
ATOM     67  O   UNL     1       9.754  -0.480  21.136  0.00  0.00    -0.246 OA
BRANCH  66  69
ATOM     68  C   UNL     1       8.330   1.998  21.911  0.00  0.00    +0.015 C 
ATOM     69  C   UNL     1       7.903   0.731  22.080  0.00  0.00    +0.092 C 
BRANCH  68  74
ATOM     70  C   UNL     1       7.356   5.585  22.777  0.00  0.00    +0.166 A 
ATOM     71  C   UNL     1       5.966   5.486  22.770  0.00  0.00    +0.201 A 
ATOM     72  C   UNL     1       5.356   4.271  22.456  0.00  0.00    +0.163 A 
ATOM     73  C   UNL     1       6.106   3.140  22.148  0.00  0.00    +0.057 A 
ATOM     74  C   UNL     1       7.505   3.205  22.151  0.00  0.00    -0.018 A 
ATOM     75  C   UNL     1       8.114   4.430  22.490  0.00  0.00    +0.057 A 
BRANCH  70  77
ATOM     76  C   UNL     1       9.391   6.457  23.647  0.00  0.00    +0.277 C 
ATOM     77  O   UNL     1       8.097   6.693  23.098  0.00  0.00    -0.491 OA
ENDBRANCH  70  77
BRANCH  72  78
ATOM     78  O   UNL     1       3.985   4.237  22.488  0.00  0.00    -0.503 OA
ATOM     79  H   UNL     1       3.652   5.148  22.414  0.00  0.00    +0.292 HD
ENDBRANCH  72  78
BRANCH  71  80
ATOM     80  O   UNL     1       5.144   6.530  23.103  0.00  0.00    -0.501 OA
ATOM     81  H   UNL     1       4.276   6.300  22.716  0.00  0.00    +0.292 HD
ENDBRANCH  71  80
ENDBRANCH  68  74
ENDBRANCH  66  69
ENDBRANCH  65  66
ENDBRANCH  64  65
ENDBRANCH  52  64
ENDBRANCH  51  54
ENDBRANCH   1  51
BRANCH   4  82
ATOM     82  C   UNL     1       1.151   4.855  28.441  0.00  0.00    +0.190 C 
BRANCH  82  83
ATOM     83  O   UNL     1       0.716   6.198  28.233  0.00  0.00    -0.392 OA
ATOM     84  H   UNL     1      -0.211   6.143  27.938  0.00  0.00    +0.210 HD
ENDBRANCH  82  83
ENDBRANCH   4  82
TORSDOF 30
ENDMDL
