MODEL 1
REMARK VINA RESULT:      -7.6      0.000      0.000
REMARK  Name = 
REMARK  16 active torsions:
REMARK  status: ('A' for Active; 'I' for Inactive)
REMARK    1  A    between atoms: C_1  and  C_2
REMARK    2  A    between atoms: C_4  and  O_52
REMARK    3  A    between atoms: C_6  and  O_51
REMARK    4  A    between atoms: C_8  and  O_50
REMARK    5  A    between atoms: C_10  and  O_13
REMARK    6  A    between atoms: O_13  and  C_14
REMARK    7  A    between atoms: C_16  and  O_49
REMARK    8  A    between atoms: C_18  and  O_48
REMARK    9  A    between atoms: C_20  and  C_47
REMARK   10  A    between atoms: C_23  and  O_25
REMARK   11  A    between atoms: O_25  and  C_26
REMARK   12  A    between atoms: C_27  and  C_39
REMARK   13  A    between atoms: C_31  and  O_38
REMARK   14  A    between atoms: C_33  and  O_37
REMARK   15  A    between atoms: C_41  and  O_46
REMARK   16  A    between atoms: C_42  and  O_45
REMARK                            x       y       z     vdW  Elec       q    Type
REMARK                         _______ _______ _______ _____ _____    ______ ____
ROOT
ATOM      1  O   UNL     1       7.148  -3.854  25.256  0.00  0.00    -0.453 OA
ENDROOT
BRANCH   1   2
ATOM      2  C   UNL     1       7.546  -2.587  24.880  0.00  0.00    +0.214 A 
ATOM      3  C   UNL     1       8.827  -2.353  24.127  0.00  0.00    +0.238 A 
ATOM      4  O   UNL     1       9.743  -3.162  24.082  0.00  0.00    -0.283 OA
ATOM      5  C   UNL     1       8.964  -1.090  23.415  0.00  0.00    +0.109 A 
ATOM      6  C   UNL     1       8.075  -0.072  23.751  0.00  0.00    +0.147 A 
ATOM      7  C   UNL     1       8.148   1.167  23.116  0.00  0.00    +0.092 A 
ATOM      8  C   UNL     1       9.134   1.373  22.151  0.00  0.00    +0.124 A 
ATOM      9  C   UNL     1      10.029   0.376  21.812  0.00  0.00    +0.091 A 
ATOM     10  O   UNL     1       7.128  -0.218  24.721  0.00  0.00    -0.451 OA
ATOM     11  C   UNL     1       9.938  -0.864  22.441  0.00  0.00    +0.135 A 
ATOM     12  C   UNL     1       6.800  -1.494  25.176  0.00  0.00    +0.181 A 
BRANCH  12  13
ATOM     13  C   UNL     1       5.568  -1.438  26.045  0.00  0.00    +0.025 A 
ATOM     14  C   UNL     1       5.709  -1.014  27.390  0.00  0.00    +0.015 A 
ATOM     15  C   UNL     1       4.674  -1.134  28.328  0.00  0.00    +0.050 A 
ATOM     16  C   UNL     1       3.463  -1.657  27.925  0.00  0.00    +0.158 A 
ATOM     17  C   UNL     1       3.266  -2.021  26.599  0.00  0.00    +0.159 A 
ATOM     18  C   UNL     1       4.306  -1.928  25.660  0.00  0.00    +0.060 A 
BRANCH  16  19
ATOM     19  O   UNL     1       2.471  -1.829  28.848  0.00  0.00    -0.503 OA
ATOM     20  H   UNL     1       2.694  -2.666  29.301  0.00  0.00    +0.292 HD
ENDBRANCH  16  19
BRANCH  17  21
ATOM     21  O   UNL     1       2.023  -2.490  26.262  0.00  0.00    -0.503 OA
ATOM     22  H   UNL     1       1.395  -2.195  26.942  0.00  0.00    +0.292 HD
ENDBRANCH  17  21
ENDBRANCH  12  13
BRANCH   8  23
ATOM     23  O   UNL     1       9.241   2.567  21.493  0.00  0.00    -0.507 OA
ATOM     24  H   UNL     1       8.353   2.930  21.344  0.00  0.00    +0.292 HD
ENDBRANCH   8  23
BRANCH  11  25
ATOM     25  O   UNL     1      10.800  -1.861  22.070  0.00  0.00    -0.506 OA
ATOM     26  H   UNL     1      11.519  -1.946  22.718  0.00  0.00    +0.292 HD
ENDBRANCH  11  25
ENDBRANCH   1   2
BRANCH   1  28
ATOM     27  C   UNL     1       5.180  -5.453  25.089  0.00  0.00    +0.221 C 
ATOM     28  C   UNL     1       6.381  -4.714  24.396  0.00  0.00    +0.340 C 
ATOM     29  O   UNL     1       6.105  -4.140  23.112  0.00  0.00    -0.334 OA
ATOM     30  C   UNL     1       5.482  -5.024  22.168  0.00  0.00    +0.150 C 
ATOM     31  C   UNL     1       6.500  -6.018  21.595  0.00  0.00    +0.041 C 
ATOM     32  C   UNL     1       4.195  -5.653  22.738  0.00  0.00    +0.174 C 
ATOM     33  C   UNL     1       4.423  -6.366  24.081  0.00  0.00    +0.180 C 
BRANCH  32  34
ATOM     34  O   UNL     1       3.193  -4.649  22.894  0.00  0.00    -0.387 OA
ATOM     35  H   UNL     1       2.839  -4.703  23.810  0.00  0.00    +0.210 HD
ENDBRANCH  32  34
BRANCH  33  36
ATOM     36  O   UNL     1       5.073  -7.615  23.808  0.00  0.00    -0.386 OA
ATOM     37  H   UNL     1       4.425  -8.327  23.982  0.00  0.00    +0.210 HD
ENDBRANCH  33  36
BRANCH  27  38
ATOM     38  O   UNL     1       5.474  -6.021  26.393  0.00  0.00    -0.337 OA
BRANCH  38  42
ATOM     39  C   UNL     1       1.378  -6.518  27.676  0.00  0.00    +0.041 C 
ATOM     40  C   UNL     1       2.327  -5.416  28.155  0.00  0.00    +0.149 C 
ATOM     41  O   UNL     1       3.475  -5.226  27.301  0.00  0.00    -0.343 OA
ATOM     42  C   UNL     1       4.411  -6.319  27.305  0.00  0.00    +0.282 C 
ATOM     43  C   UNL     1       4.949  -6.563  28.735  0.00  0.00    +0.201 C 
ATOM     44  C   UNL     1       3.833  -6.664  29.768  0.00  0.00    +0.179 C 
ATOM     45  C   UNL     1       2.788  -5.574  29.610  0.00  0.00    +0.174 C 
BRANCH  43  46
ATOM     46  O   UNL     1       5.662  -7.808  28.821  0.00  0.00    -0.384 OA
ATOM     47  H   UNL     1       6.101  -7.827  29.696  0.00  0.00    +0.210 HD
ENDBRANCH  43  46
BRANCH  44  48
ATOM     48  O   UNL     1       3.274  -7.988  29.721  0.00  0.00    -0.386 OA
ATOM     49  H   UNL     1       2.629  -8.051  28.992  0.00  0.00    +0.210 HD
ENDBRANCH  44  48
BRANCH  45  50
ATOM     50  O   UNL     1       3.371  -4.336  30.045  0.00  0.00    -0.387 OA
ATOM     51  H   UNL     1       3.102  -4.190  30.973  0.00  0.00    +0.210 HD
ENDBRANCH  45  50
ENDBRANCH  38  42
ENDBRANCH  27  38
ENDBRANCH   1  28
TORSDOF 14
ENDMDL
MODEL 2
REMARK VINA RESULT:      -7.5      3.203      9.379
REMARK  Name = 
REMARK  16 active torsions:
REMARK  status: ('A' for Active; 'I' for Inactive)
REMARK    1  A    between atoms: C_1  and  C_2
REMARK    2  A    between atoms: C_4  and  O_52
REMARK    3  A    between atoms: C_6  and  O_51
REMARK    4  A    between atoms: C_8  and  O_50
REMARK    5  A    between atoms: C_10  and  O_13
REMARK    6  A    between atoms: O_13  and  C_14
REMARK    7  A    between atoms: C_16  and  O_49
REMARK    8  A    between atoms: C_18  and  O_48
REMARK    9  A    between atoms: C_20  and  C_47
REMARK   10  A    between atoms: C_23  and  O_25
REMARK   11  A    between atoms: O_25  and  C_26
REMARK   12  A    between atoms: C_27  and  C_39
REMARK   13  A    between atoms: C_31  and  O_38
REMARK   14  A    between atoms: C_33  and  O_37
REMARK   15  A    between atoms: C_41  and  O_46
REMARK   16  A    between atoms: C_42  and  O_45
REMARK                            x       y       z     vdW  Elec       q    Type
REMARK                         _______ _______ _______ _____ _____    ______ ____
ROOT
ATOM      1  O   UNL     1       5.630   0.164  24.496  0.00  0.00    -0.453 OA
ENDROOT
BRANCH   1   2
ATOM      2  C   UNL     1       6.050  -1.128  24.258  0.00  0.00    +0.214 A 
ATOM      3  C   UNL     1       5.150  -2.308  24.501  0.00  0.00    +0.238 A 
ATOM      4  O   UNL     1       4.154  -2.265  25.209  0.00  0.00    -0.283 OA
ATOM      5  C   UNL     1       5.497  -3.561  23.845  0.00  0.00    +0.109 A 
ATOM      6  C   UNL     1       6.787  -3.673  23.332  0.00  0.00    +0.147 A 
ATOM      7  C   UNL     1       7.193  -4.846  22.695  0.00  0.00    +0.092 A 
ATOM      8  C   UNL     1       6.292  -5.906  22.594  0.00  0.00    +0.124 A 
ATOM      9  C   UNL     1       5.012  -5.814  23.105  0.00  0.00    +0.091 A 
ATOM     10  O   UNL     1       7.711  -2.678  23.451  0.00  0.00    -0.451 OA
ATOM     11  C   UNL     1       4.610  -4.632  23.726  0.00  0.00    +0.135 A 
ATOM     12  C   UNL     1       7.297  -1.393  23.795  0.00  0.00    +0.181 A 
BRANCH  12  13
ATOM     13  C   UNL     1       8.431  -0.414  23.619  0.00  0.00    +0.025 A 
ATOM     14  C   UNL     1       9.303  -0.186  24.713  0.00  0.00    +0.015 A 
ATOM     15  C   UNL     1      10.244   0.854  24.720  0.00  0.00    +0.050 A 
ATOM     16  C   UNL     1      10.350   1.668  23.611  0.00  0.00    +0.158 A 
ATOM     17  C   UNL     1       9.558   1.432  22.494  0.00  0.00    +0.159 A 
ATOM     18  C   UNL     1       8.596   0.410  22.489  0.00  0.00    +0.060 A 
BRANCH  16  19
ATOM     19  O   UNL     1      11.224   2.716  23.635  0.00  0.00    -0.503 OA
ATOM     20  H   UNL     1      12.093   2.322  23.422  0.00  0.00    +0.292 HD
ENDBRANCH  16  19
BRANCH  17  21
ATOM     21  O   UNL     1       9.751   2.254  21.413  0.00  0.00    -0.503 OA
ATOM     22  H   UNL     1       9.540   3.162  21.684  0.00  0.00    +0.292 HD
ENDBRANCH  17  21
ENDBRANCH  12  13
BRANCH   8  23
ATOM     23  O   UNL     1       6.641  -7.072  21.970  0.00  0.00    -0.507 OA
ATOM     24  H   UNL     1       7.604  -7.095  21.851  0.00  0.00    +0.292 HD
ENDBRANCH   8  23
BRANCH  11  25
ATOM     25  O   UNL     1       3.327  -4.533  24.193  0.00  0.00    -0.506 OA
ATOM     26  H   UNL     1       3.096  -5.314  24.722  0.00  0.00    +0.292 HD
ENDBRANCH  11  25
ENDBRANCH   1   2
BRANCH   1  28
ATOM     27  C   UNL     1       5.932   2.453  25.557  0.00  0.00    +0.221 C 
ATOM     28  C   UNL     1       5.980   0.888  25.688  0.00  0.00    +0.340 C 
ATOM     29  O   UNL     1       5.398   0.342  26.879  0.00  0.00    -0.334 OA
ATOM     30  C   UNL     1       5.848   0.935  28.107  0.00  0.00    +0.150 C 
ATOM     31  C   UNL     1       7.253   0.442  28.470  0.00  0.00    +0.041 C 
ATOM     32  C   UNL     1       5.667   2.466  28.100  0.00  0.00    +0.174 C 
ATOM     33  C   UNL     1       6.338   3.142  26.893  0.00  0.00    +0.180 C 
BRANCH  32  34
ATOM     34  O   UNL     1       4.277   2.790  28.118  0.00  0.00    -0.387 OA
ATOM     35  H   UNL     1       4.188   3.767  28.190  0.00  0.00    +0.210 HD
ENDBRANCH  32  34
BRANCH  33  36
ATOM     36  O   UNL     1       7.750   3.174  27.139  0.00  0.00    -0.386 OA
ATOM     37  H   UNL     1       7.883   3.036  28.099  0.00  0.00    +0.210 HD
ENDBRANCH  33  36
BRANCH  27  38
ATOM     38  O   UNL     1       6.518   2.989  24.342  0.00  0.00    -0.337 OA
BRANCH  38  42
ATOM     39  C   UNL     1       5.242   7.108  24.060  0.00  0.00    +0.041 C 
ATOM     40  C   UNL     1       5.808   6.277  22.906  0.00  0.00    +0.149 C 
ATOM     41  O   UNL     1       5.780   4.854  23.145  0.00  0.00    -0.343 OA
ATOM     42  C   UNL     1       6.673   4.403  24.180  0.00  0.00    +0.282 C 
ATOM     43  C   UNL     1       8.134   4.773  23.827  0.00  0.00    +0.201 C 
ATOM     44  C   UNL     1       8.287   6.237  23.434  0.00  0.00    +0.179 C 
ATOM     45  C   UNL     1       7.216   6.698  22.463  0.00  0.00    +0.174 C 
BRANCH  43  46
ATOM     46  O   UNL     1       9.007   4.587  24.955  0.00  0.00    -0.384 OA
ATOM     47  H   UNL     1       8.441   4.361  25.721  0.00  0.00    +0.210 HD
ENDBRANCH  43  46
BRANCH  44  48
ATOM     48  O   UNL     1       8.342   7.036  24.629  0.00  0.00    -0.386 OA
ATOM     49  H   UNL     1       7.778   7.825  24.527  0.00  0.00    +0.210 HD
ENDBRANCH  44  48
BRANCH  45  50
ATOM     50  O   UNL     1       7.493   6.102  21.185  0.00  0.00    -0.387 OA
ATOM     51  H   UNL     1       6.768   5.477  20.985  0.00  0.00    +0.210 HD
ENDBRANCH  45  50
ENDBRANCH  38  42
ENDBRANCH  27  38
ENDBRANCH   1  28
TORSDOF 14
ENDMDL
MODEL 3
REMARK VINA RESULT:      -7.4      2.745      8.487
REMARK  Name = 
REMARK  16 active torsions:
REMARK  status: ('A' for Active; 'I' for Inactive)
REMARK    1  A    between atoms: C_1  and  C_2
REMARK    2  A    between atoms: C_4  and  O_52
REMARK    3  A    between atoms: C_6  and  O_51
REMARK    4  A    between atoms: C_8  and  O_50
REMARK    5  A    between atoms: C_10  and  O_13
REMARK    6  A    between atoms: O_13  and  C_14
REMARK    7  A    between atoms: C_16  and  O_49
REMARK    8  A    between atoms: C_18  and  O_48
REMARK    9  A    between atoms: C_20  and  C_47
REMARK   10  A    between atoms: C_23  and  O_25
REMARK   11  A    between atoms: O_25  and  C_26
REMARK   12  A    between atoms: C_27  and  C_39
REMARK   13  A    between atoms: C_31  and  O_38
REMARK   14  A    between atoms: C_33  and  O_37
REMARK   15  A    between atoms: C_41  and  O_46
REMARK   16  A    between atoms: C_42  and  O_45
REMARK                            x       y       z     vdW  Elec       q    Type
REMARK                         _______ _______ _______ _____ _____    ______ ____
ROOT
ATOM      1  O   UNL     1       7.915  -1.056  26.537  0.00  0.00    -0.453 OA
ENDROOT
BRANCH   1   2
ATOM      2  C   UNL     1       7.840  -2.025  25.558  0.00  0.00    +0.214 A 
ATOM      3  C   UNL     1       7.247  -3.380  25.832  0.00  0.00    +0.238 A 
ATOM      4  O   UNL     1       7.102  -3.840  26.956  0.00  0.00    -0.283 OA
ATOM      5  C   UNL     1       6.823  -4.170  24.684  0.00  0.00    +0.109 A 
ATOM      6  C   UNL     1       7.297  -3.779  23.435  0.00  0.00    +0.147 A 
ATOM      7  C   UNL     1       6.939  -4.491  22.290  0.00  0.00    +0.092 A 
ATOM      8  C   UNL     1       6.112  -5.606  22.421  0.00  0.00    +0.124 A 
ATOM      9  C   UNL     1       5.640  -6.012  23.654  0.00  0.00    +0.091 A 
ATOM     10  O   UNL     1       8.145  -2.724  23.271  0.00  0.00    -0.451 OA
ATOM     11  C   UNL     1       5.991  -5.285  24.791  0.00  0.00    +0.135 A 
ATOM     12  C   UNL     1       8.300  -1.800  24.302  0.00  0.00    +0.181 A 
BRANCH  12  13
ATOM     13  C   UNL     1       9.070  -0.598  23.815  0.00  0.00    +0.025 A 
ATOM     14  C   UNL     1      10.129  -0.103  24.617  0.00  0.00    +0.015 A 
ATOM     15  C   UNL     1      10.755   1.125  24.361  0.00  0.00    +0.050 A 
ATOM     16  C   UNL     1      10.350   1.868  23.271  0.00  0.00    +0.158 A 
ATOM     17  C   UNL     1       9.362   1.383  22.424  0.00  0.00    +0.159 A 
ATOM     18  C   UNL     1       8.712   0.168  22.689  0.00  0.00    +0.060 A 
BRANCH  16  19
ATOM     19  O   UNL     1      10.917   3.090  23.050  0.00  0.00    -0.503 OA
ATOM     20  H   UNL     1      10.325   3.726  23.499  0.00  0.00    +0.292 HD
ENDBRANCH  16  19
BRANCH  17  21
ATOM     21  O   UNL     1       9.043   2.155  21.336  0.00  0.00    -0.503 OA
ATOM     22  H   UNL     1       8.081   2.284  21.330  0.00  0.00    +0.292 HD
ENDBRANCH  17  21
ENDBRANCH  12  13
BRANCH   8  23
ATOM     23  O   UNL     1       5.726  -6.331  21.327  0.00  0.00    -0.507 OA
ATOM     24  H   UNL     1       6.491  -6.817  20.979  0.00  0.00    +0.292 HD
ENDBRANCH   8  23
BRANCH  11  25
ATOM     25  O   UNL     1       5.485  -5.668  26.004  0.00  0.00    -0.506 OA
ATOM     26  H   UNL     1       4.533  -5.482  26.049  0.00  0.00    +0.292 HD
ENDBRANCH  11  25
ENDBRANCH   1   2
BRANCH   1  28
ATOM     27  C   UNL     1       6.148   0.668  25.933  0.00  0.00    +0.221 C 
ATOM     28  C   UNL     1       6.767  -0.317  26.989  0.00  0.00    +0.340 C 
ATOM     29  O   UNL     1       5.830  -1.112  27.726  0.00  0.00    -0.334 OA
ATOM     30  C   UNL     1       4.752  -0.383  28.332  0.00  0.00    +0.150 C 
ATOM     31  C   UNL     1       5.229   0.362  29.584  0.00  0.00    +0.041 C 
ATOM     32  C   UNL     1       3.997   0.479  27.300  0.00  0.00    +0.174 C 
ATOM     33  C   UNL     1       4.923   1.427  26.520  0.00  0.00    +0.180 C 
BRANCH  32  34
ATOM     34  O   UNL     1       3.295  -0.363  26.386  0.00  0.00    -0.387 OA
ATOM     35  H   UNL     1       3.926  -1.028  26.030  0.00  0.00    +0.210 HD
ENDBRANCH  32  34
BRANCH  33  36
ATOM     36  O   UNL     1       5.260   2.518  27.387  0.00  0.00    -0.386 OA
ATOM     37  H   UNL     1       4.434   3.006  27.579  0.00  0.00    +0.210 HD
ENDBRANCH  33  36
BRANCH  27  38
ATOM     38  O   UNL     1       7.111   1.460  25.188  0.00  0.00    -0.337 OA
BRANCH  38  42
ATOM     39  C   UNL     1       4.952   4.682  23.284  0.00  0.00    +0.041 C 
ATOM     40  C   UNL     1       6.374   4.240  22.930  0.00  0.00    +0.149 C 
ATOM     41  O   UNL     1       6.711   2.923  23.412  0.00  0.00    -0.343 OA
ATOM     42  C   UNL     1       6.815   2.818  24.844  0.00  0.00    +0.282 C 
ATOM     43  C   UNL     1       7.899   3.784  25.377  0.00  0.00    +0.201 C 
ATOM     44  C   UNL     1       7.731   5.201  24.843  0.00  0.00    +0.179 C 
ATOM     45  C   UNL     1       7.463   5.237  23.349  0.00  0.00    +0.174 C 
BRANCH  43  46
ATOM     46  O   UNL     1       7.835   3.905  26.808  0.00  0.00    -0.384 OA
ATOM     47  H   UNL     1       7.309   4.708  27.004  0.00  0.00    +0.210 HD
ENDBRANCH  43  46
BRANCH  44  48
ATOM     48  O   UNL     1       6.717   5.871  25.611  0.00  0.00    -0.386 OA
ATOM     49  H   UNL     1       7.127   6.361  26.348  0.00  0.00    +0.210 HD
ENDBRANCH  44  48
BRANCH  45  50
ATOM     50  O   UNL     1       8.684   4.896  22.673  0.00  0.00    -0.387 OA
ATOM     51  H   UNL     1       8.657   5.305  21.786  0.00  0.00    +0.210 HD
ENDBRANCH  45  50
ENDBRANCH  38  42
ENDBRANCH  27  38
ENDBRANCH   1  28
TORSDOF 14
ENDMDL
MODEL 4
REMARK VINA RESULT:      -7.3      3.203      9.188
REMARK  Name = 
REMARK  16 active torsions:
REMARK  status: ('A' for Active; 'I' for Inactive)
REMARK    1  A    between atoms: C_1  and  C_2
REMARK    2  A    between atoms: C_4  and  O_52
REMARK    3  A    between atoms: C_6  and  O_51
REMARK    4  A    between atoms: C_8  and  O_50
REMARK    5  A    between atoms: C_10  and  O_13
REMARK    6  A    between atoms: O_13  and  C_14
REMARK    7  A    between atoms: C_16  and  O_49
REMARK    8  A    between atoms: C_18  and  O_48
REMARK    9  A    between atoms: C_20  and  C_47
REMARK   10  A    between atoms: C_23  and  O_25
REMARK   11  A    between atoms: O_25  and  C_26
REMARK   12  A    between atoms: C_27  and  C_39
REMARK   13  A    between atoms: C_31  and  O_38
REMARK   14  A    between atoms: C_33  and  O_37
REMARK   15  A    between atoms: C_41  and  O_46
REMARK   16  A    between atoms: C_42  and  O_45
REMARK                            x       y       z     vdW  Elec       q    Type
REMARK                         _______ _______ _______ _____ _____    ______ ____
ROOT
ATOM      1  O   UNL     1       5.911   0.373  24.570  0.00  0.00    -0.453 OA
ENDROOT
BRANCH   1   2
ATOM      2  C   UNL     1       6.263  -0.935  24.309  0.00  0.00    +0.214 A 
ATOM      3  C   UNL     1       5.309  -2.072  24.552  0.00  0.00    +0.238 A 
ATOM      4  O   UNL     1       4.327  -1.989  25.276  0.00  0.00    -0.283 OA
ATOM      5  C   UNL     1       5.583  -3.332  23.874  0.00  0.00    +0.109 A 
ATOM      6  C   UNL     1       6.857  -3.501  23.339  0.00  0.00    +0.147 A 
ATOM      7  C   UNL     1       7.195  -4.683  22.681  0.00  0.00    +0.092 A 
ATOM      8  C   UNL     1       6.241  -5.696  22.581  0.00  0.00    +0.124 A 
ATOM      9  C   UNL     1       4.975  -5.547  23.113  0.00  0.00    +0.091 A 
ATOM     10  O   UNL     1       7.832  -2.555  23.456  0.00  0.00    -0.451 OA
ATOM     11  C   UNL     1       4.642  -4.356  23.756  0.00  0.00    +0.135 A 
ATOM     12  C   UNL     1       7.488  -1.255  23.823  0.00  0.00    +0.181 A 
BRANCH  12  13
ATOM     13  C   UNL     1       8.667  -0.331  23.641  0.00  0.00    +0.025 A 
ATOM     14  C   UNL     1       9.574  -0.173  24.719  0.00  0.00    +0.015 A 
ATOM     15  C   UNL     1      10.567   0.816  24.725  0.00  0.00    +0.050 A 
ATOM     16  C   UNL     1      10.689   1.650  23.633  0.00  0.00    +0.158 A 
ATOM     17  C   UNL     1       9.861   1.481  22.530  0.00  0.00    +0.159 A 
ATOM     18  C   UNL     1       8.848   0.510  22.526  0.00  0.00    +0.060 A 
BRANCH  16  19
ATOM     19  O   UNL     1      11.617   2.651  23.659  0.00  0.00    -0.503 OA
ATOM     20  H   UNL     1      12.287   2.388  22.998  0.00  0.00    +0.292 HD
ENDBRANCH  16  19
BRANCH  17  21
ATOM     21  O   UNL     1      10.071   2.316  21.463  0.00  0.00    -0.503 OA
ATOM     22  H   UNL     1      10.521   3.113  21.789  0.00  0.00    +0.292 HD
ENDBRANCH  17  21
ENDBRANCH  12  13
BRANCH   8  23
ATOM     23  O   UNL     1       6.522  -6.869  21.937  0.00  0.00    -0.507 OA
ATOM     24  H   UNL     1       6.885  -7.505  22.575  0.00  0.00    +0.292 HD
ENDBRANCH   8  23
BRANCH  11  25
ATOM     25  O   UNL     1       3.372  -4.199  24.244  0.00  0.00    -0.506 OA
ATOM     26  H   UNL     1       2.924  -3.464  23.794  0.00  0.00    +0.292 HD
ENDBRANCH  11  25
ENDBRANCH   1   2
BRANCH   1  28
ATOM     27  C   UNL     1       6.442   2.361  26.063  0.00  0.00    +0.221 C 
ATOM     28  C   UNL     1       5.855   0.912  25.902  0.00  0.00    +0.340 C 
ATOM     29  O   UNL     1       4.607   0.665  26.565  0.00  0.00    -0.334 OA
ATOM     30  C   UNL     1       4.565   1.044  27.949  0.00  0.00    +0.150 C 
ATOM     31  C   UNL     1       5.320   0.031  28.817  0.00  0.00    +0.041 C 
ATOM     32  C   UNL     1       4.973   2.517  28.150  0.00  0.00    +0.174 C 
ATOM     33  C   UNL     1       6.345   2.846  27.538  0.00  0.00    +0.180 C 
BRANCH  32  34
ATOM     34  O   UNL     1       3.981   3.376  27.588  0.00  0.00    -0.387 OA
ATOM     35  H   UNL     1       3.664   2.975  26.748  0.00  0.00    +0.210 HD
ENDBRANCH  32  34
BRANCH  33  36
ATOM     36  O   UNL     1       7.351   2.308  28.408  0.00  0.00    -0.386 OA
ATOM     37  H   UNL     1       7.649   3.033  28.994  0.00  0.00    +0.210 HD
ENDBRANCH  33  36
BRANCH  27  38
ATOM     38  O   UNL     1       7.701   2.596  25.379  0.00  0.00    -0.337 OA
BRANCH  38  42
ATOM     39  C   UNL     1       9.622   6.045  23.624  0.00  0.00    +0.041 C 
ATOM     40  C   UNL     1       8.354   6.080  24.482  0.00  0.00    +0.149 C 
ATOM     41  O   UNL     1       8.148   4.885  25.263  0.00  0.00    -0.343 OA
ATOM     42  C   UNL     1       7.840   3.710  24.491  0.00  0.00    +0.282 C 
ATOM     43  C   UNL     1       6.553   3.934  23.661  0.00  0.00    +0.201 C 
ATOM     44  C   UNL     1       6.588   5.236  22.871  0.00  0.00    +0.179 C 
ATOM     45  C   UNL     1       7.076   6.411  23.699  0.00  0.00    +0.174 C 
BRANCH  43  46
ATOM     46  O   UNL     1       6.377   2.897  22.680  0.00  0.00    -0.384 OA
ATOM     47  H   UNL     1       5.709   2.277  23.037  0.00  0.00    +0.210 HD
ENDBRANCH  43  46
BRANCH  44  48
ATOM     48  O   UNL     1       7.359   5.034  21.674  0.00  0.00    -0.386 OA
ATOM     49  H   UNL     1       6.771   4.779  20.939  0.00  0.00    +0.210 HD
ENDBRANCH  44  48
BRANCH  45  50
ATOM     50  O   UNL     1       6.041   6.754  24.633  0.00  0.00    -0.387 OA
ATOM     51  H   UNL     1       6.127   7.706  24.838  0.00  0.00    +0.210 HD
ENDBRANCH  45  50
ENDBRANCH  38  42
ENDBRANCH  27  38
ENDBRANCH   1  28
TORSDOF 14
ENDMDL
MODEL 5
REMARK VINA RESULT:      -7.2      2.052      6.407
REMARK  Name = 
REMARK  16 active torsions:
REMARK  status: ('A' for Active; 'I' for Inactive)
REMARK    1  A    between atoms: C_1  and  C_2
REMARK    2  A    between atoms: C_4  and  O_52
REMARK    3  A    between atoms: C_6  and  O_51
REMARK    4  A    between atoms: C_8  and  O_50
REMARK    5  A    between atoms: C_10  and  O_13
REMARK    6  A    between atoms: O_13  and  C_14
REMARK    7  A    between atoms: C_16  and  O_49
REMARK    8  A    between atoms: C_18  and  O_48
REMARK    9  A    between atoms: C_20  and  C_47
REMARK   10  A    between atoms: C_23  and  O_25
REMARK   11  A    between atoms: O_25  and  C_26
REMARK   12  A    between atoms: C_27  and  C_39
REMARK   13  A    between atoms: C_31  and  O_38
REMARK   14  A    between atoms: C_33  and  O_37
REMARK   15  A    between atoms: C_41  and  O_46
REMARK   16  A    between atoms: C_42  and  O_45
REMARK                            x       y       z     vdW  Elec       q    Type
REMARK                         _______ _______ _______ _____ _____    ______ ____
ROOT
ATOM      1  O   UNL     1       7.521  -1.207  26.256  0.00  0.00    -0.453 OA
ENDROOT
BRANCH   1   2
ATOM      2  C   UNL     1       7.581  -2.160  25.260  0.00  0.00    +0.214 A 
ATOM      3  C   UNL     1       6.954  -3.517  25.428  0.00  0.00    +0.238 A 
ATOM      4  O   UNL     1       6.654  -3.994  26.513  0.00  0.00    -0.283 OA
ATOM      5  C   UNL     1       6.692  -4.287  24.220  0.00  0.00    +0.109 A 
ATOM      6  C   UNL     1       7.336  -3.879  23.055  0.00  0.00    +0.147 A 
ATOM      7  C   UNL     1       7.139  -4.571  21.860  0.00  0.00    +0.092 A 
ATOM      8  C   UNL     1       6.300  -5.685  21.857  0.00  0.00    +0.124 A 
ATOM      9  C   UNL     1       5.661  -6.109  23.006  0.00  0.00    +0.091 A 
ATOM     10  O   UNL     1       8.199  -2.824  23.026  0.00  0.00    -0.451 OA
ATOM     11  C   UNL     1       5.851  -5.401  24.192  0.00  0.00    +0.135 A 
ATOM     12  C   UNL     1       8.211  -1.917  24.084  0.00  0.00    +0.181 A 
BRANCH  12  13
ATOM     13  C   UNL     1       9.043  -0.710  23.728  0.00  0.00    +0.025 A 
ATOM     14  C   UNL     1      10.084  -0.323  24.609  0.00  0.00    +0.015 A 
ATOM     15  C   UNL     1      10.764   0.896  24.478  0.00  0.00    +0.050 A 
ATOM     16  C   UNL     1      10.431   1.740  23.439  0.00  0.00    +0.158 A 
ATOM     17  C   UNL     1       9.463   1.364  22.517  0.00  0.00    +0.159 A 
ATOM     18  C   UNL     1       8.760   0.157  22.656  0.00  0.00    +0.060 A 
BRANCH  16  19
ATOM     19  O   UNL     1      11.050   2.953  23.341  0.00  0.00    -0.503 OA
ATOM     20  H   UNL     1      11.048   3.159  22.386  0.00  0.00    +0.292 HD
ENDBRANCH  16  19
BRANCH  17  21
ATOM     21  O   UNL     1       9.218   2.233  21.485  0.00  0.00    -0.503 OA
ATOM     22  H   UNL     1       8.269   2.196  21.279  0.00  0.00    +0.292 HD
ENDBRANCH  17  21
ENDBRANCH  12  13
BRANCH   8  23
ATOM     23  O   UNL     1       6.068  -6.392  20.709  0.00  0.00    -0.507 OA
ATOM     24  H   UNL     1       6.860  -6.906  20.484  0.00  0.00    +0.292 HD
ENDBRANCH   8  23
BRANCH  11  25
ATOM     25  O   UNL     1       5.182  -5.801  25.317  0.00  0.00    -0.506 OA
ATOM     26  H   UNL     1       5.204  -6.768  25.400  0.00  0.00    +0.292 HD
ENDBRANCH  11  25
ENDBRANCH   1   2
BRANCH   1  28
ATOM     27  C   UNL     1       5.302   0.013  26.474  0.00  0.00    +0.221 C 
ATOM     28  C   UNL     1       6.827   0.042  26.095  0.00  0.00    +0.340 C 
ATOM     29  O   UNL     1       7.568   1.173  26.573  0.00  0.00    -0.334 OA
ATOM     30  C   UNL     1       6.984   2.452  26.288  0.00  0.00    +0.150 C 
ATOM     31  C   UNL     1       7.192   2.834  24.818  0.00  0.00    +0.041 C 
ATOM     32  C   UNL     1       5.529   2.540  26.792  0.00  0.00    +0.174 C 
ATOM     33  C   UNL     1       4.641   1.405  26.255  0.00  0.00    +0.180 C 
BRANCH  32  34
ATOM     34  O   UNL     1       5.509   2.528  28.219  0.00  0.00    -0.387 OA
ATOM     35  H   UNL     1       4.677   2.956  28.521  0.00  0.00    +0.210 HD
ENDBRANCH  32  34
BRANCH  33  36
ATOM     36  O   UNL     1       4.328   1.706  24.888  0.00  0.00    -0.386 OA
ATOM     37  H   UNL     1       5.103   2.164  24.504  0.00  0.00    +0.210 HD
ENDBRANCH  33  36
BRANCH  27  38
ATOM     38  O   UNL     1       4.568  -1.142  25.989  0.00  0.00    -0.337 OA
BRANCH  38  42
ATOM     39  C   UNL     1       2.772  -2.215  29.769  0.00  0.00    +0.041 C 
ATOM     40  C   UNL     1       3.873  -3.005  29.058  0.00  0.00    +0.149 C 
ATOM     41  O   UNL     1       4.569  -2.249  28.045  0.00  0.00    -0.343 OA
ATOM     42  C   UNL     1       3.775  -1.921  26.891  0.00  0.00    +0.282 C 
ATOM     43  C   UNL     1       3.253  -3.210  26.213  0.00  0.00    +0.201 C 
ATOM     44  C   UNL     1       2.594  -4.164  27.201  0.00  0.00    +0.179 C 
ATOM     45  C   UNL     1       3.405  -4.344  28.471  0.00  0.00    +0.174 C 
BRANCH  43  46
ATOM     46  O   UNL     1       2.241  -2.915  25.235  0.00  0.00    -0.384 OA
ATOM     47  H   UNL     1       2.338  -1.969  25.000  0.00  0.00    +0.210 HD
ENDBRANCH  43  46
BRANCH  44  48
ATOM     48  O   UNL     1       1.250  -3.718  27.452  0.00  0.00    -0.386 OA
ATOM     49  H   UNL     1       1.126  -2.818  27.096  0.00  0.00    +0.210 HD
ENDBRANCH  44  48
BRANCH  45  50
ATOM     50  O   UNL     1       4.561  -5.134  28.149  0.00  0.00    -0.387 OA
ATOM     51  H   UNL     1       4.634  -5.841  28.820  0.00  0.00    +0.210 HD
ENDBRANCH  45  50
ENDBRANCH  38  42
ENDBRANCH  27  38
ENDBRANCH   1  28
TORSDOF 14
ENDMDL
MODEL 6
REMARK VINA RESULT:      -7.1      1.897      6.687
REMARK  Name = 
REMARK  16 active torsions:
REMARK  status: ('A' for Active; 'I' for Inactive)
REMARK    1  A    between atoms: C_1  and  C_2
REMARK    2  A    between atoms: C_4  and  O_52
REMARK    3  A    between atoms: C_6  and  O_51
REMARK    4  A    between atoms: C_8  and  O_50
REMARK    5  A    between atoms: C_10  and  O_13
REMARK    6  A    between atoms: O_13  and  C_14
REMARK    7  A    between atoms: C_16  and  O_49
REMARK    8  A    between atoms: C_18  and  O_48
REMARK    9  A    between atoms: C_20  and  C_47
REMARK   10  A    between atoms: C_23  and  O_25
REMARK   11  A    between atoms: O_25  and  C_26
REMARK   12  A    between atoms: C_27  and  C_39
REMARK   13  A    between atoms: C_31  and  O_38
REMARK   14  A    between atoms: C_33  and  O_37
REMARK   15  A    between atoms: C_41  and  O_46
REMARK   16  A    between atoms: C_42  and  O_45
REMARK                            x       y       z     vdW  Elec       q    Type
REMARK                         _______ _______ _______ _____ _____    ______ ____
ROOT
ATOM      1  O   UNL     1       7.286  -3.218  25.882  0.00  0.00    -0.453 OA
ENDROOT
BRANCH   1   2
ATOM      2  C   UNL     1       6.624  -2.362  26.737  0.00  0.00    +0.214 A 
ATOM      3  C   UNL     1       7.133  -0.974  27.014  0.00  0.00    +0.238 A 
ATOM      4  O   UNL     1       8.283  -0.618  26.797  0.00  0.00    -0.283 OA
ATOM      5  C   UNL     1       6.188  -0.012  27.566  0.00  0.00    +0.109 A 
ATOM      6  C   UNL     1       5.010  -0.519  28.108  0.00  0.00    +0.147 A 
ATOM      7  C   UNL     1       4.060   0.340  28.660  0.00  0.00    +0.092 A 
ATOM      8  C   UNL     1       4.318   1.711  28.673  0.00  0.00    +0.124 A 
ATOM      9  C   UNL     1       5.486   2.229  28.148  0.00  0.00    +0.091 A 
ATOM     10  O   UNL     1       4.742  -1.855  28.156  0.00  0.00    -0.451 OA
ATOM     11  C   UNL     1       6.422   1.364  27.584  0.00  0.00    +0.135 A 
ATOM     12  C   UNL     1       5.483  -2.734  27.368  0.00  0.00    +0.181 A 
BRANCH  12  13
ATOM     13  C   UNL     1       4.856  -4.105  27.384  0.00  0.00    +0.025 A 
ATOM     14  C   UNL     1       3.489  -4.228  27.027  0.00  0.00    +0.015 A 
ATOM     15  C   UNL     1       2.766  -5.414  27.218  0.00  0.00    +0.050 A 
ATOM     16  C   UNL     1       3.411  -6.514  27.745  0.00  0.00    +0.158 A 
ATOM     17  C   UNL     1       4.766  -6.451  28.044  0.00  0.00    +0.159 A 
ATOM     18  C   UNL     1       5.491  -5.260  27.881  0.00  0.00    +0.060 A 
BRANCH  16  19
ATOM     19  O   UNL     1       2.697  -7.652  27.986  0.00  0.00    -0.503 OA
ATOM     20  H   UNL     1       2.956  -8.265  27.270  0.00  0.00    +0.292 HD
ENDBRANCH  16  19
BRANCH  17  21
ATOM     21  O   UNL     1       5.350  -7.597  28.522  0.00  0.00    -0.503 OA
ATOM     22  H   UNL     1       6.223  -7.364  28.878  0.00  0.00    +0.292 HD
ENDBRANCH  17  21
ENDBRANCH  12  13
BRANCH   8  23
ATOM     23  O   UNL     1       3.413   2.594  29.196  0.00  0.00    -0.507 OA
ATOM     24  H   UNL     1       3.526   2.635  30.159  0.00  0.00    +0.292 HD
ENDBRANCH   8  23
BRANCH  11  25
ATOM     25  O   UNL     1       7.557   1.888  27.027  0.00  0.00    -0.506 OA
ATOM     26  H   UNL     1       7.354   2.312  26.177  0.00  0.00    +0.292 HD
ENDBRANCH  11  25
ENDBRANCH   1   2
BRANCH   1  28
ATOM     27  C   UNL     1       6.619  -3.042  23.436  0.00  0.00    +0.221 C 
ATOM     28  C   UNL     1       6.638  -3.866  24.774  0.00  0.00    +0.340 C 
ATOM     29  O   UNL     1       6.975  -5.254  24.649  0.00  0.00    -0.334 OA
ATOM     30  C   UNL     1       6.230  -5.976  23.656  0.00  0.00    +0.150 C 
ATOM     31  C   UNL     1       4.811  -6.281  24.151  0.00  0.00    +0.041 C 
ATOM     32  C   UNL     1       6.314  -5.299  22.274  0.00  0.00    +0.174 C 
ATOM     33  C   UNL     1       5.887  -3.822  22.305  0.00  0.00    +0.180 C 
BRANCH  32  34
ATOM     34  O   UNL     1       7.644  -5.401  21.765  0.00  0.00    -0.387 OA
ATOM     35  H   UNL     1       7.646  -5.074  20.837  0.00  0.00    +0.210 HD
ENDBRANCH  32  34
BRANCH  33  36
ATOM     36  O   UNL     1       4.456  -3.783  22.387  0.00  0.00    -0.386 OA
ATOM     37  H   UNL     1       4.190  -4.351  23.139  0.00  0.00    +0.210 HD
ENDBRANCH  33  36
BRANCH  27  38
ATOM     38  O   UNL     1       6.285  -1.636  23.583  0.00  0.00    -0.337 OA
BRANCH  38  42
ATOM     39  C   UNL     1       9.751  -0.053  21.545  0.00  0.00    +0.041 C 
ATOM     40  C   UNL     1       9.569  -0.114  23.064  0.00  0.00    +0.149 C 
ATOM     41  O   UNL     1       8.538  -1.029  23.490  0.00  0.00    -0.343 OA
ATOM     42  C   UNL     1       7.200  -0.629  23.140  0.00  0.00    +0.282 C 
ATOM     43  C   UNL     1       6.869   0.747  23.765  0.00  0.00    +0.201 C 
ATOM     44  C   UNL     1       7.948   1.787  23.491  0.00  0.00    +0.179 C 
ATOM     45  C   UNL     1       9.349   1.254  23.724  0.00  0.00    +0.174 C 
BRANCH  43  46
ATOM     46  O   UNL     1       5.660   1.296  23.212  0.00  0.00    -0.384 OA
ATOM     47  H   UNL     1       5.353   1.992  23.829  0.00  0.00    +0.210 HD
ENDBRANCH  43  46
BRANCH  44  48
ATOM     48  O   UNL     1       7.761   2.313  22.165  0.00  0.00    -0.386 OA
ATOM     49  H   UNL     1       7.761   3.288  22.191  0.00  0.00    +0.210 HD
ENDBRANCH  44  48
BRANCH  45  50
ATOM     50  O   UNL     1       9.539   1.117  25.141  0.00  0.00    -0.387 OA
ATOM     51  H   UNL     1       9.499   0.164  25.356  0.00  0.00    +0.210 HD
ENDBRANCH  45  50
ENDBRANCH  38  42
ENDBRANCH  27  38
ENDBRANCH   1  28
TORSDOF 14
ENDMDL
MODEL 7
REMARK VINA RESULT:      -7.1      2.883      8.157
REMARK  Name = 
REMARK  16 active torsions:
REMARK  status: ('A' for Active; 'I' for Inactive)
REMARK    1  A    between atoms: C_1  and  C_2
REMARK    2  A    between atoms: C_4  and  O_52
REMARK    3  A    between atoms: C_6  and  O_51
REMARK    4  A    between atoms: C_8  and  O_50
REMARK    5  A    between atoms: C_10  and  O_13
REMARK    6  A    between atoms: O_13  and  C_14
REMARK    7  A    between atoms: C_16  and  O_49
REMARK    8  A    between atoms: C_18  and  O_48
REMARK    9  A    between atoms: C_20  and  C_47
REMARK   10  A    between atoms: C_23  and  O_25
REMARK   11  A    between atoms: O_25  and  C_26
REMARK   12  A    between atoms: C_27  and  C_39
REMARK   13  A    between atoms: C_31  and  O_38
REMARK   14  A    between atoms: C_33  and  O_37
REMARK   15  A    between atoms: C_41  and  O_46
REMARK   16  A    between atoms: C_42  and  O_45
REMARK                            x       y       z     vdW  Elec       q    Type
REMARK                         _______ _______ _______ _____ _____    ______ ____
ROOT
ATOM      1  O   UNL     1       6.161  -0.451  23.728  0.00  0.00    -0.453 OA
ENDROOT
BRANCH   1   2
ATOM      2  C   UNL     1       5.704  -1.527  24.461  0.00  0.00    +0.214 A 
ATOM      3  C   UNL     1       5.479  -2.873  23.828  0.00  0.00    +0.238 A 
ATOM      4  O   UNL     1       5.356  -3.044  22.624  0.00  0.00    -0.283 OA
ATOM      5  C   UNL     1       5.410  -4.026  24.716  0.00  0.00    +0.109 A 
ATOM      6  C   UNL     1       5.217  -3.774  26.072  0.00  0.00    +0.147 A 
ATOM      7  C   UNL     1       5.135  -4.828  26.981  0.00  0.00    +0.092 A 
ATOM      8  C   UNL     1       5.236  -6.136  26.508  0.00  0.00    +0.124 A 
ATOM      9  C   UNL     1       5.420  -6.404  25.166  0.00  0.00    +0.091 A 
ATOM     10  O   UNL     1       5.066  -2.512  26.567  0.00  0.00    -0.451 OA
ATOM     11  C   UNL     1       5.516  -5.343  24.266  0.00  0.00    +0.135 A 
ATOM     12  C   UNL     1       5.433  -1.418  25.785  0.00  0.00    +0.181 A 
BRANCH  12  13
ATOM     13  C   UNL     1       5.426  -0.158  26.613  0.00  0.00    +0.025 A 
ATOM     14  C   UNL     1       4.181   0.458  26.896  0.00  0.00    +0.015 A 
ATOM     15  C   UNL     1       4.087   1.736  27.467  0.00  0.00    +0.050 A 
ATOM     16  C   UNL     1       5.246   2.409  27.794  0.00  0.00    +0.158 A 
ATOM     17  C   UNL     1       6.483   1.808  27.595  0.00  0.00    +0.159 A 
ATOM     18  C   UNL     1       6.586   0.541  27.000  0.00  0.00    +0.060 A 
BRANCH  16  19
ATOM     19  O   UNL     1       5.161   3.675  28.297  0.00  0.00    -0.503 OA
ATOM     20  H   UNL     1       4.336   3.681  28.822  0.00  0.00    +0.292 HD
ENDBRANCH  16  19
BRANCH  17  21
ATOM     21  O   UNL     1       7.588   2.519  27.986  0.00  0.00    -0.503 OA
ATOM     22  H   UNL     1       7.331   3.451  28.073  0.00  0.00    +0.292 HD
ENDBRANCH  17  21
ENDBRANCH  12  13
BRANCH   8  23
ATOM     23  O   UNL     1       5.172  -7.202  27.362  0.00  0.00    -0.507 OA
ATOM     24  H   UNL     1       5.361  -6.900  28.265  0.00  0.00    +0.292 HD
ENDBRANCH   8  23
BRANCH  11  25
ATOM     25  O   UNL     1       5.740  -5.615  22.943  0.00  0.00    -0.506 OA
ATOM     26  H   UNL     1       5.647  -6.566  22.771  0.00  0.00    +0.292 HD
ENDBRANCH  11  25
ENDBRANCH   1   2
BRANCH   1  28
ATOM     27  C   UNL     1       7.970   1.247  23.177  0.00  0.00    +0.221 C 
ATOM     28  C   UNL     1       7.554  -0.246  23.436  0.00  0.00    +0.340 C 
ATOM     29  O   UNL     1       8.432  -1.002  24.280  0.00  0.00    -0.334 OA
ATOM     30  C   UNL     1       9.821  -0.951  23.919  0.00  0.00    +0.150 C 
ATOM     31  C   UNL     1      10.102  -1.834  22.698  0.00  0.00    +0.041 C 
ATOM     32  C   UNL     1      10.330   0.500  23.815  0.00  0.00    +0.174 C 
ATOM     33  C   UNL     1       9.489   1.362  22.858  0.00  0.00    +0.180 C 
BRANCH  32  34
ATOM     34  O   UNL     1      10.348   1.101  25.109  0.00  0.00    -0.387 OA
ATOM     35  H   UNL     1      10.104   0.418  25.772  0.00  0.00    +0.210 HD
ENDBRANCH  32  34
BRANCH  33  36
ATOM     36  O   UNL     1       9.843   0.998  21.517  0.00  0.00    -0.386 OA
ATOM     37  H   UNL     1       9.732   0.029  21.438  0.00  0.00    +0.210 HD
ENDBRANCH  33  36
BRANCH  27  38
ATOM     38  O   UNL     1       7.065   2.001  22.327  0.00  0.00    -0.337 OA
BRANCH  38  42
ATOM     39  C   UNL     1       6.165   6.222  22.538  0.00  0.00    +0.041 C 
ATOM     40  C   UNL     1       6.930   5.427  23.600  0.00  0.00    +0.149 C 
ATOM     41  O   UNL     1       7.440   4.164  23.124  0.00  0.00    -0.343 OA
ATOM     42  C   UNL     1       6.430   3.184  22.823  0.00  0.00    +0.282 C 
ATOM     43  C   UNL     1       5.581   2.883  24.081  0.00  0.00    +0.201 C 
ATOM     44  C   UNL     1       5.072   4.149  24.759  0.00  0.00    +0.179 C 
ATOM     45  C   UNL     1       6.148   5.210  24.903  0.00  0.00    +0.174 C 
BRANCH  43  46
ATOM     46  O   UNL     1       4.403   2.128  23.749  0.00  0.00    -0.384 OA
ATOM     47  H   UNL     1       3.952   1.916  24.591  0.00  0.00    +0.210 HD
ENDBRANCH  43  46
BRANCH  44  48
ATOM     48  O   UNL     1       3.911   4.620  24.053  0.00  0.00    -0.386 OA
ATOM     49  H   UNL     1       3.510   3.888  23.548  0.00  0.00    +0.210 HD
ENDBRANCH  44  48
BRANCH  45  50
ATOM     50  O   UNL     1       7.064   4.774  25.920  0.00  0.00    -0.387 OA
ATOM     51  H   UNL     1       7.621   4.069  25.537  0.00  0.00    +0.210 HD
ENDBRANCH  45  50
ENDBRANCH  38  42
ENDBRANCH  27  38
ENDBRANCH   1  28
TORSDOF 14
ENDMDL
MODEL 8
REMARK VINA RESULT:      -7.1      2.173      5.374
REMARK  Name = 
REMARK  16 active torsions:
REMARK  status: ('A' for Active; 'I' for Inactive)
REMARK    1  A    between atoms: C_1  and  C_2
REMARK    2  A    between atoms: C_4  and  O_52
REMARK    3  A    between atoms: C_6  and  O_51
REMARK    4  A    between atoms: C_8  and  O_50
REMARK    5  A    between atoms: C_10  and  O_13
REMARK    6  A    between atoms: O_13  and  C_14
REMARK    7  A    between atoms: C_16  and  O_49
REMARK    8  A    between atoms: C_18  and  O_48
REMARK    9  A    between atoms: C_20  and  C_47
REMARK   10  A    between atoms: C_23  and  O_25
REMARK   11  A    between atoms: O_25  and  C_26
REMARK   12  A    between atoms: C_27  and  C_39
REMARK   13  A    between atoms: C_31  and  O_38
REMARK   14  A    between atoms: C_33  and  O_37
REMARK   15  A    between atoms: C_41  and  O_46
REMARK   16  A    between atoms: C_42  and  O_45
REMARK                            x       y       z     vdW  Elec       q    Type
REMARK                         _______ _______ _______ _____ _____    ______ ____
ROOT
ATOM      1  O   UNL     1       6.104  -0.819  24.217  0.00  0.00    -0.453 OA
ENDROOT
BRANCH   1   2
ATOM      2  C   UNL     1       7.284  -0.171  23.916  0.00  0.00    +0.214 A 
ATOM      3  C   UNL     1       7.300   1.135  23.170  0.00  0.00    +0.238 A 
ATOM      4  O   UNL     1       6.360   1.545  22.503  0.00  0.00    -0.283 OA
ATOM      5  C   UNL     1       8.507   1.945  23.262  0.00  0.00    +0.109 A 
ATOM      6  C   UNL     1       9.657   1.318  23.734  0.00  0.00    +0.147 A 
ATOM      7  C   UNL     1      10.853   2.028  23.845  0.00  0.00    +0.092 A 
ATOM      8  C   UNL     1      10.879   3.368  23.462  0.00  0.00    +0.124 A 
ATOM      9  C   UNL     1       9.749   4.003  22.983  0.00  0.00    +0.091 A 
ATOM     10  O   UNL     1       9.684  -0.002  24.075  0.00  0.00    -0.451 OA
ATOM     11  C   UNL     1       8.554   3.290  22.891  0.00  0.00    +0.135 A 
ATOM     12  C   UNL     1       8.486  -0.685  24.278  0.00  0.00    +0.181 A 
BRANCH  12  13
ATOM     13  C   UNL     1       8.753  -2.037  24.888  0.00  0.00    +0.025 A 
ATOM     14  C   UNL     1       9.640  -2.918  24.220  0.00  0.00    +0.015 A 
ATOM     15  C   UNL     1       9.783  -4.263  24.588  0.00  0.00    +0.050 A 
ATOM     16  C   UNL     1       9.057  -4.745  25.659  0.00  0.00    +0.158 A 
ATOM     17  C   UNL     1       8.229  -3.894  26.380  0.00  0.00    +0.159 A 
ATOM     18  C   UNL     1       8.060  -2.553  26.001  0.00  0.00    +0.060 A 
BRANCH  16  19
ATOM     19  O   UNL     1       9.149  -6.067  25.985  0.00  0.00    -0.503 OA
ATOM     20  H   UNL     1       9.699  -6.461  25.279  0.00  0.00    +0.292 HD
ENDBRANCH  16  19
BRANCH  17  21
ATOM     21  O   UNL     1       7.574  -4.432  27.458  0.00  0.00    -0.503 OA
ATOM     22  H   UNL     1       7.924  -4.013  28.262  0.00  0.00    +0.292 HD
ENDBRANCH  17  21
ENDBRANCH  12  13
BRANCH   8  23
ATOM     23  O   UNL     1      12.025   4.109  23.560  0.00  0.00    -0.507 OA
ATOM     24  H   UNL     1      12.075   4.720  22.808  0.00  0.00    +0.292 HD
ENDBRANCH   8  23
BRANCH  11  25
ATOM     25  O   UNL     1       7.428   3.936  22.456  0.00  0.00    -0.506 OA
ATOM     26  H   UNL     1       6.680   3.746  23.045  0.00  0.00    +0.292 HD
ENDBRANCH  11  25
ENDBRANCH   1   2
BRANCH   1  28
ATOM     27  C   UNL     1       4.506  -1.581  26.040  0.00  0.00    +0.221 C 
ATOM     28  C   UNL     1       5.247  -0.411  25.297  0.00  0.00    +0.340 C 
ATOM     29  O   UNL     1       5.828   0.595  26.138  0.00  0.00    -0.334 OA
ATOM     30  C   UNL     1       4.948   1.144  27.131  0.00  0.00    +0.150 C 
ATOM     31  C   UNL     1       3.957   2.129  26.499  0.00  0.00    +0.041 C 
ATOM     32  C   UNL     1       4.317   0.043  28.006  0.00  0.00    +0.174 C 
ATOM     33  C   UNL     1       3.597  -1.037  27.181  0.00  0.00    +0.180 C 
BRANCH  32  34
ATOM     34  O   UNL     1       5.320  -0.565  28.818  0.00  0.00    -0.387 OA
ATOM     35  H   UNL     1       6.198  -0.387  28.412  0.00  0.00    +0.210 HD
ENDBRANCH  32  34
BRANCH  33  36
ATOM     36  O   UNL     1       2.350  -0.487  26.735  0.00  0.00    -0.386 OA
ATOM     37  H   UNL     1       2.221  -0.768  25.806  0.00  0.00    +0.210 HD
ENDBRANCH  33  36
BRANCH  27  38
ATOM     38  O   UNL     1       3.931  -2.595  25.174  0.00  0.00    -0.337 OA
BRANCH  38  42
ATOM     39  C   UNL     1       6.598  -5.327  23.150  0.00  0.00    +0.041 C 
ATOM     40  C   UNL     1       5.075  -5.467  23.220  0.00  0.00    +0.149 C 
ATOM     41  O   UNL     1       4.396  -4.249  23.593  0.00  0.00    -0.343 OA
ATOM     42  C   UNL     1       4.625  -3.827  24.949  0.00  0.00    +0.282 C 
ATOM     43  C   UNL     1       4.162  -4.923  25.939  0.00  0.00    +0.201 C 
ATOM     44  C   UNL     1       4.716  -6.298  25.588  0.00  0.00    +0.179 C 
ATOM     45  C   UNL     1       4.591  -6.620  24.110  0.00  0.00    +0.174 C 
BRANCH  43  46
ATOM     46  O   UNL     1       4.628  -4.653  27.273  0.00  0.00    -0.384 OA
ATOM     47  H   UNL     1       5.291  -5.340  27.489  0.00  0.00    +0.210 HD
ENDBRANCH  43  46
BRANCH  44  48
ATOM     48  O   UNL     1       6.068  -6.392  26.071  0.00  0.00    -0.386 OA
ATOM     49  H   UNL     1       6.200  -7.246  26.524  0.00  0.00    +0.210 HD
ENDBRANCH  44  48
BRANCH  45  50
ATOM     50  O   UNL     1       3.205  -6.868  23.828  0.00  0.00    -0.387 OA
ATOM     51  H   UNL     1       2.723  -6.025  23.937  0.00  0.00    +0.210 HD
ENDBRANCH  45  50
ENDBRANCH  38  42
ENDBRANCH  27  38
ENDBRANCH   1  28
TORSDOF 14
ENDMDL
MODEL 9
REMARK VINA RESULT:      -7.1      2.712      6.498
REMARK  Name = 
REMARK  16 active torsions:
REMARK  status: ('A' for Active; 'I' for Inactive)
REMARK    1  A    between atoms: C_1  and  C_2
REMARK    2  A    between atoms: C_4  and  O_52
REMARK    3  A    between atoms: C_6  and  O_51
REMARK    4  A    between atoms: C_8  and  O_50
REMARK    5  A    between atoms: C_10  and  O_13
REMARK    6  A    between atoms: O_13  and  C_14
REMARK    7  A    between atoms: C_16  and  O_49
REMARK    8  A    between atoms: C_18  and  O_48
REMARK    9  A    between atoms: C_20  and  C_47
REMARK   10  A    between atoms: C_23  and  O_25
REMARK   11  A    between atoms: O_25  and  C_26
REMARK   12  A    between atoms: C_27  and  C_39
REMARK   13  A    between atoms: C_31  and  O_38
REMARK   14  A    between atoms: C_33  and  O_37
REMARK   15  A    between atoms: C_41  and  O_46
REMARK   16  A    between atoms: C_42  and  O_45
REMARK                            x       y       z     vdW  Elec       q    Type
REMARK                         _______ _______ _______ _____ _____    ______ ____
ROOT
ATOM      1  O   UNL     1       6.642   1.656  24.479  0.00  0.00    -0.453 OA
ENDROOT
BRANCH   1   2
ATOM      2  C   UNL     1       7.813   2.197  23.989  0.00  0.00    +0.214 A 
ATOM      3  C   UNL     1       8.052   3.682  23.980  0.00  0.00    +0.238 A 
ATOM      4  O   UNL     1       7.159   4.512  24.077  0.00  0.00    -0.283 OA
ATOM      5  C   UNL     1       9.430   4.137  23.853  0.00  0.00    +0.109 A 
ATOM      6  C   UNL     1      10.368   3.207  23.414  0.00  0.00    +0.147 A 
ATOM      7  C   UNL     1      11.706   3.571  23.262  0.00  0.00    +0.092 A 
ATOM      8  C   UNL     1      12.083   4.883  23.543  0.00  0.00    +0.124 A 
ATOM      9  C   UNL     1      11.164   5.821  23.972  0.00  0.00    +0.091 A 
ATOM     10  O   UNL     1      10.031   1.927  23.084  0.00  0.00    -0.451 OA
ATOM     11  C   UNL     1       9.831   5.444  24.136  0.00  0.00    +0.135 A 
ATOM     12  C   UNL     1       8.801   1.413  23.491  0.00  0.00    +0.181 A 
BRANCH  12  13
ATOM     13  C   UNL     1       8.749  -0.073  23.245  0.00  0.00    +0.025 A 
ATOM     14  C   UNL     1       7.611  -0.612  22.592  0.00  0.00    +0.015 A 
ATOM     15  C   UNL     1       7.373  -1.991  22.513  0.00  0.00    +0.050 A 
ATOM     16  C   UNL     1       8.291  -2.862  23.064  0.00  0.00    +0.158 A 
ATOM     17  C   UNL     1       9.450  -2.373  23.652  0.00  0.00    +0.159 A 
ATOM     18  C   UNL     1       9.684  -0.993  23.758  0.00  0.00    +0.060 A 
BRANCH  16  19
ATOM     19  O   UNL     1       8.035  -4.203  23.040  0.00  0.00    -0.503 OA
ATOM     20  H   UNL     1       7.074  -4.276  23.203  0.00  0.00    +0.292 HD
ENDBRANCH  16  19
BRANCH  17  21
ATOM     21  O   UNL     1      10.338  -3.299  24.137  0.00  0.00    -0.503 OA
ATOM     22  H   UNL     1      11.002  -3.469  23.449  0.00  0.00    +0.292 HD
ENDBRANCH  17  21
ENDBRANCH  12  13
BRANCH   8  23
ATOM     23  O   UNL     1      13.384   5.286  23.419  0.00  0.00    -0.507 OA
ATOM     24  H   UNL     1      13.422   6.073  22.851  0.00  0.00    +0.292 HD
ENDBRANCH   8  23
BRANCH  11  25
ATOM     25  O   UNL     1       8.934   6.366  24.601  0.00  0.00    -0.506 OA
ATOM     26  H   UNL     1       9.364   7.230  24.718  0.00  0.00    +0.292 HD
ENDBRANCH  11  25
ENDBRANCH   1   2
BRANCH   1  28
ATOM     27  C   UNL     1       6.402  -0.038  26.359  0.00  0.00    +0.221 C 
ATOM     28  C   UNL     1       6.404   1.460  25.883  0.00  0.00    +0.340 C 
ATOM     29  O   UNL     1       7.120   2.380  26.717  0.00  0.00    -0.334 OA
ATOM     30  C   UNL     1       6.790   2.325  28.113  0.00  0.00    +0.150 C 
ATOM     31  C   UNL     1       5.442   3.004  28.384  0.00  0.00    +0.041 C 
ATOM     32  C   UNL     1       6.934   0.898  28.678  0.00  0.00    +0.174 C 
ATOM     33  C   UNL     1       6.125  -0.143  27.886  0.00  0.00    +0.180 C 
BRANCH  32  34
ATOM     34  O   UNL     1       8.311   0.520  28.695  0.00  0.00    -0.387 OA
ATOM     35  H   UNL     1       8.364  -0.461  28.650  0.00  0.00    +0.210 HD
ENDBRANCH  32  34
BRANCH  33  36
ATOM     36  O   UNL     1       4.746   0.007  28.251  0.00  0.00    -0.386 OA
ATOM     37  H   UNL     1       4.418  -0.874  28.524  0.00  0.00    +0.210 HD
ENDBRANCH  33  36
BRANCH  27  38
ATOM     38  O   UNL     1       5.679  -0.957  25.498  0.00  0.00    -0.337 OA
BRANCH  38  42
ATOM     39  C   UNL     1       6.400  -4.653  27.617  0.00  0.00    +0.041 C 
ATOM     40  C   UNL     1       6.430  -4.486  26.096  0.00  0.00    +0.149 C 
ATOM     41  O   UNL     1       6.556  -3.115  25.664  0.00  0.00    -0.343 OA
ATOM     42  C   UNL     1       5.408  -2.292  25.938  0.00  0.00    +0.282 C 
ATOM     43  C   UNL     1       4.153  -2.871  25.241  0.00  0.00    +0.201 C 
ATOM     44  C   UNL     1       3.964  -4.357  25.519  0.00  0.00    +0.179 C 
ATOM     45  C   UNL     1       5.251  -5.149  25.370  0.00  0.00    +0.174 C 
BRANCH  43  46
ATOM     46  O   UNL     1       2.952  -2.238  25.717  0.00  0.00    -0.384 OA
ATOM     47  H   UNL     1       2.905  -1.358  25.292  0.00  0.00    +0.210 HD
ENDBRANCH  43  46
BRANCH  44  48
ATOM     48  O   UNL     1       3.355  -4.515  26.812  0.00  0.00    -0.386 OA
ATOM     49  H   UNL     1       3.235  -3.642  27.232  0.00  0.00    +0.210 HD
ENDBRANCH  44  48
BRANCH  45  50
ATOM     50  O   UNL     1       5.560  -5.229  23.970  0.00  0.00    -0.387 OA
ATOM     51  H   UNL     1       6.300  -4.615  23.792  0.00  0.00    +0.210 HD
ENDBRANCH  45  50
ENDBRANCH  38  42
ENDBRANCH  27  38
ENDBRANCH   1  28
TORSDOF 14
ENDMDL
