MODEL 1
REMARK VINA RESULT:      -7.0      0.000      0.000
REMARK  Name = 
REMARK  13 active torsions:
REMARK  status: ('A' for Active; 'I' for Inactive)
REMARK    1  A    between atoms: C_1  and  O_2
REMARK    2  A    between atoms: O_2  and  C_3
REMARK    3  A    between atoms: C_5  and  O_35
REMARK    4  A    between atoms: C_10  and  C_19
REMARK    5  A    between atoms: C_11  and  O_14
REMARK    6  A    between atoms: O_14  and  S_15
REMARK    7  A    between atoms: S_15  and  O_18
REMARK    8  A    between atoms: C_21  and  O_30
REMARK    9  A    between atoms: C_22  and  O_25
REMARK   10  A    between atoms: O_25  and  S_26
REMARK   11  A    between atoms: S_26  and  O_29
REMARK   12  A    between atoms: O_30  and  S_31
REMARK   13  A    between atoms: S_31  and  O_34
REMARK                            x       y       z     vdW  Elec       q    Type
REMARK                         _______ _______ _______ _____ _____    ______ ____
ROOT
ATOM      1  C   UNL     1       7.894   1.552  22.368  0.00  0.00    +0.127 A 
ATOM      2  C   UNL     1       6.912   0.601  22.681  0.00  0.00    +0.092 A 
ATOM      3  C   UNL     1       7.273  -0.670  23.147  0.00  0.00    +0.147 A 
ATOM      4  O   UNL     1       6.260  -1.559  23.428  0.00  0.00    -0.451 OA
ATOM      5  C   UNL     1       6.587  -2.809  23.943  0.00  0.00    +0.184 A 
ATOM      6  C   UNL     1       7.845  -3.248  24.145  0.00  0.00    +0.248 A 
ATOM      7  C   UNL     1       8.960  -2.357  23.722  0.00  0.00    +0.241 A 
ATOM      8  O   UNL     1      10.109  -2.784  23.682  0.00  0.00    -0.283 OA
ATOM      9  C   UNL     1       8.618  -0.992  23.295  0.00  0.00    +0.109 A 
ATOM     10  C   UNL     1       9.599  -0.038  22.997  0.00  0.00    +0.135 A 
ATOM     11  C   UNL     1       9.240   1.228  22.536  0.00  0.00    +0.092 A 
ENDROOT
BRANCH   5  12
ATOM     12  C   UNL     1       5.404  -3.624  24.295  0.00  0.00    +0.025 A 
ATOM     13  C   UNL     1       4.576  -4.123  23.279  0.00  0.00    +0.015 A 
ATOM     14  C   UNL     1       3.475  -4.935  23.580  0.00  0.00    +0.053 A 
ATOM     15  C   UNL     1       3.176  -5.253  24.904  0.00  0.00    +0.203 A 
ATOM     16  C   UNL     1       3.985  -4.744  25.934  0.00  0.00    +0.204 A 
ATOM     17  C   UNL     1       5.098  -3.939  25.630  0.00  0.00    +0.064 A 
BRANCH  15  18
ATOM     18  O   UNL     1       2.155  -6.094  25.285  0.00  0.00    -0.321 OA
BRANCH  18  19
ATOM     19  S   UNL     1       2.234  -7.712  25.102  0.00  0.00    +0.251 S 
ATOM     20  O   UNL     1       3.548  -8.079  24.620  0.00  0.00    -0.108 OA
ATOM     21  O   UNL     1       1.026  -8.168  24.455  0.00  0.00    -0.108 OA
BRANCH  19  22
ATOM     22  O   UNL     1       2.119  -8.244  26.617  0.00  0.00    -0.222 OA
ATOM     23  H   UNL     1       1.983  -9.213  26.576  0.00  0.00    +0.248 HD
ENDBRANCH  19  22
ENDBRANCH  18  19
ENDBRANCH  15  18
BRANCH  16  24
ATOM     24  O   UNL     1       3.646  -5.133  27.209  0.00  0.00    -0.321 OA
BRANCH  24  25
ATOM     25  S   UNL     1       4.549  -6.178  28.066  0.00  0.00    +0.251 S 
ATOM     26  O   UNL     1       3.701  -6.972  28.925  0.00  0.00    -0.108 OA
ATOM     27  O   UNL     1       5.705  -5.470  28.572  0.00  0.00    -0.108 OA
BRANCH  25  28
ATOM     28  O   UNL     1       5.130  -7.156  26.921  0.00  0.00    -0.222 OA
ATOM     29  H   UNL     1       4.495  -7.891  26.808  0.00  0.00    +0.248 HD
ENDBRANCH  25  28
ENDBRANCH  24  25
ENDBRANCH  16  24
ENDBRANCH   5  12
BRANCH   1  31
ATOM     30  C   UNL     1       6.115   3.134  22.309  0.00  0.00    +0.277 C 
ATOM     31  O   UNL     1       7.433   2.758  21.909  0.00  0.00    -0.495 OA
ENDBRANCH   1  31
BRANCH  10  32
ATOM     32  O   UNL     1      10.926  -0.321  23.158  0.00  0.00    -0.506 OA
ATOM     33  H   UNL     1      11.076  -1.280  23.174  0.00  0.00    +0.292 HD
ENDBRANCH  10  32
BRANCH   6  34
ATOM     34  O   UNL     1       8.116  -4.517  24.647  0.00  0.00    -0.317 OA
BRANCH  34  35
ATOM     35  S   UNL     1       8.762  -4.780  26.128  0.00  0.00    +0.252 S 
ATOM     36  O   UNL     1       8.429  -3.644  26.959  0.00  0.00    -0.108 OA
ATOM     37  O   UNL     1      10.143  -5.190  25.967  0.00  0.00    -0.108 OA
BRANCH  35  38
ATOM     38  O   UNL     1       7.949  -6.045  26.718  0.00  0.00    -0.222 OA
ATOM     39  H   UNL     1       7.625  -5.791  27.621  0.00  0.00    +0.248 HD
ENDBRANCH  35  38
ENDBRANCH  34  35
ENDBRANCH   6  34
TORSDOF 12
ENDMDL
MODEL 2
REMARK VINA RESULT:      -6.9      2.907      8.375
REMARK  Name = 
REMARK  13 active torsions:
REMARK  status: ('A' for Active; 'I' for Inactive)
REMARK    1  A    between atoms: C_1  and  O_2
REMARK    2  A    between atoms: O_2  and  C_3
REMARK    3  A    between atoms: C_5  and  O_35
REMARK    4  A    between atoms: C_10  and  C_19
REMARK    5  A    between atoms: C_11  and  O_14
REMARK    6  A    between atoms: O_14  and  S_15
REMARK    7  A    between atoms: S_15  and  O_18
REMARK    8  A    between atoms: C_21  and  O_30
REMARK    9  A    between atoms: C_22  and  O_25
REMARK   10  A    between atoms: O_25  and  S_26
REMARK   11  A    between atoms: S_26  and  O_29
REMARK   12  A    between atoms: O_30  and  S_31
REMARK   13  A    between atoms: S_31  and  O_34
REMARK                            x       y       z     vdW  Elec       q    Type
REMARK                         _______ _______ _______ _____ _____    ______ ____
ROOT
ATOM      1  C   UNL     1       2.595  -5.576  28.474  0.00  0.00    +0.127 A 
ATOM      2  C   UNL     1       3.098  -4.406  27.885  0.00  0.00    +0.092 A 
ATOM      3  C   UNL     1       4.449  -4.311  27.526  0.00  0.00    +0.147 A 
ATOM      4  O   UNL     1       4.878  -3.132  26.960  0.00  0.00    -0.451 OA
ATOM      5  C   UNL     1       6.202  -3.030  26.544  0.00  0.00    +0.184 A 
ATOM      6  C   UNL     1       7.130  -3.994  26.702  0.00  0.00    +0.248 A 
ATOM      7  C   UNL     1       6.724  -5.225  27.433  0.00  0.00    +0.241 A 
ATOM      8  O   UNL     1       7.571  -6.037  27.792  0.00  0.00    -0.283 OA
ATOM      9  C   UNL     1       5.300  -5.386  27.762  0.00  0.00    +0.109 A 
ATOM     10  C   UNL     1       4.796  -6.560  28.335  0.00  0.00    +0.135 A 
ATOM     11  C   UNL     1       3.451  -6.656  28.690  0.00  0.00    +0.092 A 
ENDROOT
BRANCH   5  12
ATOM     12  C   UNL     1       6.503  -1.752  25.863  0.00  0.00    +0.025 A 
ATOM     13  C   UNL     1       6.406  -0.546  26.573  0.00  0.00    +0.015 A 
ATOM     14  C   UNL     1       6.728   0.675  25.966  0.00  0.00    +0.053 A 
ATOM     15  C   UNL     1       7.144   0.712  24.635  0.00  0.00    +0.203 A 
ATOM     16  C   UNL     1       7.227  -0.487  23.907  0.00  0.00    +0.204 A 
ATOM     17  C   UNL     1       6.915  -1.713  24.520  0.00  0.00    +0.064 A 
BRANCH  15  18
ATOM     18  O   UNL     1       7.541   1.856  23.982  0.00  0.00    -0.321 OA
BRANCH  18  19
ATOM     19  S   UNL     1       8.961   2.596  24.290  0.00  0.00    +0.251 S 
ATOM     20  O   UNL     1       9.921   1.622  24.761  0.00  0.00    -0.108 OA
ATOM     21  O   UNL     1       8.700   3.824  25.005  0.00  0.00    -0.108 OA
BRANCH  19  22
ATOM     22  O   UNL     1       9.439   3.065  22.826  0.00  0.00    -0.222 OA
ATOM     23  H   UNL     1       9.617   2.256  22.304  0.00  0.00    +0.248 HD
ENDBRANCH  19  22
ENDBRANCH  18  19
ENDBRANCH  15  18
BRANCH  16  24
ATOM     24  O   UNL     1       7.679  -0.370  22.613  0.00  0.00    -0.321 OA
BRANCH  24  25
ATOM     25  S   UNL     1       9.204  -0.744  22.190  0.00  0.00    +0.251 S 
ATOM     26  O   UNL     1       9.814   0.374  21.508  0.00  0.00    -0.108 OA
ATOM     27  O   UNL     1       9.205  -2.077  21.628  0.00  0.00    -0.108 OA
BRANCH  25  28
ATOM     28  O   UNL     1       9.934  -0.896  23.621  0.00  0.00    -0.222 OA
ATOM     29  H   UNL     1       9.304  -1.326  24.233  0.00  0.00    +0.248 HD
ENDBRANCH  25  28
ENDBRANCH  24  25
ENDBRANCH  16  24
ENDBRANCH   5  12
BRANCH   1  31
ATOM     30  C   UNL     1       0.734  -6.740  29.395  0.00  0.00    +0.277 C 
ATOM     31  O   UNL     1       1.264  -5.558  28.797  0.00  0.00    -0.495 OA
ENDBRANCH   1  31
BRANCH  10  32
ATOM     32  O   UNL     1       5.606  -7.639  28.553  0.00  0.00    -0.506 OA
ATOM     33  H   UNL     1       6.500  -7.356  28.803  0.00  0.00    +0.292 HD
ENDBRANCH  10  32
BRANCH   6  34
ATOM     34  O   UNL     1       8.447  -3.831  26.283  0.00  0.00    -0.317 OA
BRANCH  34  35
ATOM     35  S   UNL     1       9.090  -4.630  25.008  0.00  0.00    +0.252 S 
ATOM     36  O   UNL     1      10.085  -3.768  24.407  0.00  0.00    -0.108 OA
ATOM     37  O   UNL     1       8.012  -5.171  24.206  0.00  0.00    -0.108 OA
BRANCH  35  38
ATOM     38  O   UNL     1       9.884  -5.879  25.656  0.00  0.00    -0.222 OA
ATOM     39  H   UNL     1      10.511  -6.218  24.965  0.00  0.00    +0.248 HD
ENDBRANCH  35  38
ENDBRANCH  34  35
ENDBRANCH   6  34
TORSDOF 12
ENDMDL
MODEL 3
REMARK VINA RESULT:      -6.7      3.582      6.350
REMARK  Name = 
REMARK  13 active torsions:
REMARK  status: ('A' for Active; 'I' for Inactive)
REMARK    1  A    between atoms: C_1  and  O_2
REMARK    2  A    between atoms: O_2  and  C_3
REMARK    3  A    between atoms: C_5  and  O_35
REMARK    4  A    between atoms: C_10  and  C_19
REMARK    5  A    between atoms: C_11  and  O_14
REMARK    6  A    between atoms: O_14  and  S_15
REMARK    7  A    between atoms: S_15  and  O_18
REMARK    8  A    between atoms: C_21  and  O_30
REMARK    9  A    between atoms: C_22  and  O_25
REMARK   10  A    between atoms: O_25  and  S_26
REMARK   11  A    between atoms: S_26  and  O_29
REMARK   12  A    between atoms: O_30  and  S_31
REMARK   13  A    between atoms: S_31  and  O_34
REMARK                            x       y       z     vdW  Elec       q    Type
REMARK                         _______ _______ _______ _____ _____    ______ ____
ROOT
ATOM      1  C   UNL     1      11.177   5.493  23.490  0.00  0.00    +0.127 A 
ATOM      2  C   UNL     1      11.107   4.100  23.645  0.00  0.00    +0.092 A 
ATOM      3  C   UNL     1       9.867   3.452  23.718  0.00  0.00    +0.147 A 
ATOM      4  O   UNL     1       9.870   2.085  23.878  0.00  0.00    -0.451 OA
ATOM      5  C   UNL     1       8.654   1.409  23.899  0.00  0.00    +0.184 A 
ATOM      6  C   UNL     1       7.446   2.003  23.826  0.00  0.00    +0.248 A 
ATOM      7  C   UNL     1       7.414   3.491  23.788  0.00  0.00    +0.241 A 
ATOM      8  O   UNL     1       6.354   4.089  23.937  0.00  0.00    -0.283 OA
ATOM      9  C   UNL     1       8.695   4.198  23.641  0.00  0.00    +0.109 A 
ATOM     10  C   UNL     1       8.765   5.586  23.471  0.00  0.00    +0.135 A 
ATOM     11  C   UNL     1       9.998   6.231  23.396  0.00  0.00    +0.092 A 
ENDROOT
BRANCH   5  12
ATOM     12  C   UNL     1       8.803  -0.061  23.974  0.00  0.00    +0.025 A 
ATOM     13  C   UNL     1       9.481  -0.636  25.059  0.00  0.00    +0.015 A 
ATOM     14  C   UNL     1       9.599  -2.027  25.179  0.00  0.00    +0.053 A 
ATOM     15  C   UNL     1       9.049  -2.866  24.210  0.00  0.00    +0.203 A 
ATOM     16  C   UNL     1       8.386  -2.303  23.108  0.00  0.00    +0.204 A 
ATOM     17  C   UNL     1       8.257  -0.907  22.994  0.00  0.00    +0.064 A 
BRANCH  15  18
ATOM     18  O   UNL     1       9.062  -4.241  24.282  0.00  0.00    -0.321 OA
BRANCH  18  19
ATOM     19  S   UNL     1       8.543  -5.057  25.594  0.00  0.00    +0.251 S 
ATOM     20  O   UNL     1       7.169  -5.465  25.397  0.00  0.00    -0.108 OA
ATOM     21  O   UNL     1       8.970  -4.352  26.781  0.00  0.00    -0.108 OA
BRANCH  19  22
ATOM     22  O   UNL     1       9.444  -6.390  25.559  0.00  0.00    -0.222 OA
ATOM     23  H   UNL     1      10.165  -6.274  26.212  0.00  0.00    +0.248 HD
ENDBRANCH  19  22
ENDBRANCH  18  19
ENDBRANCH  15  18
BRANCH  16  24
ATOM     24  O   UNL     1       7.841  -3.197  22.216  0.00  0.00    -0.321 OA
BRANCH  24  25
ATOM     25  S   UNL     1       6.284  -3.660  22.293  0.00  0.00    +0.251 S 
ATOM     26  O   UNL     1       5.693  -3.620  20.976  0.00  0.00    -0.108 OA
ATOM     27  O   UNL     1       5.672  -3.005  23.429  0.00  0.00    -0.108 OA
BRANCH  25  28
ATOM     28  O   UNL     1       6.403  -5.211  22.724  0.00  0.00    -0.222 OA
ATOM     29  H   UNL     1       7.097  -5.621  22.170  0.00  0.00    +0.248 HD
ENDBRANCH  25  28
ENDBRANCH  24  25
ENDBRANCH  16  24
ENDBRANCH   5  12
BRANCH   1  31
ATOM     30  C   UNL     1      13.286   5.572  22.388  0.00  0.00    +0.277 C 
ATOM     31  O   UNL     1      12.438   6.026  23.443  0.00  0.00    -0.495 OA
ENDBRANCH   1  31
BRANCH  10  32
ATOM     32  O   UNL     1       7.628   6.338  23.368  0.00  0.00    -0.506 OA
ATOM     33  H   UNL     1       7.836   7.243  23.083  0.00  0.00    +0.292 HD
ENDBRANCH  10  32
BRANCH   6  34
ATOM     34  O   UNL     1       6.259   1.279  23.870  0.00  0.00    -0.317 OA
BRANCH  34  35
ATOM     35  S   UNL     1       5.490   0.896  25.263  0.00  0.00    +0.252 S 
ATOM     36  O   UNL     1       4.190   1.530  25.235  0.00  0.00    -0.108 OA
ATOM     37  O   UNL     1       6.393   1.128  26.372  0.00  0.00    -0.108 OA
BRANCH  35  38
ATOM     38  O   UNL     1       5.236  -0.697  25.173  0.00  0.00    -0.222 OA
ATOM     39  H   UNL     1       4.265  -0.847  25.316  0.00  0.00    +0.248 HD
ENDBRANCH  35  38
ENDBRANCH  34  35
ENDBRANCH   6  34
TORSDOF 12
ENDMDL
MODEL 4
REMARK VINA RESULT:      -6.6      3.352      5.904
REMARK  Name = 
REMARK  13 active torsions:
REMARK  status: ('A' for Active; 'I' for Inactive)
REMARK    1  A    between atoms: C_1  and  O_2
REMARK    2  A    between atoms: O_2  and  C_3
REMARK    3  A    between atoms: C_5  and  O_35
REMARK    4  A    between atoms: C_10  and  C_19
REMARK    5  A    between atoms: C_11  and  O_14
REMARK    6  A    between atoms: O_14  and  S_15
REMARK    7  A    between atoms: S_15  and  O_18
REMARK    8  A    between atoms: C_21  and  O_30
REMARK    9  A    between atoms: C_22  and  O_25
REMARK   10  A    between atoms: O_25  and  S_26
REMARK   11  A    between atoms: S_26  and  O_29
REMARK   12  A    between atoms: O_30  and  S_31
REMARK   13  A    between atoms: S_31  and  O_34
REMARK                            x       y       z     vdW  Elec       q    Type
REMARK                         _______ _______ _______ _____ _____    ______ ____
ROOT
ATOM      1  C   UNL     1      11.712   5.076  23.547  0.00  0.00    +0.127 A 
ATOM      2  C   UNL     1      11.408   3.707  23.539  0.00  0.00    +0.092 A 
ATOM      3  C   UNL     1      10.079   3.271  23.615  0.00  0.00    +0.147 A 
ATOM      4  O   UNL     1       9.851   1.913  23.611  0.00  0.00    -0.451 OA
ATOM      5  C   UNL     1       8.538   1.453  23.631  0.00  0.00    +0.184 A 
ATOM      6  C   UNL     1       7.450   2.245  23.709  0.00  0.00    +0.248 A 
ATOM      7  C   UNL     1       7.675   3.709  23.851  0.00  0.00    +0.241 A 
ATOM      8  O   UNL     1       6.742   4.451  24.138  0.00  0.00    -0.283 OA
ATOM      9  C   UNL     1       9.052   4.206  23.705  0.00  0.00    +0.109 A 
ATOM     10  C   UNL     1       9.354   5.573  23.698  0.00  0.00    +0.135 A 
ATOM     11  C   UNL     1      10.676   6.007  23.619  0.00  0.00    +0.092 A 
ENDROOT
BRANCH   5  12
ATOM     12  C   UNL     1       8.433  -0.019  23.521  0.00  0.00    +0.025 A 
ATOM     13  C   UNL     1       8.634  -0.638  22.279  0.00  0.00    +0.015 A 
ATOM     14  C   UNL     1       8.584  -2.033  22.153  0.00  0.00    +0.053 A 
ATOM     15  C   UNL     1       8.322  -2.831  23.266  0.00  0.00    +0.203 A 
ATOM     16  C   UNL     1       8.099  -2.222  24.512  0.00  0.00    +0.204 A 
ATOM     17  C   UNL     1       8.161  -0.823  24.641  0.00  0.00    +0.064 A 
BRANCH  15  18
ATOM     18  O   UNL     1       8.319  -4.207  23.246  0.00  0.00    -0.321 OA
BRANCH  18  19
ATOM     19  S   UNL     1       6.988  -5.078  22.887  0.00  0.00    +0.251 S 
ATOM     20  O   UNL     1       7.362  -6.225  22.089  0.00  0.00    -0.108 OA
ATOM     21  O   UNL     1       5.935  -4.175  22.484  0.00  0.00    -0.108 OA
BRANCH  19  22
ATOM     22  O   UNL     1       6.529  -5.632  24.327  0.00  0.00    -0.222 OA
ATOM     23  H   UNL     1       6.066  -4.902  24.787  0.00  0.00    +0.248 HD
ENDBRANCH  19  22
ENDBRANCH  18  19
ENDBRANCH  15  18
BRANCH  16  24
ATOM     24  O   UNL     1       7.884  -3.080  25.567  0.00  0.00    -0.321 OA
BRANCH  24  25
ATOM     25  S   UNL     1       6.514  -3.051  26.442  0.00  0.00    +0.251 S 
ATOM     26  O   UNL     1       6.403  -1.792  27.142  0.00  0.00    -0.108 OA
ATOM     27  O   UNL     1       6.385  -4.321  27.123  0.00  0.00    -0.108 OA
BRANCH  25  28
ATOM     28  O   UNL     1       5.372  -3.074  25.302  0.00  0.00    -0.222 OA
ATOM     29  H   UNL     1       5.561  -3.827  24.707  0.00  0.00    +0.248 HD
ENDBRANCH  25  28
ENDBRANCH  24  25
ENDBRANCH  16  24
ENDBRANCH   5  12
BRANCH   1  31
ATOM     30  C   UNL     1      13.577   5.650  22.182  0.00  0.00    +0.277 C 
ATOM     31  O   UNL     1      13.043   5.393  23.481  0.00  0.00    -0.495 OA
ENDBRANCH   1  31
BRANCH  10  32
ATOM     32  O   UNL     1       8.362   6.511  23.759  0.00  0.00    -0.506 OA
ATOM     33  H   UNL     1       8.564   7.266  23.184  0.00  0.00    +0.292 HD
ENDBRANCH  10  32
BRANCH   6  34
ATOM     34  O   UNL     1       6.158   1.729  23.744  0.00  0.00    -0.317 OA
BRANCH  34  35
ATOM     35  S   UNL     1       5.316   1.506  25.129  0.00  0.00    +0.252 S 
ATOM     36  O   UNL     1       4.059   2.210  24.996  0.00  0.00    -0.108 OA
ATOM     37  O   UNL     1       6.190   1.775  26.253  0.00  0.00    -0.108 OA
BRANCH  35  38
ATOM     38  O   UNL     1       4.968  -0.071  25.155  0.00  0.00    -0.222 OA
ATOM     39  H   UNL     1       4.039  -0.161  25.496  0.00  0.00    +0.248 HD
ENDBRANCH  35  38
ENDBRANCH  34  35
ENDBRANCH   6  34
TORSDOF 12
ENDMDL
MODEL 5
REMARK VINA RESULT:      -6.5      2.001      4.104
REMARK  Name = 
REMARK  13 active torsions:
REMARK  status: ('A' for Active; 'I' for Inactive)
REMARK    1  A    between atoms: C_1  and  O_2
REMARK    2  A    between atoms: O_2  and  C_3
REMARK    3  A    between atoms: C_5  and  O_35
REMARK    4  A    between atoms: C_10  and  C_19
REMARK    5  A    between atoms: C_11  and  O_14
REMARK    6  A    between atoms: O_14  and  S_15
REMARK    7  A    between atoms: S_15  and  O_18
REMARK    8  A    between atoms: C_21  and  O_30
REMARK    9  A    between atoms: C_22  and  O_25
REMARK   10  A    between atoms: O_25  and  S_26
REMARK   11  A    between atoms: S_26  and  O_29
REMARK   12  A    between atoms: O_30  and  S_31
REMARK   13  A    between atoms: S_31  and  O_34
REMARK                            x       y       z     vdW  Elec       q    Type
REMARK                         _______ _______ _______ _____ _____    ______ ____
ROOT
ATOM      1  C   UNL     1       5.433   3.861  23.683  0.00  0.00    +0.127 A 
ATOM      2  C   UNL     1       5.219   2.607  24.272  0.00  0.00    +0.092 A 
ATOM      3  C   UNL     1       6.024   1.512  23.932  0.00  0.00    +0.147 A 
ATOM      4  O   UNL     1       5.755   0.307  24.541  0.00  0.00    -0.451 OA
ATOM      5  C   UNL     1       6.573  -0.783  24.263  0.00  0.00    +0.184 A 
ATOM      6  C   UNL     1       7.597  -0.768  23.387  0.00  0.00    +0.248 A 
ATOM      7  C   UNL     1       7.823   0.484  22.616  0.00  0.00    +0.241 A 
ATOM      8  O   UNL     1       8.593   0.491  21.661  0.00  0.00    -0.283 OA
ATOM      9  C   UNL     1       7.042   1.671  22.996  0.00  0.00    +0.109 A 
ATOM     10  C   UNL     1       7.266   2.927  22.419  0.00  0.00    +0.135 A 
ATOM     11  C   UNL     1       6.466   4.017  22.759  0.00  0.00    +0.092 A 
ENDROOT
BRANCH   5  12
ATOM     12  C   UNL     1       6.237  -1.984  25.059  0.00  0.00    +0.025 A 
ATOM     13  C   UNL     1       6.061  -1.871  26.446  0.00  0.00    +0.015 A 
ATOM     14  C   UNL     1       5.700  -2.983  27.219  0.00  0.00    +0.053 A 
ATOM     15  C   UNL     1       5.518  -4.228  26.619  0.00  0.00    +0.203 A 
ATOM     16  C   UNL     1       5.711  -4.359  25.234  0.00  0.00    +0.204 A 
ATOM     17  C   UNL     1       6.062  -3.241  24.456  0.00  0.00    +0.064 A 
BRANCH  15  18
ATOM     18  O   UNL     1       5.101  -5.355  27.290  0.00  0.00    -0.321 OA
BRANCH  18  19
ATOM     19  S   UNL     1       6.017  -6.095  28.418  0.00  0.00    +0.251 S 
ATOM     20  O   UNL     1       5.694  -7.506  28.452  0.00  0.00    -0.108 OA
ATOM     21  O   UNL     1       6.031  -5.284  29.613  0.00  0.00    -0.108 OA
BRANCH  19  22
ATOM     22  O   UNL     1       7.501  -5.963  27.810  0.00  0.00    -0.222 OA
ATOM     23  H   UNL     1       8.125  -6.296  28.488  0.00  0.00    +0.248 HD
ENDBRANCH  19  22
ENDBRANCH  18  19
ENDBRANCH  15  18
BRANCH  16  24
ATOM     24  O   UNL     1       5.477  -5.611  24.713  0.00  0.00    -0.321 OA
BRANCH  24  25
ATOM     25  S   UNL     1       4.209  -5.926  23.746  0.00  0.00    +0.251 S 
ATOM     26  O   UNL     1       4.580  -5.721  22.365  0.00  0.00    -0.108 OA
ATOM     27  O   UNL     1       3.035  -5.308  24.323  0.00  0.00    -0.108 OA
BRANCH  25  28
ATOM     28  O   UNL     1       3.992  -7.510  23.960  0.00  0.00    -0.222 OA
ATOM     29  H   UNL     1       4.242  -7.960  23.128  0.00  0.00    +0.248 HD
ENDBRANCH  25  28
ENDBRANCH  24  25
ENDBRANCH  16  24
ENDBRANCH   5  12
BRANCH   1  31
ATOM     30  C   UNL     1       3.322   4.929  23.408  0.00  0.00    +0.277 C 
ATOM     31  O   UNL     1       4.581   4.860  24.077  0.00  0.00    -0.495 OA
ENDBRANCH   1  31
BRANCH  10  32
ATOM     32  O   UNL     1       8.275   3.115  21.517  0.00  0.00    -0.506 OA
ATOM     33  H   UNL     1       8.889   3.802  21.822  0.00  0.00    +0.292 HD
ENDBRANCH  10  32
BRANCH   6  34
ATOM     34  O   UNL     1       8.373  -1.895  23.133  0.00  0.00    -0.317 OA
BRANCH  34  35
ATOM     35  S   UNL     1       9.918  -2.058  23.646  0.00  0.00    +0.252 S 
ATOM     36  O   UNL     1      10.107  -3.437  24.039  0.00  0.00    -0.108 OA
ATOM     37  O   UNL     1      10.216  -0.985  24.574  0.00  0.00    -0.108 OA
BRANCH  35  38
ATOM     38  O   UNL     1      10.821  -1.819  22.328  0.00  0.00    -0.222 OA
ATOM     39  H   UNL     1      11.378  -1.014  22.496  0.00  0.00    +0.248 HD
ENDBRANCH  35  38
ENDBRANCH  34  35
ENDBRANCH   6  34
TORSDOF 12
ENDMDL
MODEL 6
REMARK VINA RESULT:      -6.4      2.539      4.366
REMARK  Name = 
REMARK  13 active torsions:
REMARK  status: ('A' for Active; 'I' for Inactive)
REMARK    1  A    between atoms: C_1  and  O_2
REMARK    2  A    between atoms: O_2  and  C_3
REMARK    3  A    between atoms: C_5  and  O_35
REMARK    4  A    between atoms: C_10  and  C_19
REMARK    5  A    between atoms: C_11  and  O_14
REMARK    6  A    between atoms: O_14  and  S_15
REMARK    7  A    between atoms: S_15  and  O_18
REMARK    8  A    between atoms: C_21  and  O_30
REMARK    9  A    between atoms: C_22  and  O_25
REMARK   10  A    between atoms: O_25  and  S_26
REMARK   11  A    between atoms: S_26  and  O_29
REMARK   12  A    between atoms: O_30  and  S_31
REMARK   13  A    between atoms: S_31  and  O_34
REMARK                            x       y       z     vdW  Elec       q    Type
REMARK                         _______ _______ _______ _____ _____    ______ ____
ROOT
ATOM      1  C   UNL     1       6.759   4.909  24.222  0.00  0.00    +0.127 A 
ATOM      2  C   UNL     1       6.294   3.622  24.528  0.00  0.00    +0.092 A 
ATOM      3  C   UNL     1       7.146   2.514  24.429  0.00  0.00    +0.147 A 
ATOM      4  O   UNL     1       6.623   1.277  24.736  0.00  0.00    -0.451 OA
ATOM      5  C   UNL     1       7.460   0.167  24.698  0.00  0.00    +0.184 A 
ATOM      6  C   UNL     1       8.755   0.197  24.327  0.00  0.00    +0.248 A 
ATOM      7  C   UNL     1       9.306   1.498  23.861  0.00  0.00    +0.241 A 
ATOM      8  O   UNL     1      10.403   1.543  23.314  0.00  0.00    -0.283 OA
ATOM      9  C   UNL     1       8.462   2.693  24.017  0.00  0.00    +0.109 A 
ATOM     10  C   UNL     1       8.932   3.979  23.726  0.00  0.00    +0.135 A 
ATOM     11  C   UNL     1       8.086   5.083  23.828  0.00  0.00    +0.092 A 
ENDROOT
BRANCH   5  12
ATOM     12  C   UNL     1       6.800  -1.078  25.147  0.00  0.00    +0.025 A 
ATOM     13  C   UNL     1       6.920  -1.485  26.484  0.00  0.00    +0.015 A 
ATOM     14  C   UNL     1       6.269  -2.636  26.949  0.00  0.00    +0.053 A 
ATOM     15  C   UNL     1       5.495  -3.406  26.080  0.00  0.00    +0.203 A 
ATOM     16  C   UNL     1       5.383  -3.020  24.734  0.00  0.00    +0.204 A 
ATOM     17  C   UNL     1       6.026  -1.859  24.271  0.00  0.00    +0.064 A 
BRANCH  15  18
ATOM     18  O   UNL     1       4.771  -4.511  26.465  0.00  0.00    -0.321 OA
BRANCH  18  19
ATOM     19  S   UNL     1       5.420  -6.005  26.534  0.00  0.00    +0.251 S 
ATOM     20  O   UNL     1       4.936  -6.687  27.715  0.00  0.00    -0.108 OA
ATOM     21  O   UNL     1       6.828  -5.918  26.223  0.00  0.00    -0.108 OA
BRANCH  19  22
ATOM     22  O   UNL     1       4.760  -6.736  25.261  0.00  0.00    -0.222 OA
ATOM     23  H   UNL     1       5.181  -7.617  25.179  0.00  0.00    +0.248 HD
ENDBRANCH  19  22
ENDBRANCH  18  19
ENDBRANCH  15  18
BRANCH  16  24
ATOM     24  O   UNL     1       4.573  -3.811  23.951  0.00  0.00    -0.321 OA
BRANCH  24  25
ATOM     25  S   UNL     1       5.142  -4.637  22.672  0.00  0.00    +0.251 S 
ATOM     26  O   UNL     1       5.428  -3.728  21.586  0.00  0.00    -0.108 OA
ATOM     27  O   UNL     1       4.320  -5.814  22.490  0.00  0.00    -0.108 OA
BRANCH  25  28
ATOM     28  O   UNL     1       6.553  -5.197  23.219  0.00  0.00    -0.222 OA
ATOM     29  H   UNL     1       7.202  -4.466  23.171  0.00  0.00    +0.248 HD
ENDBRANCH  25  28
ENDBRANCH  24  25
ENDBRANCH  16  24
ENDBRANCH   5  12
BRANCH   1  31
ATOM     30  C   UNL     1       4.466   5.552  24.232  0.00  0.00    +0.277 C 
ATOM     31  O   UNL     1       5.842   5.920  24.340  0.00  0.00    -0.495 OA
ENDBRANCH   1  31
BRANCH  10  32
ATOM     32  O   UNL     1      10.227   4.184  23.345  0.00  0.00    -0.506 OA
ATOM     33  H   UNL     1      10.838   3.996  24.076  0.00  0.00    +0.292 HD
ENDBRANCH  10  32
BRANCH   6  34
ATOM     34  O   UNL     1       9.543  -0.950  24.290  0.00  0.00    -0.317 OA
BRANCH  34  35
ATOM     35  S   UNL     1       9.605  -1.958  23.002  0.00  0.00    +0.252 S 
ATOM     36  O   UNL     1       9.095  -3.244  23.427  0.00  0.00    -0.108 OA
ATOM     37  O   UNL     1      10.918  -1.856  22.395  0.00  0.00    -0.108 OA
BRANCH  35  38
ATOM     38  O   UNL     1       8.539  -1.356  21.950  0.00  0.00    -0.222 OA
ATOM     39  H   UNL     1       7.635  -1.624  22.262  0.00  0.00    +0.248 HD
ENDBRANCH  35  38
ENDBRANCH  34  35
ENDBRANCH   6  34
TORSDOF 12
ENDMDL
MODEL 7
REMARK VINA RESULT:      -6.3      3.558      5.706
REMARK  Name = 
REMARK  13 active torsions:
REMARK  status: ('A' for Active; 'I' for Inactive)
REMARK    1  A    between atoms: C_1  and  O_2
REMARK    2  A    between atoms: O_2  and  C_3
REMARK    3  A    between atoms: C_5  and  O_35
REMARK    4  A    between atoms: C_10  and  C_19
REMARK    5  A    between atoms: C_11  and  O_14
REMARK    6  A    between atoms: O_14  and  S_15
REMARK    7  A    between atoms: S_15  and  O_18
REMARK    8  A    between atoms: C_21  and  O_30
REMARK    9  A    between atoms: C_22  and  O_25
REMARK   10  A    between atoms: O_25  and  S_26
REMARK   11  A    between atoms: S_26  and  O_29
REMARK   12  A    between atoms: O_30  and  S_31
REMARK   13  A    between atoms: S_31  and  O_34
REMARK                            x       y       z     vdW  Elec       q    Type
REMARK                         _______ _______ _______ _____ _____    ______ ____
ROOT
ATOM      1  C   UNL     1      10.519   5.351  23.924  0.00  0.00    +0.127 A 
ATOM      2  C   UNL     1      10.306   4.001  23.606  0.00  0.00    +0.092 A 
ATOM      3  C   UNL     1       9.315   3.262  24.265  0.00  0.00    +0.147 A 
ATOM      4  O   UNL     1       9.164   1.940  23.912  0.00  0.00    -0.451 OA
ATOM      5  C   UNL     1       8.152   1.196  24.511  0.00  0.00    +0.184 A 
ATOM      6  C   UNL     1       7.325   1.661  25.468  0.00  0.00    +0.248 A 
ATOM      7  C   UNL     1       7.557   3.045  25.963  0.00  0.00    +0.241 A 
ATOM      8  O   UNL     1       6.981   3.444  26.971  0.00  0.00    -0.283 OA
ATOM      9  C   UNL     1       8.541   3.871  25.247  0.00  0.00    +0.109 A 
ATOM     10  C   UNL     1       8.743   5.222  25.554  0.00  0.00    +0.135 A 
ATOM     11  C   UNL     1       9.726   5.960  24.896  0.00  0.00    +0.092 A 
ENDROOT
BRANCH   5  12
ATOM     12  C   UNL     1       8.035  -0.175  23.968  0.00  0.00    +0.025 A 
ATOM     13  C   UNL     1       7.091  -0.447  22.967  0.00  0.00    +0.015 A 
ATOM     14  C   UNL     1       6.988  -1.726  22.403  0.00  0.00    +0.053 A 
ATOM     15  C   UNL     1       7.820  -2.757  22.839  0.00  0.00    +0.203 A 
ATOM     16  C   UNL     1       8.755  -2.503  23.855  0.00  0.00    +0.204 A 
ATOM     17  C   UNL     1       8.867  -1.216  24.412  0.00  0.00    +0.064 A 
BRANCH  15  18
ATOM     18  O   UNL     1       7.830  -4.022  22.297  0.00  0.00    -0.321 OA
BRANCH  18  19
ATOM     19  S   UNL     1       6.478  -4.917  22.128  0.00  0.00    +0.251 S 
ATOM     20  O   UNL     1       5.887  -4.660  20.833  0.00  0.00    -0.108 OA
ATOM     21  O   UNL     1       5.711  -4.837  23.350  0.00  0.00    -0.108 OA
BRANCH  19  22
ATOM     22  O   UNL     1       7.052  -6.420  22.098  0.00  0.00    -0.222 OA
ATOM     23  H   UNL     1       6.311  -7.011  21.849  0.00  0.00    +0.248 HD
ENDBRANCH  19  22
ENDBRANCH  18  19
ENDBRANCH  15  18
BRANCH  16  24
ATOM     24  O   UNL     1       9.562  -3.561  24.204  0.00  0.00    -0.321 OA
BRANCH  24  25
ATOM     25  S   UNL     1       9.030  -4.793  25.121  0.00  0.00    +0.251 S 
ATOM     26  O   UNL     1       9.037  -6.017  24.354  0.00  0.00    -0.108 OA
ATOM     27  O   UNL     1       7.857  -4.347  25.842  0.00  0.00    -0.108 OA
BRANCH  25  28
ATOM     28  O   UNL     1      10.184  -4.917  26.242  0.00  0.00    -0.222 OA
ATOM     29  H   UNL     1      11.042  -4.742  25.806  0.00  0.00    +0.248 HD
ENDBRANCH  25  28
ENDBRANCH  24  25
ENDBRANCH  16  24
ENDBRANCH   5  12
BRANCH   1  31
ATOM     30  C   UNL     1      12.682   5.199  22.938  0.00  0.00    +0.277 C 
ATOM     31  O   UNL     1      11.520   5.977  23.229  0.00  0.00    -0.495 OA
ENDBRANCH   1  31
BRANCH  10  32
ATOM     32  O   UNL     1       7.978   5.850  26.496  0.00  0.00    -0.506 OA
ATOM     33  H   UNL     1       8.154   5.491  27.380  0.00  0.00    +0.292 HD
ENDBRANCH  10  32
BRANCH   6  34
ATOM     34  O   UNL     1       6.340   0.867  26.047  0.00  0.00    -0.317 OA
BRANCH  34  35
ATOM     35  S   UNL     1       6.590  -0.045  27.383  0.00  0.00    +0.252 S 
ATOM     36  O   UNL     1       6.415  -1.432  27.007  0.00  0.00    -0.108 OA
ATOM     37  O   UNL     1       5.826   0.517  28.479  0.00  0.00    -0.108 OA
BRANCH  35  38
ATOM     38  O   UNL     1       8.154   0.150  27.735  0.00  0.00    -0.222 OA
ATOM     39  H   UNL     1       8.612  -0.703  27.519  0.00  0.00    +0.248 HD
ENDBRANCH  35  38
ENDBRANCH  34  35
ENDBRANCH   6  34
TORSDOF 12
ENDMDL
MODEL 8
REMARK VINA RESULT:      -6.3      3.707      8.514
REMARK  Name = 
REMARK  13 active torsions:
REMARK  status: ('A' for Active; 'I' for Inactive)
REMARK    1  A    between atoms: C_1  and  O_2
REMARK    2  A    between atoms: O_2  and  C_3
REMARK    3  A    between atoms: C_5  and  O_35
REMARK    4  A    between atoms: C_10  and  C_19
REMARK    5  A    between atoms: C_11  and  O_14
REMARK    6  A    between atoms: O_14  and  S_15
REMARK    7  A    between atoms: S_15  and  O_18
REMARK    8  A    between atoms: C_21  and  O_30
REMARK    9  A    between atoms: C_22  and  O_25
REMARK   10  A    between atoms: O_25  and  S_26
REMARK   11  A    between atoms: S_26  and  O_29
REMARK   12  A    between atoms: O_30  and  S_31
REMARK   13  A    between atoms: S_31  and  O_34
REMARK                            x       y       z     vdW  Elec       q    Type
REMARK                         _______ _______ _______ _____ _____    ______ ____
ROOT
ATOM      1  C   UNL     1       5.083  -5.083  22.904  0.00  0.00    +0.127 A 
ATOM      2  C   UNL     1       5.038  -3.681  22.889  0.00  0.00    +0.092 A 
ATOM      3  C   UNL     1       6.206  -2.928  23.074  0.00  0.00    +0.147 A 
ATOM      4  O   UNL     1       6.090  -1.556  23.056  0.00  0.00    -0.451 OA
ATOM      5  C   UNL     1       7.241  -0.785  23.183  0.00  0.00    +0.184 A 
ATOM      6  C   UNL     1       8.478  -1.281  23.380  0.00  0.00    +0.248 A 
ATOM      7  C   UNL     1       8.609  -2.755  23.538  0.00  0.00    +0.241 A 
ATOM      8  O   UNL     1       9.665  -3.242  23.929  0.00  0.00    -0.283 OA
ATOM      9  C   UNL     1       7.418  -3.579  23.281  0.00  0.00    +0.109 A 
ATOM     10  C   UNL     1       7.465  -4.978  23.281  0.00  0.00    +0.135 A 
ATOM     11  C   UNL     1       6.305  -5.727  23.094  0.00  0.00    +0.092 A 
ENDROOT
BRANCH   5  12
ATOM     12  C   UNL     1       6.989   0.667  23.045  0.00  0.00    +0.025 A 
ATOM     13  C   UNL     1       7.416   1.339  21.890  0.00  0.00    +0.015 A 
ATOM     14  C   UNL     1       7.153   2.704  21.712  0.00  0.00    +0.053 A 
ATOM     15  C   UNL     1       6.467   3.421  22.691  0.00  0.00    +0.203 A 
ATOM     16  C   UNL     1       6.052   2.765  23.862  0.00  0.00    +0.204 A 
ATOM     17  C   UNL     1       6.305   1.393  24.035  0.00  0.00    +0.064 A 
BRANCH  15  18
ATOM     18  O   UNL     1       6.110   4.745  22.570  0.00  0.00    -0.321 OA
BRANCH  18  19
ATOM     19  S   UNL     1       7.167   5.965  22.801  0.00  0.00    +0.251 S 
ATOM     20  O   UNL     1       8.366   5.453  23.429  0.00  0.00    -0.108 OA
ATOM     21  O   UNL     1       6.454   7.106  23.327  0.00  0.00    -0.108 OA
BRANCH  19  22
ATOM     22  O   UNL     1       7.560   6.381  21.297  0.00  0.00    -0.222 OA
ATOM     23  H   UNL     1       7.646   7.356  21.276  0.00  0.00    +0.248 HD
ENDBRANCH  19  22
ENDBRANCH  18  19
ENDBRANCH  15  18
BRANCH  16  24
ATOM     24  O   UNL     1       5.350   3.534  24.762  0.00  0.00    -0.321 OA
BRANCH  24  25
ATOM     25  S   UNL     1       6.000   4.036  26.165  0.00  0.00    +0.251 S 
ATOM     26  O   UNL     1       5.711   3.082  27.211  0.00  0.00    -0.108 OA
ATOM     27  O   UNL     1       5.718   5.447  26.316  0.00  0.00    -0.108 OA
BRANCH  25  28
ATOM     28  O   UNL     1       7.583   3.959  25.863  0.00  0.00    -0.222 OA
ATOM     29  H   UNL     1       8.013   4.698  26.339  0.00  0.00    +0.248 HD
ENDBRANCH  25  28
ENDBRANCH  24  25
ENDBRANCH  16  24
ENDBRANCH   5  12
BRANCH   1  31
ATOM     30  C   UNL     1       2.836  -5.381  23.634  0.00  0.00    +0.277 C 
ATOM     31  O   UNL     1       3.883  -5.720  22.726  0.00  0.00    -0.495 OA
ENDBRANCH   1  31
BRANCH  10  32
ATOM     32  O   UNL     1       8.647  -5.640  23.457  0.00  0.00    -0.506 OA
ATOM     33  H   UNL     1       8.513  -6.464  23.953  0.00  0.00    +0.292 HD
ENDBRANCH  10  32
BRANCH   6  34
ATOM     34  O   UNL     1       9.593  -0.461  23.519  0.00  0.00    -0.317 OA
BRANCH  34  35
ATOM     35  S   UNL     1      10.067   0.179  24.949  0.00  0.00    +0.252 S 
ATOM     36  O   UNL     1      11.505   0.334  24.905  0.00  0.00    -0.108 OA
ATOM     37  O   UNL     1       9.445  -0.570  26.022  0.00  0.00    -0.108 OA
BRANCH  35  38
ATOM     38  O   UNL     1       9.437   1.665  24.969  0.00  0.00    -0.222 OA
ATOM     39  H   UNL     1       9.738   2.123  24.141  0.00  0.00    +0.248 HD
ENDBRANCH  35  38
ENDBRANCH  34  35
ENDBRANCH   6  34
TORSDOF 12
ENDMDL
MODEL 9
REMARK VINA RESULT:      -6.3      2.386      3.142
REMARK  Name = 
REMARK  13 active torsions:
REMARK  status: ('A' for Active; 'I' for Inactive)
REMARK    1  A    between atoms: C_1  and  O_2
REMARK    2  A    between atoms: O_2  and  C_3
REMARK    3  A    between atoms: C_5  and  O_35
REMARK    4  A    between atoms: C_10  and  C_19
REMARK    5  A    between atoms: C_11  and  O_14
REMARK    6  A    between atoms: O_14  and  S_15
REMARK    7  A    between atoms: S_15  and  O_18
REMARK    8  A    between atoms: C_21  and  O_30
REMARK    9  A    between atoms: C_22  and  O_25
REMARK   10  A    between atoms: O_25  and  S_26
REMARK   11  A    between atoms: S_26  and  O_29
REMARK   12  A    between atoms: O_30  and  S_31
REMARK   13  A    between atoms: S_31  and  O_34
REMARK                            x       y       z     vdW  Elec       q    Type
REMARK                         _______ _______ _______ _____ _____    ______ ____
ROOT
ATOM      1  C   UNL     1       9.598   1.175  23.887  0.00  0.00    +0.127 A 
ATOM      2  C   UNL     1       8.581   0.590  24.657  0.00  0.00    +0.092 A 
ATOM      3  C   UNL     1       8.120  -0.700  24.365  0.00  0.00    +0.147 A 
ATOM      4  O   UNL     1       7.114  -1.212  25.154  0.00  0.00    -0.451 OA
ATOM      5  C   UNL     1       6.674  -2.511  24.922  0.00  0.00    +0.184 A 
ATOM      6  C   UNL     1       7.126  -3.307  23.933  0.00  0.00    +0.248 A 
ATOM      7  C   UNL     1       8.115  -2.728  22.984  0.00  0.00    +0.241 A 
ATOM      8  O   UNL     1       8.399  -3.324  21.950  0.00  0.00    -0.283 OA
ATOM      9  C   UNL     1       8.672  -1.404  23.300  0.00  0.00    +0.109 A 
ATOM     10  C   UNL     1       9.697  -0.826  22.542  0.00  0.00    +0.135 A 
ATOM     11  C   UNL     1      10.159   0.456  22.832  0.00  0.00    +0.092 A 
ENDROOT
BRANCH   5  12
ATOM     12  C   UNL     1       5.666  -2.971  25.902  0.00  0.00    +0.025 A 
ATOM     13  C   UNL     1       4.339  -2.527  25.794  0.00  0.00    +0.015 A 
ATOM     14  C   UNL     1       3.354  -2.981  26.682  0.00  0.00    +0.053 A 
ATOM     15  C   UNL     1       3.681  -3.878  27.698  0.00  0.00    +0.203 A 
ATOM     16  C   UNL     1       5.010  -4.314  27.829  0.00  0.00    +0.204 A 
ATOM     17  C   UNL     1       5.996  -3.868  26.931  0.00  0.00    +0.064 A 
BRANCH  15  18
ATOM     18  O   UNL     1       2.767  -4.423  28.570  0.00  0.00    -0.321 OA
BRANCH  18  19
ATOM     19  S   UNL     1       1.620  -5.480  28.095  0.00  0.00    +0.251 S 
ATOM     20  O   UNL     1       0.530  -4.762  27.471  0.00  0.00    -0.108 OA
ATOM     21  O   UNL     1       1.400  -6.437  29.154  0.00  0.00    -0.108 OA
BRANCH  19  22
ATOM     22  O   UNL     1       2.366  -6.311  26.936  0.00  0.00    -0.222 OA
ATOM     23  H   UNL     1       3.310  -6.052  26.951  0.00  0.00    +0.248 HD
ENDBRANCH  19  22
ENDBRANCH  18  19
ENDBRANCH  15  18
BRANCH  16  24
ATOM     24  O   UNL     1       5.244  -5.225  28.833  0.00  0.00    -0.321 OA
BRANCH  24  25
ATOM     25  S   UNL     1       5.459  -6.809  28.535  0.00  0.00    +0.251 S 
ATOM     26  O   UNL     1       6.643  -7.281  29.214  0.00  0.00    -0.108 OA
ATOM     27  O   UNL     1       5.244  -7.037  27.122  0.00  0.00    -0.108 OA
BRANCH  25  28
ATOM     28  O   UNL     1       4.184  -7.477  29.262  0.00  0.00    -0.222 OA
ATOM     29  H   UNL     1       4.513  -8.195  29.839  0.00  0.00    +0.248 HD
ENDBRANCH  25  28
ENDBRANCH  24  25
ENDBRANCH  16  24
ENDBRANCH   5  12
BRANCH   1  31
ATOM     30  C   UNL     1       8.910   3.382  24.459  0.00  0.00    +0.277 C 
ATOM     31  O   UNL     1       9.965   2.444  24.250  0.00  0.00    -0.495 OA
ENDBRANCH   1  31
BRANCH  10  32
ATOM     32  O   UNL     1      10.274  -1.507  21.506  0.00  0.00    -0.506 OA
ATOM     33  H   UNL     1      10.889  -0.938  21.017  0.00  0.00    +0.292 HD
ENDBRANCH  10  32
BRANCH   6  34
ATOM     34  O   UNL     1       6.636  -4.594  23.734  0.00  0.00    -0.317 OA
BRANCH  34  35
ATOM     35  S   UNL     1       5.480  -4.958  22.636  0.00  0.00    +0.252 S 
ATOM     36  O   UNL     1       4.863  -3.716  22.220  0.00  0.00    -0.108 OA
ATOM     37  O   UNL     1       4.667  -6.039  23.157  0.00  0.00    -0.108 OA
BRANCH  35  38
ATOM     38  O   UNL     1       6.284  -5.532  21.358  0.00  0.00    -0.222 OA
ATOM     39  H   UNL     1       6.365  -4.788  20.704  0.00  0.00    +0.248 HD
ENDBRANCH  35  38
ENDBRANCH  34  35
ENDBRANCH   6  34
TORSDOF 12
ENDMDL
