MODEL 1
REMARK VINA RESULT:      -6.7      0.000      0.000
REMARK  Name = 
REMARK  26 active torsions:
REMARK  status: ('A' for Active; 'I' for Inactive)
REMARK    1  A    between atoms: C_1  and  C_2
REMARK    2  A    between atoms: C_3  and  O_64
REMARK    3  A    between atoms: C_5  and  O_63
REMARK    4  A    between atoms: C_6  and  O_62
REMARK    5  A    between atoms: C_8  and  O_11
REMARK    6  A    between atoms: O_11  and  C_12
REMARK    7  A    between atoms: C_13  and  O_61
REMARK    8  A    between atoms: C_15  and  O_60
REMARK    9  A    between atoms: C_17  and  C_44
REMARK   10  A    between atoms: C_19  and  O_21
REMARK   11  A    between atoms: O_21  and  C_22
REMARK   12  A    between atoms: C_23  and  C_35
REMARK   13  A    between atoms: C_27  and  O_34
REMARK   14  A    between atoms: C_29  and  O_33
REMARK   15  A    between atoms: C_37  and  O_42
REMARK   16  A    between atoms: C_38  and  O_41
REMARK   17  A    between atoms: O_42  and  C_43
REMARK   18  A    between atoms: C_44  and  O_45
REMARK   19  A    between atoms: O_45  and  C_46
REMARK   20  A    between atoms: C_48  and  O_59
REMARK   21  A    between atoms: C_49  and  O_58
REMARK   22  A    between atoms: C_51  and  O_57
REMARK   23  A    between atoms: C_53  and  C_55
REMARK   24  A    between atoms: C_55  and  O_56
REMARK   25  A    between atoms: O_64  and  C_65
REMARK   26  A    between atoms: C_65  and  C_67
REMARK                            x       y       z     vdW  Elec       q    Type
REMARK                         _______ _______ _______ _____ _____    ______ ____
ROOT
ATOM      1  C   UNL     1       5.628  -1.043  26.725  0.00  0.00    +0.221 C 
ATOM      2  C   UNL     1       7.170  -0.773  26.659  0.00  0.00    +0.340 C 
ATOM      3  O   UNL     1       7.550   0.227  27.627  0.00  0.00    -0.331 OA
ATOM      4  C   UNL     1       6.913   1.512  27.386  0.00  0.00    +0.179 C 
ATOM      5  C   UNL     1       5.383   1.379  27.452  0.00  0.00    +0.177 C 
ATOM      6  C   UNL     1       4.926   0.324  26.435  0.00  0.00    +0.180 C 
ENDROOT
BRANCH   6   7
ATOM      7  O   UNL     1       3.483   0.309  26.402  0.00  0.00    -0.386 OA
ATOM      8  H   UNL     1       3.178   0.253  27.325  0.00  0.00    +0.210 HD
ENDBRANCH   6   7
BRANCH   5   9
ATOM      9  O   UNL     1       4.731   2.622  27.188  0.00  0.00    -0.386 OA
ATOM     10  H   UNL     1       3.924   2.404  26.682  0.00  0.00    +0.210 HD
ENDBRANCH   5   9
BRANCH   2  11
ATOM     11  O   UNL     1       8.009  -1.961  26.726  0.00  0.00    -0.453 OA
BRANCH  11  12
ATOM     12  C   UNL     1       8.026  -2.726  25.546  0.00  0.00    +0.214 A 
ATOM     13  C   UNL     1       7.460  -4.131  25.551  0.00  0.00    +0.238 A 
ATOM     14  O   UNL     1       7.377  -4.795  26.573  0.00  0.00    -0.283 OA
ATOM     15  C   UNL     1       6.975  -4.658  24.268  0.00  0.00    +0.109 A 
ATOM     16  C   UNL     1       7.575  -4.143  23.136  0.00  0.00    +0.147 A 
ATOM     17  C   UNL     1       7.254  -4.638  21.868  0.00  0.00    +0.092 A 
ATOM     18  C   UNL     1       6.300  -5.646  21.760  0.00  0.00    +0.124 A 
ATOM     19  C   UNL     1       5.659  -6.147  22.889  0.00  0.00    +0.091 A 
ATOM     20  O   UNL     1       8.511  -3.152  23.215  0.00  0.00    -0.451 OA
ATOM     21  C   UNL     1       5.992  -5.647  24.148  0.00  0.00    +0.135 A 
ATOM     22  C   UNL     1       8.538  -2.324  24.351  0.00  0.00    +0.181 A 
BRANCH  22  23
ATOM     23  C   UNL     1       9.218  -1.036  23.994  0.00  0.00    +0.025 A 
ATOM     24  C   UNL     1      10.193  -0.536  24.899  0.00  0.00    +0.015 A 
ATOM     25  C   UNL     1      10.756   0.733  24.769  0.00  0.00    +0.050 A 
ATOM     26  C   UNL     1      10.390   1.516  23.694  0.00  0.00    +0.158 A 
ATOM     27  C   UNL     1       9.482   1.041  22.744  0.00  0.00    +0.162 A 
ATOM     28  C   UNL     1       8.871  -0.218  22.907  0.00  0.00    +0.061 A 
BRANCH  27  29
ATOM     29  O   UNL     1       9.222   1.908  21.713  0.00  0.00    -0.491 OA
ATOM     30  C   UNL     1       7.944   1.721  21.110  0.00  0.00    +0.277 C 
ENDBRANCH  27  29
BRANCH  26  31
ATOM     31  O   UNL     1      10.956   2.755  23.575  0.00  0.00    -0.503 OA
ATOM     32  H   UNL     1      11.237   2.997  24.478  0.00  0.00    +0.292 HD
ENDBRANCH  26  31
ENDBRANCH  22  23
BRANCH  18  33
ATOM     33  O   UNL     1       5.950  -6.176  20.554  0.00  0.00    -0.507 OA
ATOM     34  H   UNL     1       5.051  -5.890  20.321  0.00  0.00    +0.292 HD
ENDBRANCH  18  33
BRANCH  21  35
ATOM     35  O   UNL     1       5.318  -6.100  25.246  0.00  0.00    -0.506 OA
ATOM     36  H   UNL     1       5.348  -5.424  25.945  0.00  0.00    +0.292 HD
ENDBRANCH  21  35
ENDBRANCH  11  12
ENDBRANCH   2  11
BRANCH   4  37
ATOM     37  C   UNL     1       7.397   2.119  26.046  0.00  0.00    +0.197 C 
BRANCH  37  38
ATOM     38  O   UNL     1       6.612   3.131  25.438  0.00  0.00    -0.346 OA
BRANCH  38  39
ATOM     39  C   UNL     1       6.372   3.034  24.034  0.00  0.00    +0.282 C 
ATOM     40  O   UNL     1       7.216   3.994  23.372  0.00  0.00    -0.341 OA
ATOM     41  C   UNL     1       7.002   5.336  23.854  0.00  0.00    +0.178 C 
ATOM     42  C   UNL     1       5.535   5.786  23.627  0.00  0.00    +0.177 C 
ATOM     43  C   UNL     1       4.541   4.747  24.171  0.00  0.00    +0.179 C 
ATOM     44  C   UNL     1       4.910   3.341  23.650  0.00  0.00    +0.201 C 
BRANCH  44  45
ATOM     45  O   UNL     1       3.993   2.344  24.107  0.00  0.00    -0.384 OA
ATOM     46  H   UNL     1       3.467   2.735  24.828  0.00  0.00    +0.210 HD
ENDBRANCH  44  45
BRANCH  43  47
ATOM     47  O   UNL     1       4.482   4.797  25.605  0.00  0.00    -0.386 OA
ATOM     48  H   UNL     1       4.093   5.660  25.850  0.00  0.00    +0.210 HD
ENDBRANCH  43  47
BRANCH  42  49
ATOM     49  O   UNL     1       5.257   5.948  22.234  0.00  0.00    -0.386 OA
ATOM     50  H   UNL     1       5.376   5.080  21.806  0.00  0.00    +0.210 HD
ENDBRANCH  42  49
BRANCH  41  51
ATOM     51  C   UNL     1       8.061   6.246  23.204  0.00  0.00    +0.190 C 
BRANCH  51  52
ATOM     52  O   UNL     1       7.943   6.344  21.790  0.00  0.00    -0.392 OA
ATOM     53  H   UNL     1       7.033   6.065  21.571  0.00  0.00    +0.210 HD
ENDBRANCH  51  52
ENDBRANCH  41  51
ENDBRANCH  38  39
ENDBRANCH  37  38
ENDBRANCH   4  37
BRANCH   1  54
ATOM     54  O   UNL     1       5.217  -1.646  27.978  0.00  0.00    -0.337 OA
BRANCH  54  58
ATOM     55  C   UNL     1       1.046  -1.996  28.570  0.00  0.00    +0.042 C 
ATOM     56  C   UNL     1       2.010  -3.060  29.114  0.00  0.00    +0.162 C 
ATOM     57  O   UNL     1       3.373  -2.576  29.190  0.00  0.00    -0.342 OA
ATOM     58  C   UNL     1       3.962  -2.353  27.900  0.00  0.00    +0.282 C 
ATOM     59  C   UNL     1       4.037  -3.681  27.104  0.00  0.00    +0.202 C 
ATOM     60  C   UNL     1       2.634  -4.269  26.973  0.00  0.00    +0.191 C 
ATOM     61  C   UNL     1       1.904  -4.379  28.317  0.00  0.00    +0.236 C 
BRANCH  60  62
ATOM     62  O   UNL     1       2.710  -5.547  26.322  0.00  0.00    -0.385 OA
ATOM     63  H   UNL     1       3.612  -5.876  26.505  0.00  0.00    +0.210 HD
ENDBRANCH  60  62
BRANCH  59  64
ATOM     64  O   UNL     1       4.932  -4.624  27.716  0.00  0.00    -0.384 OA
ATOM     65  H   UNL     1       5.831  -4.371  27.442  0.00  0.00    +0.210 HD
ENDBRANCH  59  64
BRANCH  61  66
ATOM     66  O   UNL     1       2.493  -5.471  29.058  0.00  0.00    -0.456 OA
BRANCH  66  67
ATOM     67  C   UNL     1       1.726  -6.590  29.157  0.00  0.00    +0.304 C 
ATOM     68  C   UNL     1       2.193  -7.482  30.259  0.00  0.00    +0.136 C 
ATOM     69  O   UNL     1       0.760  -6.836  28.442  0.00  0.00    -0.251 OA
ENDBRANCH  66  67
ENDBRANCH  61  66
ENDBRANCH  54  58
ENDBRANCH   1  54
TORSDOF 23
ENDMDL
MODEL 2
REMARK VINA RESULT:      -6.3      2.561      8.924
REMARK  Name = 
REMARK  26 active torsions:
REMARK  status: ('A' for Active; 'I' for Inactive)
REMARK    1  A    between atoms: C_1  and  C_2
REMARK    2  A    between atoms: C_3  and  O_64
REMARK    3  A    between atoms: C_5  and  O_63
REMARK    4  A    between atoms: C_6  and  O_62
REMARK    5  A    between atoms: C_8  and  O_11
REMARK    6  A    between atoms: O_11  and  C_12
REMARK    7  A    between atoms: C_13  and  O_61
REMARK    8  A    between atoms: C_15  and  O_60
REMARK    9  A    between atoms: C_17  and  C_44
REMARK   10  A    between atoms: C_19  and  O_21
REMARK   11  A    between atoms: O_21  and  C_22
REMARK   12  A    between atoms: C_23  and  C_35
REMARK   13  A    between atoms: C_27  and  O_34
REMARK   14  A    between atoms: C_29  and  O_33
REMARK   15  A    between atoms: C_37  and  O_42
REMARK   16  A    between atoms: C_38  and  O_41
REMARK   17  A    between atoms: O_42  and  C_43
REMARK   18  A    between atoms: C_44  and  O_45
REMARK   19  A    between atoms: O_45  and  C_46
REMARK   20  A    between atoms: C_48  and  O_59
REMARK   21  A    between atoms: C_49  and  O_58
REMARK   22  A    between atoms: C_51  and  O_57
REMARK   23  A    between atoms: C_53  and  C_55
REMARK   24  A    between atoms: C_55  and  O_56
REMARK   25  A    between atoms: O_64  and  C_65
REMARK   26  A    between atoms: C_65  and  C_67
REMARK                            x       y       z     vdW  Elec       q    Type
REMARK                         _______ _______ _______ _____ _____    ______ ____
ROOT
ATOM      1  C   UNL     1       5.922   2.016  26.245  0.00  0.00    +0.221 C 
ATOM      2  C   UNL     1       6.057   1.170  24.932  0.00  0.00    +0.340 C 
ATOM      3  O   UNL     1       5.008   0.182  24.858  0.00  0.00    -0.331 OA
ATOM      4  C   UNL     1       5.059  -0.775  25.952  0.00  0.00    +0.179 C 
ATOM      5  C   UNL     1       4.909  -0.059  27.305  0.00  0.00    +0.177 C 
ATOM      6  C   UNL     1       6.007   1.005  27.435  0.00  0.00    +0.180 C 
ENDROOT
BRANCH   6   7
ATOM      7  O   UNL     1       5.947   1.571  28.761  0.00  0.00    -0.386 OA
ATOM      8  H   UNL     1       6.052   0.835  29.390  0.00  0.00    +0.210 HD
ENDBRANCH   6   7
BRANCH   5   9
ATOM      9  O   UNL     1       4.986  -0.973  28.400  0.00  0.00    -0.386 OA
ATOM     10  H   UNL     1       5.001  -0.427  29.209  0.00  0.00    +0.210 HD
ENDBRANCH   5   9
BRANCH   2  11
ATOM     11  O   UNL     1       6.181   1.945  23.707  0.00  0.00    -0.453 OA
BRANCH  11  12
ATOM     12  C   UNL     1       7.496   2.345  23.404  0.00  0.00    +0.214 A 
ATOM     13  C   UNL     1       7.784   3.794  23.072  0.00  0.00    +0.238 A 
ATOM     14  O   UNL     1       6.924   4.546  22.640  0.00  0.00    -0.283 OA
ATOM     15  C   UNL     1       9.149   4.276  23.326  0.00  0.00    +0.109 A 
ATOM     16  C   UNL     1      10.148   3.325  23.264  0.00  0.00    +0.147 A 
ATOM     17  C   UNL     1      11.491   3.689  23.400  0.00  0.00    +0.092 A 
ATOM     18  C   UNL     1      11.808   5.026  23.622  0.00  0.00    +0.124 A 
ATOM     19  C   UNL     1      10.809   5.990  23.726  0.00  0.00    +0.091 A 
ATOM     20  O   UNL     1       9.864   2.007  23.050  0.00  0.00    -0.451 OA
ATOM     21  C   UNL     1       9.473   5.613  23.583  0.00  0.00    +0.135 A 
ATOM     22  C   UNL     1       8.579   1.524  23.358  0.00  0.00    +0.181 A 
BRANCH  22  23
ATOM     23  C   UNL     1       8.659   0.042  23.574  0.00  0.00    +0.025 A 
ATOM     24  C   UNL     1       9.529  -0.426  24.595  0.00  0.00    +0.015 A 
ATOM     25  C   UNL     1       9.825  -1.778  24.767  0.00  0.00    +0.050 A 
ATOM     26  C   UNL     1       9.212  -2.702  23.947  0.00  0.00    +0.158 A 
ATOM     27  C   UNL     1       8.299  -2.293  22.970  0.00  0.00    +0.162 A 
ATOM     28  C   UNL     1       8.045  -0.923  22.760  0.00  0.00    +0.061 A 
BRANCH  27  29
ATOM     29  O   UNL     1       7.743  -3.312  22.239  0.00  0.00    -0.491 OA
ATOM     30  C   UNL     1       6.389  -3.080  21.862  0.00  0.00    +0.277 C 
ENDBRANCH  27  29
BRANCH  26  31
ATOM     31  O   UNL     1       9.505  -4.024  24.132  0.00  0.00    -0.503 OA
ATOM     32  H   UNL     1       9.380  -4.441  23.257  0.00  0.00    +0.292 HD
ENDBRANCH  26  31
ENDBRANCH  22  23
BRANCH  18  33
ATOM     33  O   UNL     1      13.098   5.445  23.755  0.00  0.00    -0.507 OA
ATOM     34  H   UNL     1      13.652   5.008  23.087  0.00  0.00    +0.292 HD
ENDBRANCH  18  33
BRANCH  21  35
ATOM     35  O   UNL     1       8.494   6.551  23.744  0.00  0.00    -0.506 OA
ATOM     36  H   UNL     1       8.033   6.686  22.898  0.00  0.00    +0.292 HD
ENDBRANCH  21  35
ENDBRANCH  11  12
ENDBRANCH   2  11
BRANCH   4  37
ATOM     37  C   UNL     1       6.350  -1.626  25.874  0.00  0.00    +0.197 C 
BRANCH  37  38
ATOM     38  O   UNL     1       6.409  -2.836  26.612  0.00  0.00    -0.346 OA
BRANCH  38  39
ATOM     39  C   UNL     1       5.481  -3.867  26.274  0.00  0.00    +0.282 C 
ATOM     40  O   UNL     1       4.716  -4.180  27.452  0.00  0.00    -0.341 OA
ATOM     41  C   UNL     1       5.552  -4.563  28.563  0.00  0.00    +0.178 C 
ATOM     42  C   UNL     1       6.397  -5.818  28.222  0.00  0.00    +0.177 C 
ATOM     43  C   UNL     1       7.146  -5.643  26.891  0.00  0.00    +0.179 C 
ATOM     44  C   UNL     1       6.169  -5.162  25.796  0.00  0.00    +0.201 C 
BRANCH  44  45
ATOM     45  O   UNL     1       6.816  -5.014  24.530  0.00  0.00    -0.384 OA
ATOM     46  H   UNL     1       7.092  -4.083  24.446  0.00  0.00    +0.210 HD
ENDBRANCH  44  45
BRANCH  43  47
ATOM     47  O   UNL     1       8.266  -4.759  27.045  0.00  0.00    -0.386 OA
ATOM     48  H   UNL     1       8.228  -4.111  26.314  0.00  0.00    +0.210 HD
ENDBRANCH  43  47
BRANCH  42  49
ATOM     49  O   UNL     1       5.568  -6.976  28.091  0.00  0.00    -0.386 OA
ATOM     50  H   UNL     1       5.805  -7.416  27.254  0.00  0.00    +0.210 HD
ENDBRANCH  42  49
BRANCH  41  51
ATOM     51  C   UNL     1       4.651  -4.713  29.803  0.00  0.00    +0.190 C 
BRANCH  51  52
ATOM     52  O   UNL     1       3.392  -5.313  29.529  0.00  0.00    -0.392 OA
ATOM     53  H   UNL     1       3.403  -5.554  28.582  0.00  0.00    +0.210 HD
ENDBRANCH  51  52
ENDBRANCH  41  51
ENDBRANCH  38  39
ENDBRANCH  37  38
ENDBRANCH   4  37
BRANCH   1  54
ATOM     54  O   UNL     1       4.721   2.829  26.266  0.00  0.00    -0.337 OA
BRANCH  54  58
ATOM     55  C   UNL     1       6.521   6.654  26.323  0.00  0.00    +0.042 C 
ATOM     56  C   UNL     1       6.547   5.753  27.567  0.00  0.00    +0.162 C 
ATOM     57  O   UNL     1       6.273   4.369  27.244  0.00  0.00    -0.342 OA
ATOM     58  C   UNL     1       4.922   4.148  26.815  0.00  0.00    +0.282 C 
ATOM     59  C   UNL     1       3.929   4.515  27.948  0.00  0.00    +0.202 C 
ATOM     60  C   UNL     1       4.145   5.971  28.355  0.00  0.00    +0.191 C 
ATOM     61  C   UNL     1       5.611   6.291  28.673  0.00  0.00    +0.236 C 
BRANCH  60  62
ATOM     62  O   UNL     1       3.296   6.286  29.469  0.00  0.00    -0.385 OA
ATOM     63  H   UNL     1       2.621   5.581  29.487  0.00  0.00    +0.210 HD
ENDBRANCH  60  62
BRANCH  59  64
ATOM     64  O   UNL     1       4.060   3.642  29.080  0.00  0.00    -0.384 OA
ATOM     65  H   UNL     1       3.188   3.229  29.215  0.00  0.00    +0.210 HD
ENDBRANCH  59  64
BRANCH  61  66
ATOM     66  O   UNL     1       5.934   5.692  29.947  0.00  0.00    -0.456 OA
BRANCH  66  67
ATOM     67  C   UNL     1       7.252   5.704  30.280  0.00  0.00    +0.304 C 
ATOM     68  C   UNL     1       7.759   7.094  30.476  0.00  0.00    +0.136 C 
ATOM     69  O   UNL     1       7.944   4.700  30.417  0.00  0.00    -0.251 OA
ENDBRANCH  66  67
ENDBRANCH  61  66
ENDBRANCH  54  58
ENDBRANCH   1  54
TORSDOF 23
ENDMDL
MODEL 3
REMARK VINA RESULT:      -6.3      2.044      5.192
REMARK  Name = 
REMARK  26 active torsions:
REMARK  status: ('A' for Active; 'I' for Inactive)
REMARK    1  A    between atoms: C_1  and  C_2
REMARK    2  A    between atoms: C_3  and  O_64
REMARK    3  A    between atoms: C_5  and  O_63
REMARK    4  A    between atoms: C_6  and  O_62
REMARK    5  A    between atoms: C_8  and  O_11
REMARK    6  A    between atoms: O_11  and  C_12
REMARK    7  A    between atoms: C_13  and  O_61
REMARK    8  A    between atoms: C_15  and  O_60
REMARK    9  A    between atoms: C_17  and  C_44
REMARK   10  A    between atoms: C_19  and  O_21
REMARK   11  A    between atoms: O_21  and  C_22
REMARK   12  A    between atoms: C_23  and  C_35
REMARK   13  A    between atoms: C_27  and  O_34
REMARK   14  A    between atoms: C_29  and  O_33
REMARK   15  A    between atoms: C_37  and  O_42
REMARK   16  A    between atoms: C_38  and  O_41
REMARK   17  A    between atoms: O_42  and  C_43
REMARK   18  A    between atoms: C_44  and  O_45
REMARK   19  A    between atoms: O_45  and  C_46
REMARK   20  A    between atoms: C_48  and  O_59
REMARK   21  A    between atoms: C_49  and  O_58
REMARK   22  A    between atoms: C_51  and  O_57
REMARK   23  A    between atoms: C_53  and  C_55
REMARK   24  A    between atoms: C_55  and  O_56
REMARK   25  A    between atoms: O_64  and  C_65
REMARK   26  A    between atoms: C_65  and  C_67
REMARK                            x       y       z     vdW  Elec       q    Type
REMARK                         _______ _______ _______ _____ _____    ______ ____
ROOT
ATOM      1  C   UNL     1       3.538  -2.008  27.205  0.00  0.00    +0.221 C 
ATOM      2  C   UNL     1       4.529  -0.841  26.870  0.00  0.00    +0.340 C 
ATOM      3  O   UNL     1       4.495   0.164  27.906  0.00  0.00    -0.331 OA
ATOM      4  C   UNL     1       3.186   0.783  28.043  0.00  0.00    +0.179 C 
ATOM      5  C   UNL     1       2.123  -0.270  28.401  0.00  0.00    +0.177 C 
ATOM      6  C   UNL     1       2.119  -1.364  27.326  0.00  0.00    +0.180 C 
ENDROOT
BRANCH   6   7
ATOM      7  O   UNL     1       1.025  -2.268  27.591  0.00  0.00    -0.386 OA
ATOM      8  H   UNL     1       0.755  -2.123  28.515  0.00  0.00    +0.210 HD
ENDBRANCH   6   7
BRANCH   5   9
ATOM      9  O   UNL     1       0.822   0.308  28.513  0.00  0.00    -0.386 OA
ATOM     10  H   UNL     1       0.949   1.189  28.914  0.00  0.00    +0.210 HD
ENDBRANCH   5   9
BRANCH   2  11
ATOM     11  O   UNL     1       5.885  -1.256  26.541  0.00  0.00    -0.453 OA
BRANCH  11  12
ATOM     12  C   UNL     1       6.399  -0.678  25.366  0.00  0.00    +0.214 A 
ATOM     13  C   UNL     1       6.770   0.790  25.349  0.00  0.00    +0.238 A 
ATOM     14  O   UNL     1       6.277   1.595  26.123  0.00  0.00    -0.283 OA
ATOM     15  C   UNL     1       7.788   1.208  24.374  0.00  0.00    +0.109 A 
ATOM     16  C   UNL     1       7.879   0.443  23.228  0.00  0.00    +0.147 A 
ATOM     17  C   UNL     1       8.749   0.803  22.195  0.00  0.00    +0.092 A 
ATOM     18  C   UNL     1       9.544   1.936  22.348  0.00  0.00    +0.124 A 
ATOM     19  C   UNL     1       9.492   2.694  23.514  0.00  0.00    +0.091 A 
ATOM     20  O   UNL     1       7.113  -0.674  23.055  0.00  0.00    -0.451 OA
ATOM     21  C   UNL     1       8.615   2.326  24.534  0.00  0.00    +0.135 A 
ATOM     22  C   UNL     1       6.588  -1.327  24.185  0.00  0.00    +0.181 A 
BRANCH  22  23
ATOM     23  C   UNL     1       6.285  -2.750  23.824  0.00  0.00    +0.025 A 
ATOM     24  C   UNL     1       7.383  -3.639  23.683  0.00  0.00    +0.015 A 
ATOM     25  C   UNL     1       7.243  -4.931  23.175  0.00  0.00    +0.050 A 
ATOM     26  C   UNL     1       5.983  -5.381  22.842  0.00  0.00    +0.158 A 
ATOM     27  C   UNL     1       4.864  -4.563  23.022  0.00  0.00    +0.162 A 
ATOM     28  C   UNL     1       5.013  -3.240  23.482  0.00  0.00    +0.061 A 
BRANCH  27  29
ATOM     29  O   UNL     1       3.668  -5.139  22.674  0.00  0.00    -0.491 OA
ATOM     30  C   UNL     1       2.595  -4.819  23.556  0.00  0.00    +0.277 C 
ENDBRANCH  27  29
BRANCH  26  31
ATOM     31  O   UNL     1       5.860  -6.651  22.352  0.00  0.00    -0.503 OA
ATOM     32  H   UNL     1       5.483  -6.547  21.457  0.00  0.00    +0.292 HD
ENDBRANCH  26  31
ENDBRANCH  22  23
BRANCH  18  33
ATOM     33  O   UNL     1      10.406   2.343  21.374  0.00  0.00    -0.507 OA
ATOM     34  H   UNL     1      11.253   1.877  21.473  0.00  0.00    +0.292 HD
ENDBRANCH  18  33
BRANCH  21  35
ATOM     35  O   UNL     1       8.610   3.038  25.700  0.00  0.00    -0.506 OA
ATOM     36  H   UNL     1       9.478   2.956  26.132  0.00  0.00    +0.292 HD
ENDBRANCH  21  35
ENDBRANCH  11  12
ENDBRANCH   2  11
BRANCH   4  37
ATOM     37  C   UNL     1       2.822   1.581  26.768  0.00  0.00    +0.197 C 
BRANCH  37  38
ATOM     38  O   UNL     1       3.660   2.656  26.378  0.00  0.00    -0.346 OA
BRANCH  38  39
ATOM     39  C   UNL     1       3.060   3.749  25.683  0.00  0.00    +0.282 C 
ATOM     40  O   UNL     1       3.322   3.578  24.278  0.00  0.00    -0.341 OA
ATOM     41  C   UNL     1       4.731   3.476  23.990  0.00  0.00    +0.178 C 
ATOM     42  C   UNL     1       5.488   4.753  24.442  0.00  0.00    +0.177 C 
ATOM     43  C   UNL     1       5.159   5.111  25.900  0.00  0.00    +0.179 C 
ATOM     44  C   UNL     1       3.629   5.118  26.108  0.00  0.00    +0.201 C 
BRANCH  44  45
ATOM     45  O   UNL     1       3.273   5.477  27.446  0.00  0.00    -0.384 OA
ATOM     46  H   UNL     1       2.377   5.860  27.421  0.00  0.00    +0.210 HD
ENDBRANCH  44  45
BRANCH  43  47
ATOM     47  O   UNL     1       5.827   4.224  26.810  0.00  0.00    -0.386 OA
ATOM     48  H   UNL     1       5.177   3.545  27.083  0.00  0.00    +0.210 HD
ENDBRANCH  43  47
BRANCH  42  49
ATOM     49  O   UNL     1       5.125   5.878  23.638  0.00  0.00    -0.386 OA
ATOM     50  H   UNL     1       4.191   6.086  23.825  0.00  0.00    +0.210 HD
ENDBRANCH  42  49
BRANCH  41  51
ATOM     51  C   UNL     1       4.885   3.134  22.497  0.00  0.00    +0.190 C 
BRANCH  51  52
ATOM     52  O   UNL     1       6.071   3.651  21.908  0.00  0.00    -0.392 OA
ATOM     53  H   UNL     1       5.925   4.610  21.794  0.00  0.00    +0.210 HD
ENDBRANCH  51  52
ENDBRANCH  41  51
ENDBRANCH  38  39
ENDBRANCH  37  38
ENDBRANCH   4  37
BRANCH   1  54
ATOM     54  O   UNL     1       3.932  -2.757  28.383  0.00  0.00    -0.337 OA
BRANCH  54  58
ATOM     55  C   UNL     1       6.596  -5.632  26.802  0.00  0.00    +0.042 C 
ATOM     56  C   UNL     1       5.113  -5.633  26.407  0.00  0.00    +0.162 C 
ATOM     57  O   UNL     1       4.470  -4.368  26.696  0.00  0.00    -0.342 OA
ATOM     58  C   UNL     1       4.345  -4.110  28.102  0.00  0.00    +0.282 C 
ATOM     59  C   UNL     1       3.457  -5.190  28.772  0.00  0.00    +0.202 C 
ATOM     60  C   UNL     1       4.063  -6.568  28.518  0.00  0.00    +0.191 C 
ATOM     61  C   UNL     1       4.361  -6.827  27.036  0.00  0.00    +0.236 C 
BRANCH  60  62
ATOM     62  O   UNL     1       3.194  -7.578  29.053  0.00  0.00    -0.385 OA
ATOM     63  H   UNL     1       3.647  -7.913  29.851  0.00  0.00    +0.210 HD
ENDBRANCH  60  62
BRANCH  59  64
ATOM     64  O   UNL     1       2.099  -5.134  28.306  0.00  0.00    -0.384 OA
ATOM     65  H   UNL     1       1.610  -4.584  28.942  0.00  0.00    +0.210 HD
ENDBRANCH  59  64
BRANCH  61  66
ATOM     66  O   UNL     1       3.104  -7.051  26.360  0.00  0.00    -0.456 OA
BRANCH  66  67
ATOM     67  C   UNL     1       3.173  -7.818  25.240  0.00  0.00    +0.304 C 
ATOM     68  C   UNL     1       1.930  -8.621  25.044  0.00  0.00    +0.136 C 
ATOM     69  O   UNL     1       4.130  -7.844  24.473  0.00  0.00    -0.251 OA
ENDBRANCH  66  67
ENDBRANCH  61  66
ENDBRANCH  54  58
ENDBRANCH   1  54
TORSDOF 23
ENDMDL
MODEL 4
REMARK VINA RESULT:      -6.3      1.907      8.923
REMARK  Name = 
REMARK  26 active torsions:
REMARK  status: ('A' for Active; 'I' for Inactive)
REMARK    1  A    between atoms: C_1  and  C_2
REMARK    2  A    between atoms: C_3  and  O_64
REMARK    3  A    between atoms: C_5  and  O_63
REMARK    4  A    between atoms: C_6  and  O_62
REMARK    5  A    between atoms: C_8  and  O_11
REMARK    6  A    between atoms: O_11  and  C_12
REMARK    7  A    between atoms: C_13  and  O_61
REMARK    8  A    between atoms: C_15  and  O_60
REMARK    9  A    between atoms: C_17  and  C_44
REMARK   10  A    between atoms: C_19  and  O_21
REMARK   11  A    between atoms: O_21  and  C_22
REMARK   12  A    between atoms: C_23  and  C_35
REMARK   13  A    between atoms: C_27  and  O_34
REMARK   14  A    between atoms: C_29  and  O_33
REMARK   15  A    between atoms: C_37  and  O_42
REMARK   16  A    between atoms: C_38  and  O_41
REMARK   17  A    between atoms: O_42  and  C_43
REMARK   18  A    between atoms: C_44  and  O_45
REMARK   19  A    between atoms: O_45  and  C_46
REMARK   20  A    between atoms: C_48  and  O_59
REMARK   21  A    between atoms: C_49  and  O_58
REMARK   22  A    between atoms: C_51  and  O_57
REMARK   23  A    between atoms: C_53  and  C_55
REMARK   24  A    between atoms: C_55  and  O_56
REMARK   25  A    between atoms: O_64  and  C_65
REMARK   26  A    between atoms: C_65  and  C_67
REMARK                            x       y       z     vdW  Elec       q    Type
REMARK                         _______ _______ _______ _____ _____    ______ ____
ROOT
ATOM      1  C   UNL     1       8.340   0.858  23.988  0.00  0.00    +0.221 C 
ATOM      2  C   UNL     1       7.757  -0.250  24.931  0.00  0.00    +0.340 C 
ATOM      3  O   UNL     1       8.740  -1.280  25.170  0.00  0.00    -0.331 OA
ATOM      4  C   UNL     1       9.139  -1.967  23.951  0.00  0.00    +0.179 C 
ATOM      5  C   UNL     1       9.756  -0.977  22.949  0.00  0.00    +0.177 C 
ATOM      6  C   UNL     1       8.746   0.141  22.660  0.00  0.00    +0.180 C 
ENDROOT
BRANCH   6   7
ATOM      7  O   UNL     1       9.276   0.983  21.614  0.00  0.00    -0.386 OA
ATOM      8  H   UNL     1       8.551   1.565  21.323  0.00  0.00    +0.210 HD
ENDBRANCH   6   7
BRANCH   5   9
ATOM      9  O   UNL     1      10.130  -1.622  21.730  0.00  0.00    -0.386 OA
ATOM     10  H   UNL     1       9.385  -1.490  21.113  0.00  0.00    +0.210 HD
ENDBRANCH   5   9
BRANCH   2  11
ATOM     11  O   UNL     1       7.153   0.240  26.162  0.00  0.00    -0.453 OA
BRANCH  11  12
ATOM     12  C   UNL     1       5.837  -0.208  26.380  0.00  0.00    +0.214 A 
ATOM     13  C   UNL     1       5.594  -1.617  26.878  0.00  0.00    +0.238 A 
ATOM     14  O   UNL     1       6.402  -2.516  26.707  0.00  0.00    -0.283 OA
ATOM     15  C   UNL     1       4.346  -1.855  27.618  0.00  0.00    +0.109 A 
ATOM     16  C   UNL     1       3.289  -1.025  27.305  0.00  0.00    +0.147 A 
ATOM     17  C   UNL     1       2.030  -1.221  27.882  0.00  0.00    +0.092 A 
ATOM     18  C   UNL     1       1.863  -2.255  28.798  0.00  0.00    +0.124 A 
ATOM     19  C   UNL     1       2.930  -3.076  29.153  0.00  0.00    +0.091 A 
ATOM     20  O   UNL     1       3.428  -0.001  26.412  0.00  0.00    -0.451 OA
ATOM     21  C   UNL     1       4.179  -2.872  28.565  0.00  0.00    +0.135 A 
ATOM     22  C   UNL     1       4.710   0.522  26.163  0.00  0.00    +0.181 A 
BRANCH  22  23
ATOM     23  C   UNL     1       4.568   1.915  25.628  0.00  0.00    +0.025 A 
ATOM     24  C   UNL     1       4.263   2.946  26.556  0.00  0.00    +0.015 A 
ATOM     25  C   UNL     1       3.929   4.241  26.158  0.00  0.00    +0.050 A 
ATOM     26  C   UNL     1       3.941   4.546  24.813  0.00  0.00    +0.158 A 
ATOM     27  C   UNL     1       4.297   3.580  23.866  0.00  0.00    +0.162 A 
ATOM     28  C   UNL     1       4.579   2.259  24.266  0.00  0.00    +0.061 A 
BRANCH  27  29
ATOM     29  O   UNL     1       4.292   4.020  22.567  0.00  0.00    -0.491 OA
ATOM     30  C   UNL     1       3.125   3.651  21.837  0.00  0.00    +0.277 C 
ENDBRANCH  27  29
BRANCH  26  31
ATOM     31  O   UNL     1       3.619   5.820  24.437  0.00  0.00    -0.503 OA
ATOM     32  H   UNL     1       3.267   6.245  25.243  0.00  0.00    +0.292 HD
ENDBRANCH  26  31
ENDBRANCH  22  23
BRANCH  18  33
ATOM     33  O   UNL     1       0.659  -2.503  29.388  0.00  0.00    -0.507 OA
ATOM     34  H   UNL     1       0.338  -3.378  29.117  0.00  0.00    +0.292 HD
ENDBRANCH  18  33
BRANCH  21  35
ATOM     35  O   UNL     1       5.236  -3.641  28.960  0.00  0.00    -0.506 OA
ATOM     36  H   UNL     1       4.968  -4.198  29.712  0.00  0.00    +0.292 HD
ENDBRANCH  21  35
ENDBRANCH  11  12
ENDBRANCH   2  11
BRANCH   4  37
ATOM     37  C   UNL     1       7.948  -2.751  23.350  0.00  0.00    +0.197 C 
BRANCH  37  38
ATOM     38  O   UNL     1       7.147  -3.537  24.218  0.00  0.00    -0.346 OA
BRANCH  38  39
ATOM     39  C   UNL     1       7.502  -4.909  24.390  0.00  0.00    +0.282 C 
ATOM     40  O   UNL     1       7.352  -5.569  23.119  0.00  0.00    -0.341 OA
ATOM     41  C   UNL     1       6.021  -5.429  22.583  0.00  0.00    +0.178 C 
ATOM     42  C   UNL     1       4.964  -6.040  23.541  0.00  0.00    +0.177 C 
ATOM     43  C   UNL     1       5.134  -5.506  24.973  0.00  0.00    +0.179 C 
ATOM     44  C   UNL     1       6.608  -5.638  25.413  0.00  0.00    +0.201 C 
BRANCH  44  45
ATOM     45  O   UNL     1       6.809  -5.182  26.753  0.00  0.00    -0.384 OA
ATOM     46  H   UNL     1       7.660  -5.541  27.063  0.00  0.00    +0.210 HD
ENDBRANCH  44  45
BRANCH  43  47
ATOM     47  O   UNL     1       4.654  -4.157  25.077  0.00  0.00    -0.386 OA
ATOM     48  H   UNL     1       5.047  -3.651  24.339  0.00  0.00    +0.210 HD
ENDBRANCH  43  47
BRANCH  42  49
ATOM     49  O   UNL     1       5.086  -7.463  23.603  0.00  0.00    -0.386 OA
ATOM     50  H   UNL     1       4.961  -7.810  22.700  0.00  0.00    +0.210 HD
ENDBRANCH  42  49
BRANCH  41  51
ATOM     51  C   UNL     1       6.019  -6.025  21.163  0.00  0.00    +0.190 C 
BRANCH  51  52
ATOM     52  O   UNL     1       5.840  -5.059  20.135  0.00  0.00    -0.392 OA
ATOM     53  H   UNL     1       4.901  -5.109  19.873  0.00  0.00    +0.210 HD
ENDBRANCH  51  52
ENDBRANCH  41  51
ENDBRANCH  38  39
ENDBRANCH  37  38
ENDBRANCH   4  37
BRANCH   1  54
ATOM     54  O   UNL     1       9.428   1.597  24.599  0.00  0.00    -0.337 OA
BRANCH  54  58
ATOM     55  C   UNL     1       7.805   4.920  26.645  0.00  0.00    +0.042 C 
ATOM     56  C   UNL     1       7.469   4.664  25.169  0.00  0.00    +0.162 C 
ATOM     57  O   UNL     1       7.756   3.302  24.772  0.00  0.00    -0.342 OA
ATOM     58  C   UNL     1       9.160   3.006  24.755  0.00  0.00    +0.282 C 
ATOM     59  C   UNL     1       9.888   3.902  23.719  0.00  0.00    +0.202 C 
ATOM     60  C   UNL     1       9.640   5.369  24.062  0.00  0.00    +0.191 C 
ATOM     61  C   UNL     1       8.153   5.697  24.246  0.00  0.00    +0.236 C 
BRANCH  60  62
ATOM     62  O   UNL     1      10.230   6.202  23.052  0.00  0.00    -0.385 OA
ATOM     63  H   UNL     1       9.611   6.950  22.941  0.00  0.00    +0.210 HD
ENDBRANCH  60  62
BRANCH  59  64
ATOM     64  O   UNL     1       9.474   3.614  22.375  0.00  0.00    -0.384 OA
ATOM     65  H   UNL     1       8.867   2.854  22.427  0.00  0.00    +0.210 HD
ENDBRANCH  59  64
BRANCH  61  66
ATOM     66  O   UNL     1       7.532   5.705  22.942  0.00  0.00    -0.456 OA
BRANCH  66  67
ATOM     67  C   UNL     1       6.585   6.662  22.753  0.00  0.00    +0.304 C 
ATOM     68  C   UNL     1       6.522   7.100  21.327  0.00  0.00    +0.136 C 
ATOM     69  O   UNL     1       5.860   7.107  23.636  0.00  0.00    -0.251 OA
ENDBRANCH  66  67
ENDBRANCH  61  66
ENDBRANCH  54  58
ENDBRANCH   1  54
TORSDOF 23
ENDMDL
MODEL 5
REMARK VINA RESULT:      -6.2      1.907      8.797
REMARK  Name = 
REMARK  26 active torsions:
REMARK  status: ('A' for Active; 'I' for Inactive)
REMARK    1  A    between atoms: C_1  and  C_2
REMARK    2  A    between atoms: C_3  and  O_64
REMARK    3  A    between atoms: C_5  and  O_63
REMARK    4  A    between atoms: C_6  and  O_62
REMARK    5  A    between atoms: C_8  and  O_11
REMARK    6  A    between atoms: O_11  and  C_12
REMARK    7  A    between atoms: C_13  and  O_61
REMARK    8  A    between atoms: C_15  and  O_60
REMARK    9  A    between atoms: C_17  and  C_44
REMARK   10  A    between atoms: C_19  and  O_21
REMARK   11  A    between atoms: O_21  and  C_22
REMARK   12  A    between atoms: C_23  and  C_35
REMARK   13  A    between atoms: C_27  and  O_34
REMARK   14  A    between atoms: C_29  and  O_33
REMARK   15  A    between atoms: C_37  and  O_42
REMARK   16  A    between atoms: C_38  and  O_41
REMARK   17  A    between atoms: O_42  and  C_43
REMARK   18  A    between atoms: C_44  and  O_45
REMARK   19  A    between atoms: O_45  and  C_46
REMARK   20  A    between atoms: C_48  and  O_59
REMARK   21  A    between atoms: C_49  and  O_58
REMARK   22  A    between atoms: C_51  and  O_57
REMARK   23  A    between atoms: C_53  and  C_55
REMARK   24  A    between atoms: C_55  and  O_56
REMARK   25  A    between atoms: O_64  and  C_65
REMARK   26  A    between atoms: C_65  and  C_67
REMARK                            x       y       z     vdW  Elec       q    Type
REMARK                         _______ _______ _______ _____ _____    ______ ____
ROOT
ATOM      1  C   UNL     1       8.122   0.739  23.914  0.00  0.00    +0.221 C 
ATOM      2  C   UNL     1       7.827  -0.700  24.459  0.00  0.00    +0.340 C 
ATOM      3  O   UNL     1       8.759  -1.652  23.903  0.00  0.00    -0.331 OA
ATOM      4  C   UNL     1       8.664  -1.749  22.455  0.00  0.00    +0.179 C 
ATOM      5  C   UNL     1       8.961  -0.390  21.800  0.00  0.00    +0.177 C 
ATOM      6  C   UNL     1       7.992   0.660  22.358  0.00  0.00    +0.180 C 
ENDROOT
BRANCH   6   7
ATOM      7  O   UNL     1       8.182   1.895  21.636  0.00  0.00    -0.386 OA
ATOM      8  H   UNL     1       8.862   2.402  22.115  0.00  0.00    +0.210 HD
ENDBRANCH   6   7
BRANCH   5   9
ATOM      9  O   UNL     1       8.845  -0.451  20.377  0.00  0.00    -0.386 OA
ATOM     10  H   UNL     1       9.309  -1.265  20.101  0.00  0.00    +0.210 HD
ENDBRANCH   5   9
BRANCH   2  11
ATOM     11  O   UNL     1       7.722  -0.805  25.907  0.00  0.00    -0.453 OA
BRANCH  11  12
ATOM     12  C   UNL     1       6.709  -1.673  26.354  0.00  0.00    +0.214 A 
ATOM     13  C   UNL     1       6.955  -3.167  26.376  0.00  0.00    +0.238 A 
ATOM     14  O   UNL     1       7.785  -3.701  25.657  0.00  0.00    -0.283 OA
ATOM     15  C   UNL     1       6.169  -3.957  27.335  0.00  0.00    +0.109 A 
ATOM     16  C   UNL     1       4.936  -3.439  27.680  0.00  0.00    +0.147 A 
ATOM     17  C   UNL     1       4.069  -4.151  28.514  0.00  0.00    +0.092 A 
ATOM     18  C   UNL     1       4.475  -5.385  29.012  0.00  0.00    +0.124 A 
ATOM     19  C   UNL     1       5.731  -5.902  28.705  0.00  0.00    +0.091 A 
ATOM     20  O   UNL     1       4.515  -2.229  27.207  0.00  0.00    -0.451 OA
ATOM     21  C   UNL     1       6.584  -5.183  27.868  0.00  0.00    +0.135 A 
ATOM     22  C   UNL     1       5.470  -1.294  26.770  0.00  0.00    +0.181 A 
BRANCH  22  23
ATOM     23  C   UNL     1       4.867   0.078  26.830  0.00  0.00    +0.025 A 
ATOM     24  C   UNL     1       3.769   0.273  27.709  0.00  0.00    +0.015 A 
ATOM     25  C   UNL     1       3.013   1.446  27.717  0.00  0.00    +0.050 A 
ATOM     26  C   UNL     1       3.375   2.475  26.875  0.00  0.00    +0.158 A 
ATOM     27  C   UNL     1       4.488   2.353  26.037  0.00  0.00    +0.162 A 
ATOM     28  C   UNL     1       5.216   1.147  25.990  0.00  0.00    +0.061 A 
BRANCH  27  29
ATOM     29  O   UNL     1       4.754   3.458  25.268  0.00  0.00    -0.491 OA
ATOM     30  C   UNL     1       4.382   3.311  23.900  0.00  0.00    +0.277 C 
ENDBRANCH  27  29
BRANCH  26  31
ATOM     31  O   UNL     1       2.631   3.622  26.899  0.00  0.00    -0.503 OA
ATOM     32  H   UNL     1       3.262   4.334  27.117  0.00  0.00    +0.292 HD
ENDBRANCH  26  31
ENDBRANCH  22  23
BRANCH  18  33
ATOM     33  O   UNL     1       3.672  -6.131  29.823  0.00  0.00    -0.507 OA
ATOM     34  H   UNL     1       3.824  -5.882  30.750  0.00  0.00    +0.292 HD
ENDBRANCH  18  33
BRANCH  21  35
ATOM     35  O   UNL     1       7.836  -5.665  27.617  0.00  0.00    -0.506 OA
ATOM     36  H   UNL     1       8.380  -4.963  27.218  0.00  0.00    +0.292 HD
ENDBRANCH  21  35
ENDBRANCH  11  12
ENDBRANCH   2  11
BRANCH   4  37
ATOM     37  C   UNL     1       7.287  -2.319  22.034  0.00  0.00    +0.197 C 
BRANCH  37  38
ATOM     38  O   UNL     1       6.846  -3.530  22.626  0.00  0.00    -0.346 OA
BRANCH  38  39
ATOM     39  C   UNL     1       5.908  -4.323  21.897  0.00  0.00    +0.282 C 
ATOM     40  O   UNL     1       4.632  -4.218  22.554  0.00  0.00    -0.341 OA
ATOM     41  C   UNL     1       4.696  -4.612  23.940  0.00  0.00    +0.178 C 
ATOM     42  C   UNL     1       5.161  -6.085  24.083  0.00  0.00    +0.177 C 
ATOM     43  C   UNL     1       6.451  -6.343  23.287  0.00  0.00    +0.179 C 
ATOM     44  C   UNL     1       6.294  -5.815  21.844  0.00  0.00    +0.201 C 
BRANCH  44  45
ATOM     45  O   UNL     1       7.461  -6.061  21.055  0.00  0.00    -0.384 OA
ATOM     46  H   UNL     1       7.421  -5.475  20.278  0.00  0.00    +0.210 HD
ENDBRANCH  44  45
BRANCH  43  47
ATOM     47  O   UNL     1       7.587  -5.772  23.953  0.00  0.00    -0.386 OA
ATOM     48  H   UNL     1       7.515  -4.800  23.871  0.00  0.00    +0.210 HD
ENDBRANCH  43  47
BRANCH  42  49
ATOM     49  O   UNL     1       4.170  -6.988  23.586  0.00  0.00    -0.386 OA
ATOM     50  H   UNL     1       3.682  -6.530  22.877  0.00  0.00    +0.210 HD
ENDBRANCH  42  49
BRANCH  41  51
ATOM     51  C   UNL     1       3.329  -4.306  24.581  0.00  0.00    +0.190 C 
BRANCH  51  52
ATOM     52  O   UNL     1       3.130  -2.931  24.882  0.00  0.00    -0.392 OA
ATOM     53  H   UNL     1       3.262  -2.840  25.846  0.00  0.00    +0.210 HD
ENDBRANCH  51  52
ENDBRANCH  41  51
ENDBRANCH  38  39
ENDBRANCH  37  38
ENDBRANCH   4  37
BRANCH   1  54
ATOM     54  O   UNL     1       9.401   1.256  24.360  0.00  0.00    -0.337 OA
BRANCH  54  58
ATOM     55  C   UNL     1       8.128   4.856  26.172  0.00  0.00    +0.042 C 
ATOM     56  C   UNL     1       8.094   4.688  24.646  0.00  0.00    +0.162 C 
ATOM     57  O   UNL     1       8.156   3.298  24.248  0.00  0.00    -0.342 OA
ATOM     58  C   UNL     1       9.424   2.688  24.530  0.00  0.00    +0.282 C 
ATOM     59  C   UNL     1      10.552   3.398  23.737  0.00  0.00    +0.202 C 
ATOM     60  C   UNL     1      10.564   4.881  24.098  0.00  0.00    +0.191 C 
ATOM     61  C   UNL     1       9.186   5.541  23.961  0.00  0.00    +0.236 C 
BRANCH  60  62
ATOM     62  O   UNL     1      11.541   5.560  23.294  0.00  0.00    -0.385 OA
ATOM     63  H   UNL     1      12.327   4.980  23.299  0.00  0.00    +0.210 HD
ENDBRANCH  60  62
BRANCH  59  64
ATOM     64  O   UNL     1      10.408   3.216  22.320  0.00  0.00    -0.384 OA
ATOM     65  H   UNL     1      10.684   4.051  21.903  0.00  0.00    +0.210 HD
ENDBRANCH  59  64
BRANCH  61  66
ATOM     66  O   UNL     1       8.901   5.694  22.552  0.00  0.00    -0.456 OA
BRANCH  66  67
ATOM     67  C   UNL     1       7.582   5.706  22.222  0.00  0.00    +0.304 C 
ATOM     68  C   UNL     1       6.997   7.075  22.339  0.00  0.00    +0.136 C 
ATOM     69  O   UNL     1       6.948   4.721  21.859  0.00  0.00    -0.251 OA
ENDBRANCH  66  67
ENDBRANCH  61  66
ENDBRANCH  54  58
ENDBRANCH   1  54
TORSDOF 23
ENDMDL
MODEL 6
REMARK VINA RESULT:      -6.1      2.103      5.976
REMARK  Name = 
REMARK  26 active torsions:
REMARK  status: ('A' for Active; 'I' for Inactive)
REMARK    1  A    between atoms: C_1  and  C_2
REMARK    2  A    between atoms: C_3  and  O_64
REMARK    3  A    between atoms: C_5  and  O_63
REMARK    4  A    between atoms: C_6  and  O_62
REMARK    5  A    between atoms: C_8  and  O_11
REMARK    6  A    between atoms: O_11  and  C_12
REMARK    7  A    between atoms: C_13  and  O_61
REMARK    8  A    between atoms: C_15  and  O_60
REMARK    9  A    between atoms: C_17  and  C_44
REMARK   10  A    between atoms: C_19  and  O_21
REMARK   11  A    between atoms: O_21  and  C_22
REMARK   12  A    between atoms: C_23  and  C_35
REMARK   13  A    between atoms: C_27  and  O_34
REMARK   14  A    between atoms: C_29  and  O_33
REMARK   15  A    between atoms: C_37  and  O_42
REMARK   16  A    between atoms: C_38  and  O_41
REMARK   17  A    between atoms: O_42  and  C_43
REMARK   18  A    between atoms: C_44  and  O_45
REMARK   19  A    between atoms: O_45  and  C_46
REMARK   20  A    between atoms: C_48  and  O_59
REMARK   21  A    between atoms: C_49  and  O_58
REMARK   22  A    between atoms: C_51  and  O_57
REMARK   23  A    between atoms: C_53  and  C_55
REMARK   24  A    between atoms: C_55  and  O_56
REMARK   25  A    between atoms: O_64  and  C_65
REMARK   26  A    between atoms: C_65  and  C_67
REMARK                            x       y       z     vdW  Elec       q    Type
REMARK                         _______ _______ _______ _____ _____    ______ ____
ROOT
ATOM      1  C   UNL     1       4.809   1.071  25.536  0.00  0.00    +0.221 C 
ATOM      2  C   UNL     1       5.482   2.157  24.627  0.00  0.00    +0.340 C 
ATOM      3  O   UNL     1       6.349   3.004  25.411  0.00  0.00    -0.331 OA
ATOM      4  C   UNL     1       5.634   3.738  26.442  0.00  0.00    +0.179 C 
ATOM      5  C   UNL     1       4.948   2.770  27.420  0.00  0.00    +0.177 C 
ATOM      6  C   UNL     1       4.009   1.845  26.634  0.00  0.00    +0.180 C 
ENDROOT
BRANCH   6   7
ATOM      7  O   UNL     1       3.264   1.038  27.570  0.00  0.00    -0.386 OA
ATOM      8  H   UNL     1       2.401   1.473  27.697  0.00  0.00    +0.210 HD
ENDBRANCH   6   7
BRANCH   5   9
ATOM      9  O   UNL     1       4.212   3.466  28.427  0.00  0.00    -0.386 OA
ATOM     10  H   UNL     1       4.839   4.094  28.836  0.00  0.00    +0.210 HD
ENDBRANCH   5   9
BRANCH   2  11
ATOM     11  O   UNL     1       6.134   1.646  23.431  0.00  0.00    -0.453 OA
BRANCH  11  12
ATOM     12  C   UNL     1       7.440   2.128  23.231  0.00  0.00    +0.214 A 
ATOM     13  C   UNL     1       7.659   3.586  22.887  0.00  0.00    +0.238 A 
ATOM     14  O   UNL     1       6.793   4.269  22.364  0.00  0.00    -0.283 OA
ATOM     15  C   UNL     1       8.963   4.166  23.245  0.00  0.00    +0.109 A 
ATOM     16  C   UNL     1      10.024   3.285  23.294  0.00  0.00    +0.147 A 
ATOM     17  C   UNL     1      11.323   3.743  23.534  0.00  0.00    +0.092 A 
ATOM     18  C   UNL     1      11.529   5.102  23.748  0.00  0.00    +0.124 A 
ATOM     19  C   UNL     1      10.463   5.997  23.740  0.00  0.00    +0.091 A 
ATOM     20  O   UNL     1       9.848   1.946  23.091  0.00  0.00    -0.451 OA
ATOM     21  C   UNL     1       9.173   5.527  23.494  0.00  0.00    +0.135 A 
ATOM     22  C   UNL     1       8.576   1.383  23.300  0.00  0.00    +0.181 A 
BRANCH  22  23
ATOM     23  C   UNL     1       8.735  -0.086  23.561  0.00  0.00    +0.025 A 
ATOM     24  C   UNL     1       9.714  -0.481  24.511  0.00  0.00    +0.015 A 
ATOM     25  C   UNL     1      10.078  -1.813  24.704  0.00  0.00    +0.050 A 
ATOM     26  C   UNL     1       9.430  -2.791  23.979  0.00  0.00    +0.158 A 
ATOM     27  C   UNL     1       8.415  -2.455  23.077  0.00  0.00    +0.162 A 
ATOM     28  C   UNL     1       8.087  -1.104  22.843  0.00  0.00    +0.061 A 
BRANCH  27  29
ATOM     29  O   UNL     1       7.835  -3.522  22.439  0.00  0.00    -0.491 OA
ATOM     30  C   UNL     1       6.504  -3.274  21.995  0.00  0.00    +0.277 C 
ENDBRANCH  27  29
BRANCH  26  31
ATOM     31  O   UNL     1       9.792  -4.093  24.182  0.00  0.00    -0.503 OA
ATOM     32  H   UNL     1      10.246  -4.366  23.362  0.00  0.00    +0.292 HD
ENDBRANCH  26  31
ENDBRANCH  22  23
BRANCH  18  33
ATOM     33  O   UNL     1      12.773   5.611  23.980  0.00  0.00    -0.507 OA
ATOM     34  H   UNL     1      13.358   5.393  23.235  0.00  0.00    +0.292 HD
ENDBRANCH  18  33
BRANCH  21  35
ATOM     35  O   UNL     1       8.123   6.399  23.546  0.00  0.00    -0.506 OA
ATOM     36  H   UNL     1       8.425   7.246  23.919  0.00  0.00    +0.292 HD
ENDBRANCH  21  35
ENDBRANCH  11  12
ENDBRANCH   2  11
BRANCH   4  37
ATOM     37  C   UNL     1       4.641   4.743  25.810  0.00  0.00    +0.197 C 
BRANCH  37  38
ATOM     38  O   UNL     1       4.224   4.532  24.471  0.00  0.00    -0.346 OA
BRANCH  38  39
ATOM     39  C   UNL     1       3.141   5.322  23.979  0.00  0.00    +0.282 C 
ATOM     40  O   UNL     1       1.915   4.750  24.472  0.00  0.00    -0.341 OA
ATOM     41  C   UNL     1       1.770   3.363  24.103  0.00  0.00    +0.178 C 
ATOM     42  C   UNL     1       1.766   3.191  22.560  0.00  0.00    +0.177 C 
ATOM     43  C   UNL     1       2.968   3.901  21.916  0.00  0.00    +0.179 C 
ATOM     44  C   UNL     1       3.067   5.350  22.439  0.00  0.00    +0.201 C 
BRANCH  44  45
ATOM     45  O   UNL     1       4.155   6.061  21.843  0.00  0.00    -0.384 OA
ATOM     46  H   UNL     1       4.934   5.943  22.417  0.00  0.00    +0.210 HD
ENDBRANCH  44  45
BRANCH  43  47
ATOM     47  O   UNL     1       4.178   3.160  22.136  0.00  0.00    -0.386 OA
ATOM     48  H   UNL     1       4.093   2.714  23.002  0.00  0.00    +0.210 HD
ENDBRANCH  43  47
BRANCH  42  49
ATOM     49  O   UNL     1       0.585   3.753  21.984  0.00  0.00    -0.386 OA
ATOM     50  H   UNL     1       0.122   3.041  21.505  0.00  0.00    +0.210 HD
ENDBRANCH  42  49
BRANCH  41  51
ATOM     51  C   UNL     1       0.519   2.813  24.812  0.00  0.00    +0.190 C 
BRANCH  51  52
ATOM     52  O   UNL     1       0.794   1.762  25.729  0.00  0.00    -0.392 OA
ATOM     53  H   UNL     1       1.181   1.035  25.204  0.00  0.00    +0.210 HD
ENDBRANCH  51  52
ENDBRANCH  41  51
ENDBRANCH  38  39
ENDBRANCH  37  38
ENDBRANCH   4  37
BRANCH   1  54
ATOM     54  O   UNL     1       5.764   0.125  26.080  0.00  0.00    -0.337 OA
BRANCH  54  58
ATOM     55  C   UNL     1       2.772  -2.860  26.078  0.00  0.00    +0.042 C 
ATOM     56  C   UNL     1       3.926  -2.903  27.090  0.00  0.00    +0.162 C 
ATOM     57  O   UNL     1       4.588  -1.622  27.218  0.00  0.00    -0.342 OA
ATOM     58  C   UNL     1       5.315  -1.245  26.040  0.00  0.00    +0.282 C 
ATOM     59  C   UNL     1       6.443  -2.268  25.751  0.00  0.00    +0.202 C 
ATOM     60  C   UNL     1       5.833  -3.660  25.598  0.00  0.00    +0.191 C 
ATOM     61  C   UNL     1       4.918  -4.043  26.768  0.00  0.00    +0.236 C 
BRANCH  60  62
ATOM     62  O   UNL     1       6.882  -4.625  25.428  0.00  0.00    -0.385 OA
ATOM     63  H   UNL     1       7.120  -4.583  24.481  0.00  0.00    +0.210 HD
ENDBRANCH  60  62
BRANCH  59  64
ATOM     64  O   UNL     1       7.450  -2.260  26.774  0.00  0.00    -0.384 OA
ATOM     65  H   UNL     1       7.461  -1.361  27.147  0.00  0.00    +0.210 HD
ENDBRANCH  59  64
BRANCH  61  66
ATOM     66  O   UNL     1       5.752  -4.331  27.912  0.00  0.00    -0.456 OA
BRANCH  66  67
ATOM     67  C   UNL     1       6.031  -5.646  28.114  0.00  0.00    +0.304 C 
ATOM     68  C   UNL     1       4.787  -6.467  28.200  0.00  0.00    +0.136 C 
ATOM     69  O   UNL     1       7.163  -6.111  28.202  0.00  0.00    -0.251 OA
ENDBRANCH  66  67
ENDBRANCH  61  66
ENDBRANCH  54  58
ENDBRANCH   1  54
TORSDOF 23
ENDMDL
MODEL 7
REMARK VINA RESULT:      -6.0      1.980      5.509
REMARK  Name = 
REMARK  26 active torsions:
REMARK  status: ('A' for Active; 'I' for Inactive)
REMARK    1  A    between atoms: C_1  and  C_2
REMARK    2  A    between atoms: C_3  and  O_64
REMARK    3  A    between atoms: C_5  and  O_63
REMARK    4  A    between atoms: C_6  and  O_62
REMARK    5  A    between atoms: C_8  and  O_11
REMARK    6  A    between atoms: O_11  and  C_12
REMARK    7  A    between atoms: C_13  and  O_61
REMARK    8  A    between atoms: C_15  and  O_60
REMARK    9  A    between atoms: C_17  and  C_44
REMARK   10  A    between atoms: C_19  and  O_21
REMARK   11  A    between atoms: O_21  and  C_22
REMARK   12  A    between atoms: C_23  and  C_35
REMARK   13  A    between atoms: C_27  and  O_34
REMARK   14  A    between atoms: C_29  and  O_33
REMARK   15  A    between atoms: C_37  and  O_42
REMARK   16  A    between atoms: C_38  and  O_41
REMARK   17  A    between atoms: O_42  and  C_43
REMARK   18  A    between atoms: C_44  and  O_45
REMARK   19  A    between atoms: O_45  and  C_46
REMARK   20  A    between atoms: C_48  and  O_59
REMARK   21  A    between atoms: C_49  and  O_58
REMARK   22  A    between atoms: C_51  and  O_57
REMARK   23  A    between atoms: C_53  and  C_55
REMARK   24  A    between atoms: C_55  and  O_56
REMARK   25  A    between atoms: O_64  and  C_65
REMARK   26  A    between atoms: C_65  and  C_67
REMARK                            x       y       z     vdW  Elec       q    Type
REMARK                         _______ _______ _______ _____ _____    ______ ____
ROOT
ATOM      1  C   UNL     1       5.302   0.340  26.681  0.00  0.00    +0.221 C 
ATOM      2  C   UNL     1       5.821   1.618  25.937  0.00  0.00    +0.340 C 
ATOM      3  O   UNL     1       7.053   2.082  26.529  0.00  0.00    -0.331 OA
ATOM      4  C   UNL     1       6.894   2.471  27.921  0.00  0.00    +0.179 C 
ATOM      5  C   UNL     1       6.409   1.281  28.765  0.00  0.00    +0.177 C 
ATOM      6  C   UNL     1       5.096   0.750  28.176  0.00  0.00    +0.180 C 
ENDROOT
BRANCH   6   7
ATOM      7  O   UNL     1       4.575  -0.271  29.053  0.00  0.00    -0.386 OA
ATOM      8  H   UNL     1       3.964   0.169  29.671  0.00  0.00    +0.210 HD
ENDBRANCH   6   7
BRANCH   5   9
ATOM      9  O   UNL     1       6.216   1.644  30.133  0.00  0.00    -0.386 OA
ATOM     10  H   UNL     1       7.101   1.625  30.546  0.00  0.00    +0.210 HD
ENDBRANCH   5   9
BRANCH   2  11
ATOM     11  O   UNL     1       5.909   1.499  24.489  0.00  0.00    -0.453 OA
BRANCH  11  12
ATOM     12  C   UNL     1       7.146   1.895  23.948  0.00  0.00    +0.214 A 
ATOM     13  C   UNL     1       7.409   3.359  23.665  0.00  0.00    +0.238 A 
ATOM     14  O   UNL     1       6.505   4.157  23.474  0.00  0.00    -0.283 OA
ATOM     15  C   UNL     1       8.813   3.795  23.663  0.00  0.00    +0.109 A 
ATOM     16  C   UNL     1       9.745   2.832  23.330  0.00  0.00    +0.147 A 
ATOM     17  C   UNL     1      11.099   3.159  23.209  0.00  0.00    +0.092 A 
ATOM     18  C   UNL     1      11.500   4.470  23.452  0.00  0.00    +0.124 A 
ATOM     19  C   UNL     1      10.577   5.442  23.827  0.00  0.00    +0.091 A 
ATOM     20  O   UNL     1       9.378   1.539  23.089  0.00  0.00    -0.451 OA
ATOM     21  C   UNL     1       9.228   5.102  23.939  0.00  0.00    +0.135 A 
ATOM     22  C   UNL     1       8.168   1.059  23.623  0.00  0.00    +0.181 A 
BRANCH  22  23
ATOM     23  C   UNL     1       8.240  -0.436  23.715  0.00  0.00    +0.025 A 
ATOM     24  C   UNL     1       9.253  -0.994  24.539  0.00  0.00    +0.015 A 
ATOM     25  C   UNL     1       9.534  -2.360  24.562  0.00  0.00    +0.050 A 
ATOM     26  C   UNL     1       8.768  -3.209  23.791  0.00  0.00    +0.158 A 
ATOM     27  C   UNL     1       7.719  -2.712  23.012  0.00  0.00    +0.162 A 
ATOM     28  C   UNL     1       7.473  -1.327  22.947  0.00  0.00    +0.061 A 
BRANCH  27  29
ATOM     29  O   UNL     1       7.021  -3.664  22.313  0.00  0.00    -0.491 OA
ATOM     30  C   UNL     1       5.674  -3.298  22.027  0.00  0.00    +0.277 C 
ENDBRANCH  27  29
BRANCH  26  31
ATOM     31  O   UNL     1       9.050  -4.546  23.828  0.00  0.00    -0.503 OA
ATOM     32  H   UNL     1       8.479  -4.910  24.532  0.00  0.00    +0.292 HD
ENDBRANCH  26  31
ENDBRANCH  22  23
BRANCH  18  33
ATOM     33  O   UNL     1      12.803   4.853  23.343  0.00  0.00    -0.507 OA
ATOM     34  H   UNL     1      12.904   5.452  22.585  0.00  0.00    +0.292 HD
ENDBRANCH  18  33
BRANCH  21  35
ATOM     35  O   UNL     1       8.335   6.044  24.364  0.00  0.00    -0.506 OA
ATOM     36  H   UNL     1       8.636   6.416  25.212  0.00  0.00    +0.292 HD
ENDBRANCH  21  35
ENDBRANCH  11  12
ENDBRANCH   2  11
BRANCH   4  37
ATOM     37  C   UNL     1       5.962   3.701  28.043  0.00  0.00    +0.197 C 
BRANCH  37  38
ATOM     38  O   UNL     1       5.282   4.153  26.884  0.00  0.00    -0.346 OA
BRANCH  38  39
ATOM     39  C   UNL     1       3.927   4.580  27.032  0.00  0.00    +0.282 C 
ATOM     40  O   UNL     1       3.149   3.955  25.995  0.00  0.00    -0.341 OA
ATOM     41  C   UNL     1       3.656   4.247  24.677  0.00  0.00    +0.178 C 
ATOM     42  C   UNL     1       3.644   5.773  24.398  0.00  0.00    +0.177 C 
ATOM     43  C   UNL     1       4.328   6.554  25.532  0.00  0.00    +0.179 C 
ATOM     44  C   UNL     1       3.760   6.107  26.896  0.00  0.00    +0.201 C 
BRANCH  44  45
ATOM     45  O   UNL     1       4.346   6.830  27.982  0.00  0.00    -0.384 OA
ATOM     46  H   UNL     1       5.314   6.774  27.885  0.00  0.00    +0.210 HD
ENDBRANCH  44  45
BRANCH  43  47
ATOM     47  O   UNL     1       5.755   6.411  25.465  0.00  0.00    -0.386 OA
ATOM     48  H   UNL     1       6.099   6.501  26.376  0.00  0.00    +0.210 HD
ENDBRANCH  43  47
BRANCH  42  49
ATOM     49  O   UNL     1       2.307   6.267  24.292  0.00  0.00    -0.386 OA
ATOM     50  H   UNL     1       2.072   6.284  23.346  0.00  0.00    +0.210 HD
ENDBRANCH  42  49
BRANCH  41  51
ATOM     51  C   UNL     1       2.858   3.404  23.665  0.00  0.00    +0.190 C 
BRANCH  51  52
ATOM     52  O   UNL     1       3.671   2.647  22.779  0.00  0.00    -0.392 OA
ATOM     53  H   UNL     1       3.062   2.216  22.149  0.00  0.00    +0.210 HD
ENDBRANCH  51  52
ENDBRANCH  41  51
ENDBRANCH  38  39
ENDBRANCH  37  38
ENDBRANCH   4  37
BRANCH   1  54
ATOM     54  O   UNL     1       6.181  -0.801  26.513  0.00  0.00    -0.337 OA
BRANCH  54  58
ATOM     55  C   UNL     1       2.688  -3.119  25.968  0.00  0.00    +0.042 C 
ATOM     56  C   UNL     1       3.712  -3.482  27.053  0.00  0.00    +0.162 C 
ATOM     57  O   UNL     1       4.591  -2.376  27.367  0.00  0.00    -0.342 OA
ATOM     58  C   UNL     1       5.484  -2.045  26.293  0.00  0.00    +0.282 C 
ATOM     59  C   UNL     1       6.419  -3.242  25.981  0.00  0.00    +0.202 C 
ATOM     60  C   UNL     1       5.572  -4.465  25.634  0.00  0.00    +0.191 C 
ATOM     61  C   UNL     1       4.495  -4.763  26.685  0.00  0.00    +0.236 C 
BRANCH  60  62
ATOM     62  O   UNL     1       6.430  -5.600  25.440  0.00  0.00    -0.385 OA
ATOM     63  H   UNL     1       6.922  -5.699  26.278  0.00  0.00    +0.210 HD
ENDBRANCH  60  62
BRANCH  59  64
ATOM     64  O   UNL     1       7.308  -3.527  27.071  0.00  0.00    -0.384 OA
ATOM     65  H   UNL     1       6.810  -3.352  27.889  0.00  0.00    +0.210 HD
ENDBRANCH  59  64
BRANCH  61  66
ATOM     66  O   UNL     1       5.147  -5.314  27.850  0.00  0.00    -0.456 OA
BRANCH  66  67
ATOM     67  C   UNL     1       4.784  -6.583  28.177  0.00  0.00    +0.304 C 
ATOM     68  C   UNL     1       3.300  -6.728  28.254  0.00  0.00    +0.136 C 
ATOM     69  O   UNL     1       5.571  -7.503  28.373  0.00  0.00    -0.251 OA
ENDBRANCH  66  67
ENDBRANCH  61  66
ENDBRANCH  54  58
ENDBRANCH   1  54
TORSDOF 23
ENDMDL
MODEL 8
REMARK VINA RESULT:      -5.9      2.466     10.064
REMARK  Name = 
REMARK  26 active torsions:
REMARK  status: ('A' for Active; 'I' for Inactive)
REMARK    1  A    between atoms: C_1  and  C_2
REMARK    2  A    between atoms: C_3  and  O_64
REMARK    3  A    between atoms: C_5  and  O_63
REMARK    4  A    between atoms: C_6  and  O_62
REMARK    5  A    between atoms: C_8  and  O_11
REMARK    6  A    between atoms: O_11  and  C_12
REMARK    7  A    between atoms: C_13  and  O_61
REMARK    8  A    between atoms: C_15  and  O_60
REMARK    9  A    between atoms: C_17  and  C_44
REMARK   10  A    between atoms: C_19  and  O_21
REMARK   11  A    between atoms: O_21  and  C_22
REMARK   12  A    between atoms: C_23  and  C_35
REMARK   13  A    between atoms: C_27  and  O_34
REMARK   14  A    between atoms: C_29  and  O_33
REMARK   15  A    between atoms: C_37  and  O_42
REMARK   16  A    between atoms: C_38  and  O_41
REMARK   17  A    between atoms: O_42  and  C_43
REMARK   18  A    between atoms: C_44  and  O_45
REMARK   19  A    between atoms: O_45  and  C_46
REMARK   20  A    between atoms: C_48  and  O_59
REMARK   21  A    between atoms: C_49  and  O_58
REMARK   22  A    between atoms: C_51  and  O_57
REMARK   23  A    between atoms: C_53  and  C_55
REMARK   24  A    between atoms: C_55  and  O_56
REMARK   25  A    between atoms: O_64  and  C_65
REMARK   26  A    between atoms: C_65  and  C_67
REMARK                            x       y       z     vdW  Elec       q    Type
REMARK                         _______ _______ _______ _____ _____    ______ ____
ROOT
ATOM      1  C   UNL     1       6.409  -2.097  24.181  0.00  0.00    +0.221 C 
ATOM      2  C   UNL     1       5.945  -2.617  25.585  0.00  0.00    +0.340 C 
ATOM      3  O   UNL     1       6.040  -4.056  25.647  0.00  0.00    -0.331 OA
ATOM      4  C   UNL     1       5.182  -4.717  24.677  0.00  0.00    +0.179 C 
ATOM      5  C   UNL     1       5.562  -4.301  23.246  0.00  0.00    +0.177 C 
ATOM      6  C   UNL     1       5.475  -2.774  23.126  0.00  0.00    +0.180 C 
ENDROOT
BRANCH   6   7
ATOM      7  O   UNL     1       5.693  -2.405  21.748  0.00  0.00    -0.386 OA
ATOM      8  H   UNL     1       4.920  -2.716  21.244  0.00  0.00    +0.210 HD
ENDBRANCH   6   7
BRANCH   5   9
ATOM      9  O   UNL     1       4.714  -4.914  22.273  0.00  0.00    -0.386 OA
ATOM     10  H   UNL     1       4.381  -4.189  21.708  0.00  0.00    +0.210 HD
ENDBRANCH   5   9
BRANCH   2  11
ATOM     11  O   UNL     1       6.575  -1.967  26.725  0.00  0.00    -0.453 OA
BRANCH  11  12
ATOM     12  C   UNL     1       5.739  -1.071  27.417  0.00  0.00    +0.214 A 
ATOM     13  C   UNL     1       6.121   0.391  27.513  0.00  0.00    +0.238 A 
ATOM     14  O   UNL     1       7.276   0.770  27.408  0.00  0.00    -0.283 OA
ATOM     15  C   UNL     1       5.026   1.353  27.706  0.00  0.00    +0.109 A 
ATOM     16  C   UNL     1       3.903   0.872  28.351  0.00  0.00    +0.147 A 
ATOM     17  C   UNL     1       2.840   1.723  28.667  0.00  0.00    +0.092 A 
ATOM     18  C   UNL     1       2.919   3.064  28.301  0.00  0.00    +0.124 A 
ATOM     19  C   UNL     1       4.027   3.555  27.617  0.00  0.00    +0.091 A 
ATOM     20  O   UNL     1       3.801  -0.439  28.717  0.00  0.00    -0.451 OA
ATOM     21  C   UNL     1       5.083   2.695  27.312  0.00  0.00    +0.135 A 
ATOM     22  C   UNL     1       4.582  -1.401  28.051  0.00  0.00    +0.181 A 
BRANCH  22  23
ATOM     23  C   UNL     1       3.932  -2.743  28.206  0.00  0.00    +0.025 A 
ATOM     24  C   UNL     1       2.542  -2.835  27.931  0.00  0.00    +0.015 A 
ATOM     25  C   UNL     1       1.795  -3.979  28.214  0.00  0.00    +0.050 A 
ATOM     26  C   UNL     1       2.439  -5.081  28.736  0.00  0.00    +0.158 A 
ATOM     27  C   UNL     1       3.818  -5.059  28.964  0.00  0.00    +0.162 A 
ATOM     28  C   UNL     1       4.561  -3.884  28.731  0.00  0.00    +0.061 A 
BRANCH  27  29
ATOM     29  O   UNL     1       4.338  -6.226  29.462  0.00  0.00    -0.491 OA
ATOM     30  C   UNL     1       5.711  -6.429  29.143  0.00  0.00    +0.277 C 
ENDBRANCH  27  29
BRANCH  26  31
ATOM     31  O   UNL     1       1.696  -6.197  29.001  0.00  0.00    -0.503 OA
ATOM     32  H   UNL     1       2.033  -6.534  29.853  0.00  0.00    +0.292 HD
ENDBRANCH  26  31
ENDBRANCH  22  23
BRANCH  18  33
ATOM     33  O   UNL     1       1.919   3.945  28.588  0.00  0.00    -0.507 OA
ATOM     34  H   UNL     1       1.206   3.852  27.935  0.00  0.00    +0.292 HD
ENDBRANCH  18  33
BRANCH  21  35
ATOM     35  O   UNL     1       6.141   3.167  26.589  0.00  0.00    -0.506 OA
ATOM     36  H   UNL     1       6.502   2.450  26.039  0.00  0.00    +0.292 HD
ENDBRANCH  21  35
ENDBRANCH  11  12
ENDBRANCH   2  11
BRANCH   4  37
ATOM     37  C   UNL     1       3.690  -4.449  24.993  0.00  0.00    +0.197 C 
BRANCH  37  38
ATOM     38  O   UNL     1       2.733  -5.429  24.626  0.00  0.00    -0.346 OA
BRANCH  38  39
ATOM     39  C   UNL     1       3.198  -6.761  24.402  0.00  0.00    +0.282 C 
ATOM     40  O   UNL     1       2.684  -7.202  23.132  0.00  0.00    -0.341 OA
ATOM     41  C   UNL     1       1.246  -7.124  23.066  0.00  0.00    +0.178 C 
ATOM     42  C   UNL     1       0.586  -8.009  24.156  0.00  0.00    +0.177 C 
ATOM     43  C   UNL     1       1.177  -7.718  25.545  0.00  0.00    +0.179 C 
ATOM     44  C   UNL     1       2.720  -7.755  25.479  0.00  0.00    +0.201 C 
BRANCH  44  45
ATOM     45  O   UNL     1       3.315  -7.519  26.758  0.00  0.00    -0.384 OA
ATOM     46  H   UNL     1       3.250  -6.564  26.942  0.00  0.00    +0.210 HD
ENDBRANCH  44  45
BRANCH  43  47
ATOM     47  O   UNL     1       0.685  -6.472  26.060  0.00  0.00    -0.386 OA
ATOM     48  H   UNL     1       0.425  -6.624  26.991  0.00  0.00    +0.210 HD
ENDBRANCH  43  47
BRANCH  42  49
ATOM     49  O   UNL     1       0.798  -9.398  23.889  0.00  0.00    -0.386 OA
ATOM     50  H   UNL     1       1.729  -9.600  24.098  0.00  0.00    +0.210 HD
ENDBRANCH  42  49
BRANCH  41  51
ATOM     51  C   UNL     1       0.820  -7.459  21.624  0.00  0.00    +0.190 C 
BRANCH  51  52
ATOM     52  O   UNL     1       1.418  -8.641  21.108  0.00  0.00    -0.392 OA
ATOM     53  H   UNL     1       2.325  -8.396  20.841  0.00  0.00    +0.210 HD
ENDBRANCH  51  52
ENDBRANCH  41  51
ENDBRANCH  38  39
ENDBRANCH  37  38
ENDBRANCH   4  37
BRANCH   1  54
ATOM     54  O   UNL     1       7.819  -2.330  23.935  0.00  0.00    -0.337 OA
BRANCH  54  58
ATOM     55  C   UNL     1      10.948   0.358  24.858  0.00  0.00    +0.042 C 
ATOM     56  C   UNL     1       9.495   0.845  24.763  0.00  0.00    +0.162 C 
ATOM     57  O   UNL     1       8.546  -0.245  24.861  0.00  0.00    -0.342 OA
ATOM     58  C   UNL     1       8.581  -1.123  23.727  0.00  0.00    +0.282 C 
ATOM     59  C   UNL     1       8.198  -0.353  22.436  0.00  0.00    +0.202 C 
ATOM     60  C   UNL     1       9.154   0.823  22.250  0.00  0.00    +0.191 C 
ATOM     61  C   UNL     1       9.268   1.704  23.500  0.00  0.00    +0.236 C 
BRANCH  60  62
ATOM     62  O   UNL     1       8.744   1.595  21.111  0.00  0.00    -0.385 OA
ATOM     63  H   UNL     1       7.982   2.123  21.418  0.00  0.00    +0.210 HD
ENDBRANCH  60  62
BRANCH  59  64
ATOM     64  O   UNL     1       6.834   0.094  22.463  0.00  0.00    -0.384 OA
ATOM     65  H   UNL     1       6.662   0.513  21.601  0.00  0.00    +0.210 HD
ENDBRANCH  59  64
BRANCH  61  66
ATOM     66  O   UNL     1       8.050   2.472  23.618  0.00  0.00    -0.456 OA
BRANCH  66  67
ATOM     67  C   UNL     1       8.219   3.797  23.876  0.00  0.00    +0.304 C 
ATOM     68  C   UNL     1       9.647   4.208  23.735  0.00  0.00    +0.136 C 
ATOM     69  O   UNL     1       7.313   4.568  24.176  0.00  0.00    -0.251 OA
ENDBRANCH  66  67
ENDBRANCH  61  66
ENDBRANCH  54  58
ENDBRANCH   1  54
TORSDOF 23
ENDMDL
MODEL 9
REMARK VINA RESULT:      -5.9      2.163     10.212
REMARK  Name = 
REMARK  26 active torsions:
REMARK  status: ('A' for Active; 'I' for Inactive)
REMARK    1  A    between atoms: C_1  and  C_2
REMARK    2  A    between atoms: C_3  and  O_64
REMARK    3  A    between atoms: C_5  and  O_63
REMARK    4  A    between atoms: C_6  and  O_62
REMARK    5  A    between atoms: C_8  and  O_11
REMARK    6  A    between atoms: O_11  and  C_12
REMARK    7  A    between atoms: C_13  and  O_61
REMARK    8  A    between atoms: C_15  and  O_60
REMARK    9  A    between atoms: C_17  and  C_44
REMARK   10  A    between atoms: C_19  and  O_21
REMARK   11  A    between atoms: O_21  and  C_22
REMARK   12  A    between atoms: C_23  and  C_35
REMARK   13  A    between atoms: C_27  and  O_34
REMARK   14  A    between atoms: C_29  and  O_33
REMARK   15  A    between atoms: C_37  and  O_42
REMARK   16  A    between atoms: C_38  and  O_41
REMARK   17  A    between atoms: O_42  and  C_43
REMARK   18  A    between atoms: C_44  and  O_45
REMARK   19  A    between atoms: O_45  and  C_46
REMARK   20  A    between atoms: C_48  and  O_59
REMARK   21  A    between atoms: C_49  and  O_58
REMARK   22  A    between atoms: C_51  and  O_57
REMARK   23  A    between atoms: C_53  and  C_55
REMARK   24  A    between atoms: C_55  and  O_56
REMARK   25  A    between atoms: O_64  and  C_65
REMARK   26  A    between atoms: C_65  and  C_67
REMARK                            x       y       z     vdW  Elec       q    Type
REMARK                         _______ _______ _______ _____ _____    ______ ____
ROOT
ATOM      1  C   UNL     1       6.588  -1.193  25.272  0.00  0.00    +0.221 C 
ATOM      2  C   UNL     1       6.254  -1.643  26.736  0.00  0.00    +0.340 C 
ATOM      3  O   UNL     1       6.867  -2.917  27.026  0.00  0.00    -0.331 OA
ATOM      4  C   UNL     1       6.380  -3.982  26.163  0.00  0.00    +0.179 C 
ATOM      5  C   UNL     1       6.677  -3.664  24.688  0.00  0.00    +0.177 C 
ATOM      6  C   UNL     1       6.043  -2.314  24.328  0.00  0.00    +0.180 C 
ENDROOT
BRANCH   6   7
ATOM      7  O   UNL     1       6.203  -2.091  22.911  0.00  0.00    -0.386 OA
ATOM      8  H   UNL     1       5.309  -1.989  22.537  0.00  0.00    +0.210 HD
ENDBRANCH   6   7
BRANCH   5   9
ATOM      9  O   UNL     1       6.182  -4.681  23.816  0.00  0.00    -0.386 OA
ATOM     10  H   UNL     1       6.310  -5.528  24.286  0.00  0.00    +0.210 HD
ENDBRANCH   5   9
BRANCH   2  11
ATOM     11  O   UNL     1       6.522  -0.649  27.765  0.00  0.00    -0.453 OA
BRANCH  11  12
ATOM     12  C   UNL     1       5.521   0.331  27.900  0.00  0.00    +0.214 A 
ATOM     13  C   UNL     1       5.895   1.797  27.871  0.00  0.00    +0.238 A 
ATOM     14  O   UNL     1       7.015   2.189  28.159  0.00  0.00    -0.283 OA
ATOM     15  C   UNL     1       4.853   2.742  27.442  0.00  0.00    +0.109 A 
ATOM     16  C   UNL     1       3.550   2.351  27.672  0.00  0.00    +0.147 A 
ATOM     17  C   UNL     1       2.484   3.210  27.387  0.00  0.00    +0.092 A 
ATOM     18  C   UNL     1       2.755   4.462  26.845  0.00  0.00    +0.124 A 
ATOM     19  C   UNL     1       4.062   4.855  26.571  0.00  0.00    +0.091 A 
ATOM     20  O   UNL     1       3.257   1.126  28.201  0.00  0.00    -0.451 OA
ATOM     21  C   UNL     1       5.116   3.990  26.865  0.00  0.00    +0.135 A 
ATOM     22  C   UNL     1       4.195   0.085  28.080  0.00  0.00    +0.181 A 
BRANCH  22  23
ATOM     23  C   UNL     1       3.481  -1.227  28.210  0.00  0.00    +0.025 A 
ATOM     24  C   UNL     1       2.434  -1.498  27.289  0.00  0.00    +0.015 A 
ATOM     25  C   UNL     1       1.582  -2.595  27.422  0.00  0.00    +0.050 A 
ATOM     26  C   UNL     1       1.793  -3.478  28.460  0.00  0.00    +0.158 A 
ATOM     27  C   UNL     1       2.850  -3.286  29.355  0.00  0.00    +0.162 A 
ATOM     28  C   UNL     1       3.675  -2.148  29.252  0.00  0.00    +0.061 A 
BRANCH  27  29
ATOM     29  O   UNL     1       2.964  -4.248  30.326  0.00  0.00    -0.491 OA
ATOM     30  C   UNL     1       4.155  -5.025  30.232  0.00  0.00    +0.277 C 
ENDBRANCH  27  29
BRANCH  26  31
ATOM     31  O   UNL     1       0.956  -4.552  28.575  0.00  0.00    -0.503 OA
ATOM     32  H   UNL     1       1.317  -5.084  29.310  0.00  0.00    +0.292 HD
ENDBRANCH  26  31
ENDBRANCH  22  23
BRANCH  18  33
ATOM     33  O   UNL     1       1.761   5.348  26.552  0.00  0.00    -0.507 OA
ATOM     34  H   UNL     1       0.904   4.975  26.821  0.00  0.00    +0.292 HD
ENDBRANCH  18  33
BRANCH  21  35
ATOM     35  O   UNL     1       6.391   4.356  26.541  0.00  0.00    -0.506 OA
ATOM     36  H   UNL     1       6.897   4.520  27.355  0.00  0.00    +0.292 HD
ENDBRANCH  21  35
ENDBRANCH  11  12
ENDBRANCH   2  11
BRANCH   4  37
ATOM     37  C   UNL     1       4.877  -4.250  26.419  0.00  0.00    +0.197 C 
BRANCH  37  38
ATOM     38  O   UNL     1       4.253  -5.322  25.732  0.00  0.00    -0.346 OA
BRANCH  38  39
ATOM     39  C   UNL     1       2.954  -5.094  25.183  0.00  0.00    +0.282 C 
ATOM     40  O   UNL     1       1.998  -5.791  26.003  0.00  0.00    -0.341 OA
ATOM     41  C   UNL     1       2.289  -7.199  26.108  0.00  0.00    +0.178 C 
ATOM     42  C   UNL     1       2.276  -7.880  24.714  0.00  0.00    +0.177 C 
ATOM     43  C   UNL     1       3.160  -7.119  23.712  0.00  0.00    +0.179 C 
ATOM     44  C   UNL     1       2.812  -5.615  23.739  0.00  0.00    +0.201 C 
BRANCH  44  45
ATOM     45  O   UNL     1       3.590  -4.869  22.799  0.00  0.00    -0.384 OA
ATOM     46  H   UNL     1       4.511  -4.865  23.116  0.00  0.00    +0.210 HD
ENDBRANCH  44  45
BRANCH  43  47
ATOM     47  O   UNL     1       4.552  -7.359  23.971  0.00  0.00    -0.386 OA
ATOM     48  H   UNL     1       4.673  -8.327  24.037  0.00  0.00    +0.210 HD
ENDBRANCH  43  47
BRANCH  42  49
ATOM     49  O   UNL     1       0.954  -7.914  24.170  0.00  0.00    -0.386 OA
ATOM     50  H   UNL     1       0.425  -7.243  24.639  0.00  0.00    +0.210 HD
ENDBRANCH  42  49
BRANCH  41  51
ATOM     51  C   UNL     1       1.311  -7.810  27.129  0.00  0.00    +0.190 C 
BRANCH  51  52
ATOM     52  O   UNL     1       1.140  -9.214  26.992  0.00  0.00    -0.392 OA
ATOM     53  H   UNL     1       1.338  -9.600  27.867  0.00  0.00    +0.210 HD
ENDBRANCH  51  52
ENDBRANCH  41  51
ENDBRANCH  38  39
ENDBRANCH  37  38
ENDBRANCH   4  37
BRANCH   1  54
ATOM     54  O   UNL     1       7.998  -0.915  25.080  0.00  0.00    -0.337 OA
BRANCH  54  58
ATOM     55  C   UNL     1       9.353   0.583  21.366  0.00  0.00    +0.042 C 
ATOM     56  C   UNL     1       9.894   1.149  22.688  0.00  0.00    +0.162 C 
ATOM     57  O   UNL     1       9.650   0.259  23.803  0.00  0.00    -0.342 OA
ATOM     58  C   UNL     1       8.259   0.148  24.140  0.00  0.00    +0.282 C 
ATOM     59  C   UNL     1       7.698   1.525  24.577  0.00  0.00    +0.202 C 
ATOM     60  C   UNL     1       7.912   2.536  23.452  0.00  0.00    +0.191 C 
ATOM     61  C   UNL     1       9.361   2.575  22.952  0.00  0.00    +0.236 C 
BRANCH  60  62
ATOM     62  O   UNL     1       7.483   3.835  23.889  0.00  0.00    -0.385 OA
ATOM     63  H   UNL     1       7.661   3.856  24.849  0.00  0.00    +0.210 HD
ENDBRANCH  60  62
BRANCH  59  64
ATOM     64  O   UNL     1       8.296   1.985  25.799  0.00  0.00    -0.384 OA
ATOM     65  H   UNL     1       8.789   1.232  26.168  0.00  0.00    +0.210 HD
ENDBRANCH  59  64
BRANCH  61  66
ATOM     66  O   UNL     1      10.163   3.240  23.953  0.00  0.00    -0.456 OA
BRANCH  66  67
ATOM     67  C   UNL     1      10.616   4.476  23.611  0.00  0.00    +0.304 C 
ATOM     68  C   UNL     1      12.058   4.446  23.224  0.00  0.00    +0.136 C 
ATOM     69  O   UNL     1       9.928   5.492  23.606  0.00  0.00    -0.251 OA
ENDBRANCH  66  67
ENDBRANCH  61  66
ENDBRANCH  54  58
ENDBRANCH   1  54
TORSDOF 23
ENDMDL
