MODEL 1
REMARK VINA RESULT:      -7.3      0.000      0.000
REMARK  Name = 
REMARK  6 active torsions:
REMARK  status: ('A' for Active; 'I' for Inactive)
REMARK    1  A    between atoms: C_3  and  O_23
REMARK    2  A    between atoms: C_4  and  O_22
REMARK    3  A    between atoms: C_6  and  C_7
REMARK    4  A    between atoms: C_8  and  O_21
REMARK    5  A    between atoms: C_9  and  O_20
REMARK    6  A    between atoms: C_13  and  O_18
REMARK                            x       y       z     vdW  Elec       q    Type
REMARK                         _______ _______ _______ _____ _____    ______ ____
ROOT
ATOM      1  C   UNL     1       6.950  -2.437  23.263  0.00  0.00    +0.181 A 
ATOM      2  O   UNL     1       7.328  -2.751  24.579  0.00  0.00    -0.447 OA
ATOM      3  C   UNL     1       6.811  -3.889  25.182  0.00  0.00    +0.189 A 
ATOM      4  C   UNL     1       6.919  -4.157  26.528  0.00  0.00    +0.217 A 
ATOM      5  O   UNL     1       5.878  -4.115  27.324  0.00  0.00    -0.441 OA
ATOM      6  C   UNL     1       5.554  -5.303  26.894  0.00  0.00    +0.221 A 
ATOM      7  C   UNL     1       4.957  -5.550  25.462  0.00  0.00    +0.239 A 
ATOM      8  O   UNL     1       4.101  -6.355  25.143  0.00  0.00    -0.283 OA
ATOM      9  C   UNL     1       6.881  -5.589  26.991  0.00  0.00    +0.210 A 
ATOM     10  C   UNL     1       5.666  -4.567  24.543  0.00  0.00    +0.117 A 
ATOM     11  C   UNL     1       5.291  -4.218  23.309  0.00  0.00    +0.177 A 
ATOM     12  C   UNL     1       6.004  -3.160  22.616  0.00  0.00    +0.203 A 
ENDROOT
BRANCH   1  14
ATOM     13  C   UNL     1       8.858  -1.446  21.919  0.00  0.00    +0.015 A 
ATOM     14  C   UNL     1       7.691  -1.283  22.693  0.00  0.00    +0.025 A 
ATOM     15  C   UNL     1       7.222   0.023  22.911  0.00  0.00    +0.060 A 
ATOM     16  C   UNL     1       7.955   1.113  22.454  0.00  0.00    +0.159 A 
ATOM     17  C   UNL     1       9.154   0.935  21.773  0.00  0.00    +0.158 A 
ATOM     18  C   UNL     1       9.604  -0.343  21.481  0.00  0.00    +0.050 A 
BRANCH  16  19
ATOM     19  O   UNL     1       7.494   2.374  22.700  0.00  0.00    -0.503 OA
ATOM     20  H   UNL     1       7.382   2.414  23.671  0.00  0.00    +0.292 HD
ENDBRANCH  16  19
BRANCH  17  21
ATOM     21  O   UNL     1       9.855   2.051  21.413  0.00  0.00    -0.503 OA
ATOM     22  H   UNL     1       9.588   2.782  21.997  0.00  0.00    +0.292 HD
ENDBRANCH  17  21
ENDBRANCH   1  14
BRANCH   9  23
ATOM     23  O   UNL     1       7.664  -6.047  27.902  0.00  0.00    -0.501 OA
ATOM     24  H   UNL     1       7.187  -6.742  28.392  0.00  0.00    +0.292 HD
ENDBRANCH   9  23
BRANCH  11  25
ATOM     25  O   UNL     1       4.210  -4.749  22.650  0.00  0.00    -0.503 OA
ATOM     26  H   UNL     1       3.418  -4.393  23.102  0.00  0.00    +0.292 HD
ENDBRANCH  11  25
BRANCH  12  27
ATOM     27  O   UNL     1       5.596  -3.000  21.308  0.00  0.00    -0.501 OA
ATOM     28  H   UNL     1       5.237  -3.851  21.001  0.00  0.00    +0.292 HD
ENDBRANCH  12  27
TORSDOF 6
ENDMDL
MODEL 2
REMARK VINA RESULT:      -7.2      2.256      2.940
REMARK  Name = 
REMARK  6 active torsions:
REMARK  status: ('A' for Active; 'I' for Inactive)
REMARK    1  A    between atoms: C_3  and  O_23
REMARK    2  A    between atoms: C_4  and  O_22
REMARK    3  A    between atoms: C_6  and  C_7
REMARK    4  A    between atoms: C_8  and  O_21
REMARK    5  A    between atoms: C_9  and  O_20
REMARK    6  A    between atoms: C_13  and  O_18
REMARK                            x       y       z     vdW  Elec       q    Type
REMARK                         _______ _______ _______ _____ _____    ______ ____
ROOT
ATOM      1  C   UNL     1       7.802  -0.548  24.576  0.00  0.00    +0.181 A 
ATOM      2  O   UNL     1       8.745  -1.525  24.939  0.00  0.00    -0.447 OA
ATOM      3  C   UNL     1       8.330  -2.837  25.117  0.00  0.00    +0.189 A 
ATOM      4  C   UNL     1       9.108  -3.812  25.700  0.00  0.00    +0.217 A 
ATOM      5  O   UNL     1       8.826  -4.302  26.883  0.00  0.00    -0.441 OA
ATOM      6  C   UNL     1       7.929  -5.057  26.309  0.00  0.00    +0.221 A 
ATOM      7  C   UNL     1       6.567  -4.491  25.771  0.00  0.00    +0.239 A 
ATOM      8  O   UNL     1       5.476  -5.031  25.797  0.00  0.00    -0.283 OA
ATOM      9  C   UNL     1       8.863  -5.253  25.338  0.00  0.00    +0.210 A 
ATOM     10  C   UNL     1       6.884  -3.113  25.210  0.00  0.00    +0.117 A 
ATOM     11  C   UNL     1       6.002  -2.154  24.909  0.00  0.00    +0.177 A 
ATOM     12  C   UNL     1       6.481  -0.842  24.510  0.00  0.00    +0.203 A 
ENDROOT
BRANCH   1  14
ATOM     13  C   UNL     1       8.278   1.875  25.146  0.00  0.00    +0.015 A 
ATOM     14  C   UNL     1       8.406   0.775  24.274  0.00  0.00    +0.025 A 
ATOM     15  C   UNL     1       9.142   0.953  23.092  0.00  0.00    +0.060 A 
ATOM     16  C   UNL     1       9.637   2.209  22.761  0.00  0.00    +0.159 A 
ATOM     17  C   UNL     1       9.421   3.306  23.589  0.00  0.00    +0.158 A 
ATOM     18  C   UNL     1       8.761   3.145  24.797  0.00  0.00    +0.050 A 
BRANCH  16  19
ATOM     19  O   UNL     1      10.327   2.365  21.593  0.00  0.00    -0.503 OA
ATOM     20  H   UNL     1       9.711   2.843  21.002  0.00  0.00    +0.292 HD
ENDBRANCH  16  19
BRANCH  17  21
ATOM     21  O   UNL     1       9.878   4.522  23.168  0.00  0.00    -0.503 OA
ATOM     22  H   UNL     1      10.850   4.495  23.147  0.00  0.00    +0.292 HD
ENDBRANCH  17  21
ENDBRANCH   1  14
BRANCH   9  23
ATOM     23  O   UNL     1       9.816  -6.089  25.127  0.00  0.00    -0.501 OA
ATOM     24  H   UNL     1      10.035  -6.522  25.973  0.00  0.00    +0.292 HD
ENDBRANCH   9  23
BRANCH  11  25
ATOM     25  O   UNL     1       4.641  -2.293  25.016  0.00  0.00    -0.503 OA
ATOM     26  H   UNL     1       4.486  -2.792  25.842  0.00  0.00    +0.292 HD
ENDBRANCH  11  25
BRANCH  12  27
ATOM     27  O   UNL     1       5.468   0.001  24.103  0.00  0.00    -0.501 OA
ATOM     28  H   UNL     1       5.877   0.815  23.759  0.00  0.00    +0.292 HD
ENDBRANCH  12  27
TORSDOF 6
ENDMDL
MODEL 3
REMARK VINA RESULT:      -7.1      2.020      7.043
REMARK  Name = 
REMARK  6 active torsions:
REMARK  status: ('A' for Active; 'I' for Inactive)
REMARK    1  A    between atoms: C_3  and  O_23
REMARK    2  A    between atoms: C_4  and  O_22
REMARK    3  A    between atoms: C_6  and  C_7
REMARK    4  A    between atoms: C_8  and  O_21
REMARK    5  A    between atoms: C_9  and  O_20
REMARK    6  A    between atoms: C_13  and  O_18
REMARK                            x       y       z     vdW  Elec       q    Type
REMARK                         _______ _______ _______ _____ _____    ______ ____
ROOT
ATOM      1  C   UNL     1       6.824  -4.086  24.316  0.00  0.00    +0.181 A 
ATOM      2  O   UNL     1       6.171  -2.844  24.245  0.00  0.00    -0.447 OA
ATOM      3  C   UNL     1       6.883  -1.723  23.844  0.00  0.00    +0.189 A 
ATOM      4  C   UNL     1       6.416  -0.434  23.970  0.00  0.00    +0.217 A 
ATOM      5  O   UNL     1       6.939   0.407  24.830  0.00  0.00    -0.441 OA
ATOM      6  C   UNL     1       7.905   0.611  23.977  0.00  0.00    +0.221 A 
ATOM      7  C   UNL     1       9.034  -0.446  23.709  0.00  0.00    +0.239 A 
ATOM      8  O   UNL     1      10.213  -0.235  23.486  0.00  0.00    -0.283 OA
ATOM      9  C   UNL     1       6.928   0.623  23.029  0.00  0.00    +0.210 A 
ATOM     10  C   UNL     1       8.356  -1.805  23.789  0.00  0.00    +0.117 A 
ATOM     11  C   UNL     1       8.961  -2.991  23.910  0.00  0.00    +0.177 A 
ATOM     12  C   UNL     1       8.160  -4.186  24.112  0.00  0.00    +0.203 A 
ENDROOT
BRANCH   1  14
ATOM     13  C   UNL     1       5.052  -5.767  23.639  0.00  0.00    +0.015 A 
ATOM     14  C   UNL     1       5.912  -5.219  24.613  0.00  0.00    +0.025 A 
ATOM     15  C   UNL     1       5.899  -5.787  25.897  0.00  0.00    +0.060 A 
ATOM     16  C   UNL     1       4.988  -6.791  26.207  0.00  0.00    +0.159 A 
ATOM     17  C   UNL     1       4.082  -7.255  25.259  0.00  0.00    +0.158 A 
ATOM     18  C   UNL     1       4.121  -6.764  23.963  0.00  0.00    +0.050 A 
BRANCH  16  19
ATOM     19  O   UNL     1       4.974  -7.309  27.470  0.00  0.00    -0.503 OA
ATOM     20  H   UNL     1       4.080  -7.693  27.572  0.00  0.00    +0.292 HD
ENDBRANCH  16  19
BRANCH  17  21
ATOM     21  O   UNL     1       3.171  -8.194  25.653  0.00  0.00    -0.503 OA
ATOM     22  H   UNL     1       2.472  -7.749  26.161  0.00  0.00    +0.292 HD
ENDBRANCH  17  21
ENDBRANCH   1  14
BRANCH   9  23
ATOM     23  O   UNL     1       6.165   1.511  22.498  0.00  0.00    -0.501 OA
ATOM     24  H   UNL     1       5.834   1.160  21.650  0.00  0.00    +0.292 HD
ENDBRANCH   9  23
BRANCH  11  25
ATOM     25  O   UNL     1      10.322  -3.167  23.927  0.00  0.00    -0.503 OA
ATOM     26  H   UNL     1      10.471  -4.126  23.803  0.00  0.00    +0.292 HD
ENDBRANCH  11  25
BRANCH  12  27
ATOM     27  O   UNL     1       8.906  -5.346  24.084  0.00  0.00    -0.501 OA
ATOM     28  H   UNL     1       8.822  -5.734  23.195  0.00  0.00    +0.292 HD
ENDBRANCH  12  27
TORSDOF 6
ENDMDL
MODEL 4
REMARK VINA RESULT:      -7.0      2.421      3.523
REMARK  Name = 
REMARK  6 active torsions:
REMARK  status: ('A' for Active; 'I' for Inactive)
REMARK    1  A    between atoms: C_3  and  O_23
REMARK    2  A    between atoms: C_4  and  O_22
REMARK    3  A    between atoms: C_6  and  C_7
REMARK    4  A    between atoms: C_8  and  O_21
REMARK    5  A    between atoms: C_9  and  O_20
REMARK    6  A    between atoms: C_13  and  O_18
REMARK                            x       y       z     vdW  Elec       q    Type
REMARK                         _______ _______ _______ _____ _____    ______ ____
ROOT
ATOM      1  C   UNL     1       7.483  -1.449  23.522  0.00  0.00    +0.181 A 
ATOM      2  O   UNL     1       7.795  -2.545  22.699  0.00  0.00    -0.447 OA
ATOM      3  C   UNL     1       6.830  -3.513  22.461  0.00  0.00    +0.189 A 
ATOM      4  C   UNL     1       7.096  -4.732  21.880  0.00  0.00    +0.217 A 
ATOM      5  O   UNL     1       7.041  -5.848  22.565  0.00  0.00    -0.441 OA
ATOM      6  C   UNL     1       5.745  -5.822  22.424  0.00  0.00    +0.221 A 
ATOM      7  C   UNL     1       4.828  -4.819  23.212  0.00  0.00    +0.239 A 
ATOM      8  O   UNL     1       3.717  -5.027  23.665  0.00  0.00    -0.283 OA
ATOM      9  C   UNL     1       5.995  -5.443  21.140  0.00  0.00    +0.210 A 
ATOM     10  C   UNL     1       5.618  -3.522  23.303  0.00  0.00    +0.117 A 
ATOM     11  C   UNL     1       5.365  -2.492  24.118  0.00  0.00    +0.177 A 
ATOM     12  C   UNL     1       6.299  -1.382  24.178  0.00  0.00    +0.203 A 
ENDROOT
BRANCH   1  14
ATOM     13  C   UNL     1       9.378  -0.244  24.698  0.00  0.00    +0.015 A 
ATOM     14  C   UNL     1       8.553  -0.420  23.568  0.00  0.00    +0.025 A 
ATOM     15  C   UNL     1       8.775   0.407  22.456  0.00  0.00    +0.060 A 
ATOM     16  C   UNL     1       9.716   1.428  22.522  0.00  0.00    +0.159 A 
ATOM     17  C   UNL     1      10.455   1.648  23.680  0.00  0.00    +0.158 A 
ATOM     18  C   UNL     1      10.309   0.802  24.768  0.00  0.00    +0.050 A 
BRANCH  16  19
ATOM     19  O   UNL     1       9.896   2.238  21.438  0.00  0.00    -0.503 OA
ATOM     20  H   UNL     1       9.268   1.901  20.768  0.00  0.00    +0.292 HD
ENDBRANCH  16  19
BRANCH  17  21
ATOM     21  O   UNL     1      11.312   2.711  23.697  0.00  0.00    -0.503 OA
ATOM     22  H   UNL     1      10.788   3.527  23.777  0.00  0.00    +0.292 HD
ENDBRANCH  17  21
ENDBRANCH   1  14
BRANCH   9  23
ATOM     23  O   UNL     1       6.183  -6.043  20.019  0.00  0.00    -0.501 OA
ATOM     24  H   UNL     1       5.694  -5.559  19.328  0.00  0.00    +0.292 HD
ENDBRANCH   9  23
BRANCH  11  25
ATOM     25  O   UNL     1       4.298  -2.430  24.978  0.00  0.00    -0.503 OA
ATOM     26  H   UNL     1       4.553  -1.797  25.678  0.00  0.00    +0.292 HD
ENDBRANCH  11  25
BRANCH  12  27
ATOM     27  O   UNL     1       5.846  -0.336  24.955  0.00  0.00    -0.501 OA
ATOM     28  H   UNL     1       5.390   0.295  24.371  0.00  0.00    +0.292 HD
ENDBRANCH  12  27
TORSDOF 6
ENDMDL
MODEL 5
REMARK VINA RESULT:      -6.9      1.574      2.195
REMARK  Name = 
REMARK  6 active torsions:
REMARK  status: ('A' for Active; 'I' for Inactive)
REMARK    1  A    between atoms: C_3  and  O_23
REMARK    2  A    between atoms: C_4  and  O_22
REMARK    3  A    between atoms: C_6  and  C_7
REMARK    4  A    between atoms: C_8  and  O_21
REMARK    5  A    between atoms: C_9  and  O_20
REMARK    6  A    between atoms: C_13  and  O_18
REMARK                            x       y       z     vdW  Elec       q    Type
REMARK                         _______ _______ _______ _____ _____    ______ ____
ROOT
ATOM      1  C   UNL     1       6.305  -3.714  23.487  0.00  0.00    +0.181 A 
ATOM      2  O   UNL     1       6.229  -3.956  24.869  0.00  0.00    -0.447 OA
ATOM      3  C   UNL     1       5.659  -5.137  25.322  0.00  0.00    +0.189 A 
ATOM      4  C   UNL     1       5.317  -5.366  26.636  0.00  0.00    +0.217 A 
ATOM      5  O   UNL     1       4.065  -5.436  27.020  0.00  0.00    -0.441 OA
ATOM      6  C   UNL     1       4.042  -6.662  26.575  0.00  0.00    +0.221 A 
ATOM      7  C   UNL     1       4.015  -7.005  25.043  0.00  0.00    +0.239 A 
ATOM      8  O   UNL     1       3.417  -7.914  24.495  0.00  0.00    -0.283 OA
ATOM      9  C   UNL     1       5.274  -6.783  27.142  0.00  0.00    +0.210 A 
ATOM     10  C   UNL     1       4.891  -5.960  24.369  0.00  0.00    +0.117 A 
ATOM     11  C   UNL     1       4.936  -5.682  23.062  0.00  0.00    +0.177 A 
ATOM     12  C   UNL     1       5.729  -4.558  22.597  0.00  0.00    +0.203 A 
ENDROOT
BRANCH   1  14
ATOM     13  C   UNL     1       6.575  -1.194  23.406  0.00  0.00    +0.015 A 
ATOM     14  C   UNL     1       7.069  -2.488  23.141  0.00  0.00    +0.025 A 
ATOM     15  C   UNL     1       8.334  -2.600  22.542  0.00  0.00    +0.060 A 
ATOM     16  C   UNL     1       9.018  -1.459  22.137  0.00  0.00    +0.159 A 
ATOM     17  C   UNL     1       8.472  -0.193  22.321  0.00  0.00    +0.158 A 
ATOM     18  C   UNL     1       7.258  -0.048  22.976  0.00  0.00    +0.050 A 
BRANCH  16  19
ATOM     19  O   UNL     1      10.234  -1.593  21.531  0.00  0.00    -0.503 OA
ATOM     20  H   UNL     1      10.480  -0.685  21.262  0.00  0.00    +0.292 HD
ENDBRANCH  16  19
BRANCH  17  21
ATOM     21  O   UNL     1       9.169   0.878  21.838  0.00  0.00    -0.503 OA
ATOM     22  H   UNL     1      10.116   0.656  21.843  0.00  0.00    +0.292 HD
ENDBRANCH  17  21
ENDBRANCH   1  14
BRANCH   9  23
ATOM     23  O   UNL     1       5.733  -7.126  28.292  0.00  0.00    -0.501 OA
ATOM     24  H   UNL     1       6.633  -6.762  28.382  0.00  0.00    +0.292 HD
ENDBRANCH   9  23
BRANCH  11  25
ATOM     25  O   UNL     1       4.218  -6.351  22.103  0.00  0.00    -0.503 OA
ATOM     26  H   UNL     1       3.363  -5.881  22.029  0.00  0.00    +0.292 HD
ENDBRANCH  11  25
BRANCH  12  27
ATOM     27  O   UNL     1       5.789  -4.472  21.221  0.00  0.00    -0.501 OA
ATOM     28  H   UNL     1       5.993  -3.549  20.988  0.00  0.00    +0.292 HD
ENDBRANCH  12  27
TORSDOF 6
ENDMDL
MODEL 6
REMARK VINA RESULT:      -6.9      2.560      4.117
REMARK  Name = 
REMARK  6 active torsions:
REMARK  status: ('A' for Active; 'I' for Inactive)
REMARK    1  A    between atoms: C_3  and  O_23
REMARK    2  A    between atoms: C_4  and  O_22
REMARK    3  A    between atoms: C_6  and  C_7
REMARK    4  A    between atoms: C_8  and  O_21
REMARK    5  A    between atoms: C_9  and  O_20
REMARK    6  A    between atoms: C_13  and  O_18
REMARK                            x       y       z     vdW  Elec       q    Type
REMARK                         _______ _______ _______ _____ _____    ______ ____
ROOT
ATOM      1  C   UNL     1       7.898  -0.545  23.141  0.00  0.00    +0.181 A 
ATOM      2  O   UNL     1       6.737  -1.159  22.643  0.00  0.00    -0.447 OA
ATOM      3  C   UNL     1       6.566  -2.526  22.808  0.00  0.00    +0.189 A 
ATOM      4  C   UNL     1       5.600  -3.260  22.158  0.00  0.00    +0.217 A 
ATOM      5  O   UNL     1       5.906  -4.123  21.218  0.00  0.00    -0.441 OA
ATOM      6  C   UNL     1       6.223  -4.969  22.158  0.00  0.00    +0.221 A 
ATOM      7  C   UNL     1       7.530  -4.829  23.018  0.00  0.00    +0.239 A 
ATOM      8  O   UNL     1       8.248  -5.722  23.430  0.00  0.00    -0.283 OA
ATOM      9  C   UNL     1       5.100  -4.531  22.792  0.00  0.00    +0.210 A 
ATOM     10  C   UNL     1       7.725  -3.335  23.232  0.00  0.00    +0.117 A 
ATOM     11  C   UNL     1       8.840  -2.731  23.655  0.00  0.00    +0.177 A 
ATOM     12  C   UNL     1       8.904  -1.280  23.676  0.00  0.00    +0.203 A 
ENDROOT
BRANCH   1  14
ATOM     13  C   UNL     1       6.693   1.657  22.789  0.00  0.00    +0.015 A 
ATOM     14  C   UNL     1       7.881   0.936  23.028  0.00  0.00    +0.025 A 
ATOM     15  C   UNL     1       9.074   1.661  23.173  0.00  0.00    +0.060 A 
ATOM     16  C   UNL     1       9.081   3.038  22.984  0.00  0.00    +0.159 A 
ATOM     17  C   UNL     1       7.916   3.723  22.656  0.00  0.00    +0.158 A 
ATOM     18  C   UNL     1       6.710   3.043  22.577  0.00  0.00    +0.050 A 
BRANCH  16  19
ATOM     19  O   UNL     1      10.258   3.720  23.103  0.00  0.00    -0.503 OA
ATOM     20  H   UNL     1      10.888   3.067  23.470  0.00  0.00    +0.292 HD
ENDBRANCH  16  19
BRANCH  17  21
ATOM     21  O   UNL     1       8.010   5.065  22.418  0.00  0.00    -0.503 OA
ATOM     22  H   UNL     1       8.372   5.193  21.525  0.00  0.00    +0.292 HD
ENDBRANCH  17  21
ENDBRANCH   1  14
BRANCH   9  23
ATOM     23  O   UNL     1       3.858  -4.861  22.805  0.00  0.00    -0.501 OA
ATOM     24  H   UNL     1       3.799  -5.817  22.986  0.00  0.00    +0.292 HD
ENDBRANCH   9  23
BRANCH  11  25
ATOM     25  O   UNL     1       9.987  -3.391  24.019  0.00  0.00    -0.503 OA
ATOM     26  H   UNL     1       9.768  -4.343  23.997  0.00  0.00    +0.292 HD
ENDBRANCH  11  25
BRANCH  12  27
ATOM     27  O   UNL     1      10.058  -0.799  24.258  0.00  0.00    -0.501 OA
ATOM     28  H   UNL     1      10.805  -1.039  23.684  0.00  0.00    +0.292 HD
ENDBRANCH  12  27
TORSDOF 6
ENDMDL
MODEL 7
REMARK VINA RESULT:      -6.9      1.284      3.095
REMARK  Name = 
REMARK  6 active torsions:
REMARK  status: ('A' for Active; 'I' for Inactive)
REMARK    1  A    between atoms: C_3  and  O_23
REMARK    2  A    between atoms: C_4  and  O_22
REMARK    3  A    between atoms: C_6  and  C_7
REMARK    4  A    between atoms: C_8  and  O_21
REMARK    5  A    between atoms: C_9  and  O_20
REMARK    6  A    between atoms: C_13  and  O_18
REMARK                            x       y       z     vdW  Elec       q    Type
REMARK                         _______ _______ _______ _____ _____    ______ ____
ROOT
ATOM      1  C   UNL     1       7.559  -2.272  23.810  0.00  0.00    +0.181 A 
ATOM      2  O   UNL     1       6.610  -2.931  23.011  0.00  0.00    -0.447 OA
ATOM      3  C   UNL     1       5.857  -3.960  23.559  0.00  0.00    +0.189 A 
ATOM      4  C   UNL     1       5.085  -4.823  22.815  0.00  0.00    +0.217 A 
ATOM      5  O   UNL     1       5.411  -6.085  22.665  0.00  0.00    -0.441 OA
ATOM      6  C   UNL     1       4.907  -6.310  23.847  0.00  0.00    +0.221 A 
ATOM      7  C   UNL     1       5.622  -5.863  25.171  0.00  0.00    +0.239 A 
ATOM      8  O   UNL     1       5.659  -6.457  26.234  0.00  0.00    -0.283 OA
ATOM      9  C   UNL     1       3.897  -5.482  23.463  0.00  0.00    +0.210 A 
ATOM     10  C   UNL     1       6.274  -4.525  24.858  0.00  0.00    +0.117 A 
ATOM     11  C   UNL     1       7.216  -3.909  25.579  0.00  0.00    +0.177 A 
ATOM     12  C   UNL     1       7.832  -2.698  25.067  0.00  0.00    +0.203 A 
ENDROOT
BRANCH   1  14
ATOM     13  C   UNL     1       9.130  -1.240  22.109  0.00  0.00    +0.015 A 
ATOM     14  C   UNL     1       8.182  -1.100  23.144  0.00  0.00    +0.025 A 
ATOM     15  C   UNL     1       7.820   0.199  23.534  0.00  0.00    +0.060 A 
ATOM     16  C   UNL     1       8.461   1.299  22.975  0.00  0.00    +0.159 A 
ATOM     17  C   UNL     1       9.461   1.140  22.023  0.00  0.00    +0.158 A 
ATOM     18  C   UNL     1       9.789  -0.128  21.566  0.00  0.00    +0.050 A 
BRANCH  16  19
ATOM     19  O   UNL     1       8.112   2.553  23.389  0.00  0.00    -0.503 OA
ATOM     20  H   UNL     1       8.029   3.074  22.566  0.00  0.00    +0.292 HD
ENDBRANCH  16  19
BRANCH  17  21
ATOM     21  O   UNL     1      10.094   2.261  21.568  0.00  0.00    -0.503 OA
ATOM     22  H   UNL     1      10.674   2.009  20.829  0.00  0.00    +0.292 HD
ENDBRANCH  17  21
ENDBRANCH   1  14
BRANCH   9  23
ATOM     23  O   UNL     1       2.765  -5.618  22.868  0.00  0.00    -0.501 OA
ATOM     24  H   UNL     1       2.873  -6.272  22.154  0.00  0.00    +0.292 HD
ENDBRANCH   9  23
BRANCH  11  25
ATOM     25  O   UNL     1       7.710  -4.381  26.770  0.00  0.00    -0.503 OA
ATOM     26  H   UNL     1       7.756  -5.353  26.675  0.00  0.00    +0.292 HD
ENDBRANCH  11  25
BRANCH  12  27
ATOM     27  O   UNL     1       8.685  -2.102  25.973  0.00  0.00    -0.501 OA
ATOM     28  H   UNL     1       8.190  -1.956  26.798  0.00  0.00    +0.292 HD
ENDBRANCH  12  27
TORSDOF 6
ENDMDL
MODEL 8
REMARK VINA RESULT:      -6.9      1.715      2.001
REMARK  Name = 
REMARK  6 active torsions:
REMARK  status: ('A' for Active; 'I' for Inactive)
REMARK    1  A    between atoms: C_3  and  O_23
REMARK    2  A    between atoms: C_4  and  O_22
REMARK    3  A    between atoms: C_6  and  C_7
REMARK    4  A    between atoms: C_8  and  O_21
REMARK    5  A    between atoms: C_9  and  O_20
REMARK    6  A    between atoms: C_13  and  O_18
REMARK                            x       y       z     vdW  Elec       q    Type
REMARK                         _______ _______ _______ _____ _____    ______ ____
ROOT
ATOM      1  C   UNL     1       8.511  -1.911  23.802  0.00  0.00    +0.181 A 
ATOM      2  O   UNL     1       8.304  -2.350  25.121  0.00  0.00    -0.447 OA
ATOM      3  C   UNL     1       7.708  -3.584  25.341  0.00  0.00    +0.189 A 
ATOM      4  C   UNL     1       7.242  -4.000  26.568  0.00  0.00    +0.217 A 
ATOM      5  O   UNL     1       5.960  -4.124  26.812  0.00  0.00    -0.441 OA
ATOM      6  C   UNL     1       5.996  -5.272  26.194  0.00  0.00    +0.221 A 
ATOM      7  C   UNL     1       6.123  -5.390  24.634  0.00  0.00    +0.239 A 
ATOM      8  O   UNL     1       5.593  -6.209  23.905  0.00  0.00    -0.283 OA
ATOM      9  C   UNL     1       7.169  -5.476  26.856  0.00  0.00    +0.210 A 
ATOM     10  C   UNL     1       7.047  -4.260  24.207  0.00  0.00    +0.117 A 
ATOM     11  C   UNL     1       7.216  -3.795  22.965  0.00  0.00    +0.177 A 
ATOM     12  C   UNL     1       8.036  -2.616  22.747  0.00  0.00    +0.203 A 
ENDROOT
BRANCH   1  14
ATOM     13  C   UNL     1      10.204  -0.259  24.713  0.00  0.00    +0.015 A 
ATOM     14  C   UNL     1       9.289  -0.649  23.714  0.00  0.00    +0.025 A 
ATOM     15  C   UNL     1       9.132   0.191  22.599  0.00  0.00    +0.060 A 
ATOM     16  C   UNL     1       9.792   1.414  22.549  0.00  0.00    +0.159 A 
ATOM     17  C   UNL     1      10.619   1.826  23.589  0.00  0.00    +0.158 A 
ATOM     18  C   UNL     1      10.850   0.985  24.667  0.00  0.00    +0.050 A 
BRANCH  16  19
ATOM     19  O   UNL     1       9.604   2.227  21.469  0.00  0.00    -0.503 OA
ATOM     20  H   UNL     1       9.229   1.643  20.779  0.00  0.00    +0.292 HD
ENDBRANCH  16  19
BRANCH  17  21
ATOM     21  O   UNL     1      11.181   3.068  23.503  0.00  0.00    -0.503 OA
ATOM     22  H   UNL     1      11.780   3.081  22.737  0.00  0.00    +0.292 HD
ENDBRANCH  17  21
ENDBRANCH   1  14
BRANCH   9  23
ATOM     23  O   UNL     1       7.517  -5.983  27.985  0.00  0.00    -0.501 OA
ATOM     24  H   UNL     1       7.531  -5.268  28.648  0.00  0.00    +0.292 HD
ENDBRANCH   9  23
BRANCH  11  25
ATOM     25  O   UNL     1       6.604  -4.318  21.854  0.00  0.00    -0.503 OA
ATOM     26  H   UNL     1       6.770  -5.281  21.883  0.00  0.00    +0.292 HD
ENDBRANCH  11  25
BRANCH  12  27
ATOM     27  O   UNL     1       8.229  -2.332  21.411  0.00  0.00    -0.501 OA
ATOM     28  H   UNL     1       8.701  -3.084  21.011  0.00  0.00    +0.292 HD
ENDBRANCH  12  27
TORSDOF 6
ENDMDL
MODEL 9
REMARK VINA RESULT:      -6.8      2.386      3.182
REMARK  Name = 
REMARK  6 active torsions:
REMARK  status: ('A' for Active; 'I' for Inactive)
REMARK    1  A    between atoms: C_3  and  O_23
REMARK    2  A    between atoms: C_4  and  O_22
REMARK    3  A    between atoms: C_6  and  C_7
REMARK    4  A    between atoms: C_8  and  O_21
REMARK    5  A    between atoms: C_9  and  O_20
REMARK    6  A    between atoms: C_13  and  O_18
REMARK                            x       y       z     vdW  Elec       q    Type
REMARK                         _______ _______ _______ _____ _____    ______ ____
ROOT
ATOM      1  C   UNL     1       8.126  -0.362  24.108  0.00  0.00    +0.181 A 
ATOM      2  O   UNL     1       8.833  -1.252  24.933  0.00  0.00    -0.447 OA
ATOM      3  C   UNL     1       8.620  -2.617  24.802  0.00  0.00    +0.189 A 
ATOM      4  C   UNL     1       9.068  -3.552  25.709  0.00  0.00    +0.217 A 
ATOM      5  O   UNL     1       8.241  -4.208  26.486  0.00  0.00    -0.441 OA
ATOM      6  C   UNL     1       7.983  -4.994  25.477  0.00  0.00    +0.221 A 
ATOM      7  C   UNL     1       7.111  -4.540  24.253  0.00  0.00    +0.239 A 
ATOM      8  O   UNL     1       6.316  -5.209  23.618  0.00  0.00    -0.283 OA
ATOM      9  C   UNL     1       9.323  -4.959  25.239  0.00  0.00    +0.210 A 
ATOM     10  C   UNL     1       7.457  -3.077  24.019  0.00  0.00    +0.117 A 
ATOM     11  C   UNL     1       6.766  -2.204  23.279  0.00  0.00    +0.177 A 
ATOM     12  C   UNL     1       7.158  -0.806  23.269  0.00  0.00    +0.203 A 
ENDROOT
BRANCH   1  14
ATOM     13  C   UNL     1       7.972   1.926  25.187  0.00  0.00    +0.015 A 
ATOM     14  C   UNL     1       8.560   1.051  24.251  0.00  0.00    +0.025 A 
ATOM     15  C   UNL     1       9.597   1.547  23.445  0.00  0.00    +0.060 A 
ATOM     16  C   UNL     1       9.951   2.890  23.513  0.00  0.00    +0.159 A 
ATOM     17  C   UNL     1       9.296   3.762  24.376  0.00  0.00    +0.158 A 
ATOM     18  C   UNL     1       8.318   3.284  25.235  0.00  0.00    +0.050 A 
BRANCH  16  19
ATOM     19  O   UNL     1      10.943   3.358  22.700  0.00  0.00    -0.503 OA
ATOM     20  H   UNL     1      10.652   4.255  22.441  0.00  0.00    +0.292 HD
ENDBRANCH  16  19
BRANCH  17  21
ATOM     21  O   UNL     1       9.649   5.081  24.340  0.00  0.00    -0.503 OA
ATOM     22  H   UNL     1      10.187   5.233  23.544  0.00  0.00    +0.292 HD
ENDBRANCH  17  21
ENDBRANCH   1  14
BRANCH   9  23
ATOM     23  O   UNL     1      10.347  -5.642  25.610  0.00  0.00    -0.501 OA
ATOM     24  H   UNL     1      10.829  -5.127  26.283  0.00  0.00    +0.292 HD
ENDBRANCH   9  23
BRANCH  11  25
ATOM     25  O   UNL     1       5.641  -2.520  22.559  0.00  0.00    -0.503 OA
ATOM     26  H   UNL     1       5.815  -3.395  22.158  0.00  0.00    +0.292 HD
ENDBRANCH  11  25
BRANCH  12  27
ATOM     27  O   UNL     1       6.443  -0.051  22.363  0.00  0.00    -0.501 OA
ATOM     28  H   UNL     1       5.783   0.465  22.859  0.00  0.00    +0.292 HD
ENDBRANCH  12  27
TORSDOF 6
ENDMDL
