MODEL 1
REMARK VINA RESULT:      -7.2      0.000      0.000
REMARK  Name = 
REMARK  11 active torsions:
REMARK  status: ('A' for Active; 'I' for Inactive)
REMARK    1  A    between atoms: C_1  and  C_2
REMARK    2  A    between atoms: C_4  and  O_37
REMARK    3  A    between atoms: C_6  and  O_36
REMARK    4  A    between atoms: C_8  and  O_35
REMARK    5  A    between atoms: C_10  and  O_13
REMARK    6  A    between atoms: O_13  and  C_14
REMARK    7  A    between atoms: C_15  and  C_27
REMARK    8  A    between atoms: C_19  and  O_26
REMARK    9  A    between atoms: C_21  and  O_25
REMARK   10  A    between atoms: C_29  and  O_34
REMARK   11  A    between atoms: C_30  and  O_33
REMARK                            x       y       z     vdW  Elec       q    Type
REMARK                         _______ _______ _______ _____ _____    ______ ____
ROOT
ATOM      1  C   UNL     1       7.967   2.842  23.478  0.00  0.00    +0.214 A 
ATOM      2  C   UNL     1       7.278   1.531  23.211  0.00  0.00    +0.238 A 
ATOM      3  O   UNL     1       6.082   1.520  22.942  0.00  0.00    -0.283 OA
ATOM      4  C   UNL     1       8.074   0.292  23.322  0.00  0.00    +0.109 A 
ATOM      5  C   UNL     1       9.450   0.435  23.480  0.00  0.00    +0.147 A 
ATOM      6  C   UNL     1      10.265  -0.691  23.635  0.00  0.00    +0.092 A 
ATOM      7  C   UNL     1       9.695  -1.963  23.614  0.00  0.00    +0.124 A 
ATOM      8  C   UNL     1       8.333  -2.125  23.448  0.00  0.00    +0.091 A 
ATOM      9  O   UNL     1      10.081   1.656  23.474  0.00  0.00    -0.451 OA
ATOM     10  C   UNL     1       7.520  -1.001  23.297  0.00  0.00    +0.135 A 
ATOM     11  C   UNL     1       9.335   2.833  23.518  0.00  0.00    +0.181 A 
ENDROOT
BRANCH  11  12
ATOM     12  C   UNL     1      10.247   4.023  23.655  0.00  0.00    +0.025 A 
ATOM     13  C   UNL     1       9.797   5.249  24.168  0.00  0.00    +0.015 A 
ATOM     14  C   UNL     1      10.690   6.262  24.557  0.00  0.00    +0.050 A 
ATOM     15  C   UNL     1      12.034   6.130  24.274  0.00  0.00    +0.158 A 
ATOM     16  C   UNL     1      12.482   5.016  23.577  0.00  0.00    +0.159 A 
ATOM     17  C   UNL     1      11.611   3.958  23.287  0.00  0.00    +0.060 A 
BRANCH  15  18
ATOM     18  O   UNL     1      12.903   7.105  24.667  0.00  0.00    -0.503 OA
ATOM     19  H   UNL     1      13.739   6.633  24.853  0.00  0.00    +0.292 HD
ENDBRANCH  15  18
BRANCH  16  20
ATOM     20  O   UNL     1      13.801   4.995  23.211  0.00  0.00    -0.503 OA
ATOM     21  H   UNL     1      13.860   5.343  22.304  0.00  0.00    +0.292 HD
ENDBRANCH  16  20
ENDBRANCH  11  12
BRANCH   7  22
ATOM     22  O   UNL     1      10.447  -3.088  23.782  0.00  0.00    -0.507 OA
ATOM     23  H   UNL     1      10.468  -3.593  22.952  0.00  0.00    +0.292 HD
ENDBRANCH   7  22
BRANCH  10  24
ATOM     24  O   UNL     1       6.173  -1.189  23.146  0.00  0.00    -0.506 OA
ATOM     25  H   UNL     1       5.905  -2.030  23.559  0.00  0.00    +0.292 HD
ENDBRANCH  10  24
BRANCH   1  26
ATOM     26  O   UNL     1       7.073   3.896  23.615  0.00  0.00    -0.453 OA
BRANCH  26  30
ATOM     27  C   UNL     1       3.962   4.316  24.214  0.00  0.00    +0.041 C 
ATOM     28  C   UNL     1       4.241   4.912  22.835  0.00  0.00    +0.150 C 
ATOM     29  O   UNL     1       5.304   4.286  22.132  0.00  0.00    -0.334 OA
ATOM     30  C   UNL     1       6.654   4.627  22.463  0.00  0.00    +0.339 C 
ATOM     31  C   UNL     1       6.895   6.153  22.575  0.00  0.00    +0.214 C 
ATOM     32  C   UNL     1       5.762   6.886  23.310  0.00  0.00    +0.180 C 
ATOM     33  C   UNL     1       4.396   6.429  22.769  0.00  0.00    +0.174 C 
BRANCH  31  34
ATOM     34  O   UNL     1       6.989   6.670  21.230  0.00  0.00    -0.383 OA
ATOM     35  H   UNL     1       7.798   6.298  20.835  0.00  0.00    +0.210 HD
ENDBRANCH  31  34
BRANCH  32  36
ATOM     36  O   UNL     1       5.886   6.760  24.729  0.00  0.00    -0.386 OA
ATOM     37  H   UNL     1       6.826   6.756  24.985  0.00  0.00    +0.210 HD
ENDBRANCH  32  36
BRANCH  33  38
ATOM     38  O   UNL     1       3.313   7.108  23.397  0.00  0.00    -0.387 OA
ATOM     39  H   UNL     1       2.872   7.641  22.713  0.00  0.00    +0.210 HD
ENDBRANCH  33  38
ENDBRANCH  26  30
ENDBRANCH   1  26
TORSDOF 10
ENDMDL
MODEL 2
REMARK VINA RESULT:      -6.9      3.425      7.647
REMARK  Name = 
REMARK  11 active torsions:
REMARK  status: ('A' for Active; 'I' for Inactive)
REMARK    1  A    between atoms: C_1  and  C_2
REMARK    2  A    between atoms: C_4  and  O_37
REMARK    3  A    between atoms: C_6  and  O_36
REMARK    4  A    between atoms: C_8  and  O_35
REMARK    5  A    between atoms: C_10  and  O_13
REMARK    6  A    between atoms: O_13  and  C_14
REMARK    7  A    between atoms: C_15  and  C_27
REMARK    8  A    between atoms: C_19  and  O_26
REMARK    9  A    between atoms: C_21  and  O_25
REMARK   10  A    between atoms: C_29  and  O_34
REMARK   11  A    between atoms: C_30  and  O_33
REMARK                            x       y       z     vdW  Elec       q    Type
REMARK                         _______ _______ _______ _____ _____    ______ ____
ROOT
ATOM      1  C   UNL     1       6.592  -0.479  24.668  0.00  0.00    +0.214 A 
ATOM      2  C   UNL     1       5.642   0.665  24.904  0.00  0.00    +0.238 A 
ATOM      3  O   UNL     1       5.598   1.591  24.101  0.00  0.00    -0.283 OA
ATOM      4  C   UNL     1       4.817   0.642  26.128  0.00  0.00    +0.109 A 
ATOM      5  C   UNL     1       4.838  -0.528  26.883  0.00  0.00    +0.147 A 
ATOM      6  C   UNL     1       4.115  -0.611  28.078  0.00  0.00    +0.092 A 
ATOM      7  C   UNL     1       3.359   0.481  28.504  0.00  0.00    +0.124 A 
ATOM      8  C   UNL     1       3.319   1.646  27.763  0.00  0.00    +0.091 A 
ATOM      9  O   UNL     1       5.532  -1.651  26.505  0.00  0.00    -0.451 OA
ATOM     10  C   UNL     1       4.042   1.729  26.572  0.00  0.00    +0.135 A 
ATOM     11  C   UNL     1       6.427  -1.598  25.437  0.00  0.00    +0.181 A 
ENDROOT
BRANCH  11  12
ATOM     12  C   UNL     1       7.170  -2.902  25.314  0.00  0.00    +0.025 A 
ATOM     13  C   UNL     1       7.015  -3.744  24.203  0.00  0.00    +0.015 A 
ATOM     14  C   UNL     1       7.898  -4.807  23.949  0.00  0.00    +0.050 A 
ATOM     15  C   UNL     1       8.842  -5.148  24.897  0.00  0.00    +0.158 A 
ATOM     16  C   UNL     1       8.883  -4.461  26.102  0.00  0.00    +0.159 A 
ATOM     17  C   UNL     1       8.077  -3.334  26.309  0.00  0.00    +0.060 A 
BRANCH  15  18
ATOM     18  O   UNL     1       9.711  -6.168  24.643  0.00  0.00    -0.503 OA
ATOM     19  H   UNL     1       9.200  -6.981  24.822  0.00  0.00    +0.292 HD
ENDBRANCH  15  18
BRANCH  16  20
ATOM     20  O   UNL     1       9.751  -4.921  27.056  0.00  0.00    -0.503 OA
ATOM     21  H   UNL     1       9.285  -4.906  27.910  0.00  0.00    +0.292 HD
ENDBRANCH  16  20
ENDBRANCH  11  12
BRANCH   7  22
ATOM     22  O   UNL     1       2.657   0.453  29.673  0.00  0.00    -0.507 OA
ATOM     23  H   UNL     1       2.629  -0.456  30.014  0.00  0.00    +0.292 HD
ENDBRANCH   7  22
BRANCH  10  24
ATOM     24  O   UNL     1       3.994   2.898  25.863  0.00  0.00    -0.506 OA
ATOM     25  H   UNL     1       4.731   3.478  26.127  0.00  0.00    +0.292 HD
ENDBRANCH  10  24
BRANCH   1  26
ATOM     26  O   UNL     1       7.498  -0.217  23.647  0.00  0.00    -0.453 OA
BRANCH  26  30
ATOM     27  C   UNL     1       8.572   1.760  21.377  0.00  0.00    +0.041 C 
ATOM     28  C   UNL     1       9.790   1.261  22.156  0.00  0.00    +0.150 C 
ATOM     29  O   UNL     1       9.636  -0.036  22.711  0.00  0.00    -0.334 OA
ATOM     30  C   UNL     1       8.897  -0.191  23.928  0.00  0.00    +0.339 C 
ATOM     31  C   UNL     1       9.291   0.831  25.022  0.00  0.00    +0.214 C 
ATOM     32  C   UNL     1       9.491   2.252  24.472  0.00  0.00    +0.180 C 
ATOM     33  C   UNL     1      10.361   2.211  23.204  0.00  0.00    +0.174 C 
BRANCH  31  34
ATOM     34  O   UNL     1      10.532   0.377  25.603  0.00  0.00    -0.383 OA
ATOM     35  H   UNL     1      10.321  -0.380  26.177  0.00  0.00    +0.210 HD
ENDBRANCH  31  34
BRANCH  32  36
ATOM     36  O   UNL     1       8.244   2.927  24.288  0.00  0.00    -0.386 OA
ATOM     37  H   UNL     1       7.911   3.256  25.142  0.00  0.00    +0.210 HD
ENDBRANCH  32  36
BRANCH  33  38
ATOM     38  O   UNL     1      10.605   3.511  22.676  0.00  0.00    -0.387 OA
ATOM     39  H   UNL     1       9.852   4.072  22.931  0.00  0.00    +0.210 HD
ENDBRANCH  33  38
ENDBRANCH  26  30
ENDBRANCH   1  26
TORSDOF 10
ENDMDL
MODEL 3
REMARK VINA RESULT:      -6.9      3.066      4.947
REMARK  Name = 
REMARK  11 active torsions:
REMARK  status: ('A' for Active; 'I' for Inactive)
REMARK    1  A    between atoms: C_1  and  C_2
REMARK    2  A    between atoms: C_4  and  O_37
REMARK    3  A    between atoms: C_6  and  O_36
REMARK    4  A    between atoms: C_8  and  O_35
REMARK    5  A    between atoms: C_10  and  O_13
REMARK    6  A    between atoms: O_13  and  C_14
REMARK    7  A    between atoms: C_15  and  C_27
REMARK    8  A    between atoms: C_19  and  O_26
REMARK    9  A    between atoms: C_21  and  O_25
REMARK   10  A    between atoms: C_29  and  O_34
REMARK   11  A    between atoms: C_30  and  O_33
REMARK                            x       y       z     vdW  Elec       q    Type
REMARK                         _______ _______ _______ _____ _____    ______ ____
ROOT
ATOM      1  C   UNL     1       5.974  -0.813  24.869  0.00  0.00    +0.214 A 
ATOM      2  C   UNL     1       5.131  -1.838  25.581  0.00  0.00    +0.238 A 
ATOM      3  O   UNL     1       3.924  -1.654  25.696  0.00  0.00    -0.283 OA
ATOM      4  C   UNL     1       5.808  -3.020  26.150  0.00  0.00    +0.109 A 
ATOM      5  C   UNL     1       7.150  -3.198  25.825  0.00  0.00    +0.147 A 
ATOM      6  C   UNL     1       7.871  -4.271  26.360  0.00  0.00    +0.092 A 
ATOM      7  C   UNL     1       7.233  -5.175  27.211  0.00  0.00    +0.124 A 
ATOM      8  C   UNL     1       5.899  -5.019  27.536  0.00  0.00    +0.091 A 
ATOM      9  O   UNL     1       7.830  -2.369  24.967  0.00  0.00    -0.451 OA
ATOM     10  C   UNL     1       5.182  -3.946  27.004  0.00  0.00    +0.135 A 
ATOM     11  C   UNL     1       7.252  -1.173  24.540  0.00  0.00    +0.181 A 
ENDROOT
BRANCH  11  12
ATOM     12  C   UNL     1       8.242  -0.374  23.736  0.00  0.00    +0.025 A 
ATOM     13  C   UNL     1       8.299  -0.453  22.336  0.00  0.00    +0.015 A 
ATOM     14  C   UNL     1       9.015   0.482  21.569  0.00  0.00    +0.050 A 
ATOM     15  C   UNL     1       9.826   1.402  22.202  0.00  0.00    +0.158 A 
ATOM     16  C   UNL     1       9.952   1.370  23.584  0.00  0.00    +0.159 A 
ATOM     17  C   UNL     1       9.156   0.511  24.353  0.00  0.00    +0.060 A 
BRANCH  15  18
ATOM     18  O   UNL     1      10.507   2.321  21.458  0.00  0.00    -0.503 OA
ATOM     19  H   UNL     1      10.919   1.803  20.738  0.00  0.00    +0.292 HD
ENDBRANCH  15  18
BRANCH  16  20
ATOM     20  O   UNL     1      10.864   2.219  24.149  0.00  0.00    -0.503 OA
ATOM     21  H   UNL     1      10.977   2.974  23.546  0.00  0.00    +0.292 HD
ENDBRANCH  16  20
ENDBRANCH  11  12
BRANCH   7  22
ATOM     22  O   UNL     1       7.900  -6.223  27.773  0.00  0.00    -0.507 OA
ATOM     23  H   UNL     1       7.325  -6.666  28.419  0.00  0.00    +0.292 HD
ENDBRANCH   7  22
BRANCH  10  24
ATOM     24  O   UNL     1       3.866  -3.808  27.351  0.00  0.00    -0.506 OA
ATOM     25  H   UNL     1       3.365  -4.599  27.079  0.00  0.00    +0.292 HD
ENDBRANCH  10  24
BRANCH   1  26
ATOM     26  O   UNL     1       5.284   0.367  24.624  0.00  0.00    -0.453 OA
BRANCH  26  30
ATOM     27  C   UNL     1       6.233   2.687  22.640  0.00  0.00    +0.041 C 
ATOM     28  C   UNL     1       6.228   3.273  24.052  0.00  0.00    +0.150 C 
ATOM     29  O   UNL     1       6.483   2.326  25.078  0.00  0.00    -0.334 OA
ATOM     30  C   UNL     1       5.421   1.472  25.517  0.00  0.00    +0.339 C 
ATOM     31  C   UNL     1       4.095   2.224  25.783  0.00  0.00    +0.214 C 
ATOM     32  C   UNL     1       3.779   3.279  24.711  0.00  0.00    +0.180 C 
ATOM     33  C   UNL     1       5.025   4.134  24.426  0.00  0.00    +0.174 C 
BRANCH  31  34
ATOM     34  O   UNL     1       4.226   2.883  27.060  0.00  0.00    -0.383 OA
ATOM     35  H   UNL     1       4.666   3.737  26.900  0.00  0.00    +0.210 HD
ENDBRANCH  31  34
BRANCH  32  36
ATOM     36  O   UNL     1       3.211   2.688  23.539  0.00  0.00    -0.386 OA
ATOM     37  H   UNL     1       2.420   2.169  23.774  0.00  0.00    +0.210 HD
ENDBRANCH  32  36
BRANCH  33  38
ATOM     38  O   UNL     1       4.772   5.151  23.462  0.00  0.00    -0.387 OA
ATOM     39  H   UNL     1       4.760   6.001  23.936  0.00  0.00    +0.210 HD
ENDBRANCH  33  38
ENDBRANCH  26  30
ENDBRANCH   1  26
TORSDOF 10
ENDMDL
MODEL 4
REMARK VINA RESULT:      -6.8      3.707      6.849
REMARK  Name = 
REMARK  11 active torsions:
REMARK  status: ('A' for Active; 'I' for Inactive)
REMARK    1  A    between atoms: C_1  and  C_2
REMARK    2  A    between atoms: C_4  and  O_37
REMARK    3  A    between atoms: C_6  and  O_36
REMARK    4  A    between atoms: C_8  and  O_35
REMARK    5  A    between atoms: C_10  and  O_13
REMARK    6  A    between atoms: O_13  and  C_14
REMARK    7  A    between atoms: C_15  and  C_27
REMARK    8  A    between atoms: C_19  and  O_26
REMARK    9  A    between atoms: C_21  and  O_25
REMARK   10  A    between atoms: C_29  and  O_34
REMARK   11  A    between atoms: C_30  and  O_33
REMARK                            x       y       z     vdW  Elec       q    Type
REMARK                         _______ _______ _______ _____ _____    ______ ____
ROOT
ATOM      1  C   UNL     1       7.225  -1.824  23.985  0.00  0.00    +0.214 A 
ATOM      2  C   UNL     1       7.457  -3.039  23.127  0.00  0.00    +0.238 A 
ATOM      3  O   UNL     1       8.296  -2.997  22.233  0.00  0.00    -0.283 OA
ATOM      4  C   UNL     1       6.628  -4.235  23.376  0.00  0.00    +0.109 A 
ATOM      5  C   UNL     1       5.821  -4.220  24.511  0.00  0.00    +0.147 A 
ATOM      6  C   UNL     1       4.976  -5.299  24.792  0.00  0.00    +0.092 A 
ATOM      7  C   UNL     1       4.957  -6.401  23.936  0.00  0.00    +0.124 A 
ATOM      8  C   UNL     1       5.757  -6.436  22.811  0.00  0.00    +0.091 A 
ATOM      9  O   UNL     1       5.818  -3.185  25.414  0.00  0.00    -0.451 OA
ATOM     10  C   UNL     1       6.598  -5.358  22.530  0.00  0.00    +0.135 A 
ATOM     11  C   UNL     1       6.479  -1.993  25.120  0.00  0.00    +0.181 A 
ENDROOT
BRANCH  11  12
ATOM     12  C   UNL     1       6.204  -0.968  26.187  0.00  0.00    +0.025 A 
ATOM     13  C   UNL     1       4.912  -0.484  26.439  0.00  0.00    +0.015 A 
ATOM     14  C   UNL     1       4.607   0.249  27.598  0.00  0.00    +0.050 A 
ATOM     15  C   UNL     1       5.627   0.658  28.432  0.00  0.00    +0.158 A 
ATOM     16  C   UNL     1       6.943   0.371  28.097  0.00  0.00    +0.159 A 
ATOM     17  C   UNL     1       7.238  -0.452  27.002  0.00  0.00    +0.060 A 
BRANCH  15  18
ATOM     18  O   UNL     1       5.330   1.353  29.568  0.00  0.00    -0.503 OA
ATOM     19  H   UNL     1       5.956   2.104  29.570  0.00  0.00    +0.292 HD
ENDBRANCH  15  18
BRANCH  16  20
ATOM     20  O   UNL     1       7.922   0.907  28.890  0.00  0.00    -0.503 OA
ATOM     21  H   UNL     1       8.281   0.190  29.441  0.00  0.00    +0.292 HD
ENDBRANCH  16  20
ENDBRANCH  11  12
BRANCH   7  22
ATOM     22  O   UNL     1       4.133  -7.465  24.158  0.00  0.00    -0.507 OA
ATOM     23  H   UNL     1       3.464  -7.226  24.821  0.00  0.00    +0.292 HD
ENDBRANCH   7  22
BRANCH  10  24
ATOM     24  O   UNL     1       7.373  -5.414  21.403  0.00  0.00    -0.506 OA
ATOM     25  H   UNL     1       6.827  -5.239  20.615  0.00  0.00    +0.292 HD
ENDBRANCH  10  24
BRANCH   1  26
ATOM     26  O   UNL     1       7.856  -0.691  23.487  0.00  0.00    -0.453 OA
BRANCH  26  30
ATOM     27  C   UNL     1       8.644   1.518  21.315  0.00  0.00    +0.041 C 
ATOM     28  C   UNL     1       9.902   1.215  22.129  0.00  0.00    +0.150 C 
ATOM     29  O   UNL     1       9.960  -0.107  22.644  0.00  0.00    -0.334 OA
ATOM     30  C   UNL     1       9.217  -0.428  23.825  0.00  0.00    +0.339 C 
ATOM     31  C   UNL     1       9.386   0.610  24.961  0.00  0.00    +0.214 C 
ATOM     32  C   UNL     1       9.351   2.062  24.456  0.00  0.00    +0.180 C 
ATOM     33  C   UNL     1      10.259   2.216  23.224  0.00  0.00    +0.174 C 
BRANCH  31  34
ATOM     34  O   UNL     1      10.666   0.363  25.579  0.00  0.00    -0.383 OA
ATOM     35  H   UNL     1      11.291   0.138  24.867  0.00  0.00    +0.210 HD
ENDBRANCH  31  34
BRANCH  32  36
ATOM     36  O   UNL     1       8.012   2.513  24.239  0.00  0.00    -0.386 OA
ATOM     37  H   UNL     1       7.562   1.935  23.596  0.00  0.00    +0.210 HD
ENDBRANCH  32  36
BRANCH  33  38
ATOM     38  O   UNL     1      10.288   3.555  22.740  0.00  0.00    -0.387 OA
ATOM     39  H   UNL     1      11.200   3.739  22.455  0.00  0.00    +0.210 HD
ENDBRANCH  33  38
ENDBRANCH  26  30
ENDBRANCH   1  26
TORSDOF 10
ENDMDL
MODEL 5
REMARK VINA RESULT:      -6.8      3.809      8.509
REMARK  Name = 
REMARK  11 active torsions:
REMARK  status: ('A' for Active; 'I' for Inactive)
REMARK    1  A    between atoms: C_1  and  C_2
REMARK    2  A    between atoms: C_4  and  O_37
REMARK    3  A    between atoms: C_6  and  O_36
REMARK    4  A    between atoms: C_8  and  O_35
REMARK    5  A    between atoms: C_10  and  O_13
REMARK    6  A    between atoms: O_13  and  C_14
REMARK    7  A    between atoms: C_15  and  C_27
REMARK    8  A    between atoms: C_19  and  O_26
REMARK    9  A    between atoms: C_21  and  O_25
REMARK   10  A    between atoms: C_29  and  O_34
REMARK   11  A    between atoms: C_30  and  O_33
REMARK                            x       y       z     vdW  Elec       q    Type
REMARK                         _______ _______ _______ _____ _____    ______ ____
ROOT
ATOM      1  C   UNL     1       7.267  -1.400  24.964  0.00  0.00    +0.214 A 
ATOM      2  C   UNL     1       7.746  -0.050  25.428  0.00  0.00    +0.238 A 
ATOM      3  O   UNL     1       7.415   0.361  26.535  0.00  0.00    -0.283 OA
ATOM      4  C   UNL     1       8.575   0.750  24.504  0.00  0.00    +0.109 A 
ATOM      5  C   UNL     1       9.013   0.121  23.342  0.00  0.00    +0.147 A 
ATOM      6  C   UNL     1       9.767   0.825  22.398  0.00  0.00    +0.092 A 
ATOM      7  C   UNL     1      10.093   2.161  22.633  0.00  0.00    +0.124 A 
ATOM      8  C   UNL     1       9.674   2.799  23.785  0.00  0.00    +0.091 A 
ATOM      9  O   UNL     1       8.760  -1.201  23.064  0.00  0.00    -0.451 OA
ATOM     10  C   UNL     1       8.920   2.095  24.725  0.00  0.00    +0.135 A 
ATOM     11  C   UNL     1       7.861  -1.924  23.848  0.00  0.00    +0.181 A 
ENDROOT
BRANCH  11  12
ATOM     12  C   UNL     1       7.639  -3.291  23.258  0.00  0.00    +0.025 A 
ATOM     13  C   UNL     1       8.187  -4.447  23.834  0.00  0.00    +0.015 A 
ATOM     14  C   UNL     1       7.762  -5.734  23.462  0.00  0.00    +0.050 A 
ATOM     15  C   UNL     1       6.911  -5.885  22.387  0.00  0.00    +0.158 A 
ATOM     16  C   UNL     1       6.514  -4.768  21.664  0.00  0.00    +0.159 A 
ATOM     17  C   UNL     1       6.849  -3.480  22.101  0.00  0.00    +0.060 A 
BRANCH  15  18
ATOM     18  O   UNL     1       6.483  -7.132  22.037  0.00  0.00    -0.503 OA
ATOM     19  H   UNL     1       6.445  -7.117  21.060  0.00  0.00    +0.292 HD
ENDBRANCH  15  18
BRANCH  16  20
ATOM     20  O   UNL     1       5.774  -4.984  20.533  0.00  0.00    -0.503 OA
ATOM     21  H   UNL     1       6.278  -5.589  19.962  0.00  0.00    +0.292 HD
ENDBRANCH  16  20
ENDBRANCH  11  12
BRANCH   7  22
ATOM     22  O   UNL     1      10.806   2.894  21.731  0.00  0.00    -0.507 OA
ATOM     23  H   UNL     1      11.322   3.572  22.199  0.00  0.00    +0.292 HD
ENDBRANCH   7  22
BRANCH  10  24
ATOM     24  O   UNL     1       8.509   2.753  25.852  0.00  0.00    -0.506 OA
ATOM     25  H   UNL     1       9.219   2.747  26.520  0.00  0.00    +0.292 HD
ENDBRANCH  10  24
BRANCH   1  26
ATOM     26  O   UNL     1       6.286  -1.931  25.790  0.00  0.00    -0.453 OA
BRANCH  26  30
ATOM     27  C   UNL     1       4.912  -4.807  25.544  0.00  0.00    +0.041 C 
ATOM     28  C   UNL     1       3.820  -3.762  25.312  0.00  0.00    +0.150 C 
ATOM     29  O   UNL     1       4.285  -2.548  24.742  0.00  0.00    -0.334 OA
ATOM     30  C   UNL     1       4.918  -1.580  25.587  0.00  0.00    +0.339 C 
ATOM     31  C   UNL     1       4.144  -1.309  26.900  0.00  0.00    +0.214 C 
ATOM     32  C   UNL     1       3.599  -2.590  27.551  0.00  0.00    +0.180 C 
ATOM     33  C   UNL     1       2.902  -3.465  26.494  0.00  0.00    +0.174 C 
BRANCH  31  34
ATOM     34  O   UNL     1       3.036  -0.444  26.572  0.00  0.00    -0.383 OA
ATOM     35  H   UNL     1       2.747  -0.676  25.672  0.00  0.00    +0.210 HD
ENDBRANCH  31  34
BRANCH  32  36
ATOM     36  O   UNL     1       4.612  -3.280  28.287  0.00  0.00    -0.386 OA
ATOM     37  H   UNL     1       4.941  -4.041  27.773  0.00  0.00    +0.210 HD
ENDBRANCH  32  36
BRANCH  33  38
ATOM     38  O   UNL     1       2.348  -4.650  27.057  0.00  0.00    -0.387 OA
ATOM     39  H   UNL     1       2.984  -4.981  27.715  0.00  0.00    +0.210 HD
ENDBRANCH  33  38
ENDBRANCH  26  30
ENDBRANCH   1  26
TORSDOF 10
ENDMDL
MODEL 6
REMARK VINA RESULT:      -6.8      3.904      7.034
REMARK  Name = 
REMARK  11 active torsions:
REMARK  status: ('A' for Active; 'I' for Inactive)
REMARK    1  A    between atoms: C_1  and  C_2
REMARK    2  A    between atoms: C_4  and  O_37
REMARK    3  A    between atoms: C_6  and  O_36
REMARK    4  A    between atoms: C_8  and  O_35
REMARK    5  A    between atoms: C_10  and  O_13
REMARK    6  A    between atoms: O_13  and  C_14
REMARK    7  A    between atoms: C_15  and  C_27
REMARK    8  A    between atoms: C_19  and  O_26
REMARK    9  A    between atoms: C_21  and  O_25
REMARK   10  A    between atoms: C_29  and  O_34
REMARK   11  A    between atoms: C_30  and  O_33
REMARK                            x       y       z     vdW  Elec       q    Type
REMARK                         _______ _______ _______ _____ _____    ______ ____
ROOT
ATOM      1  C   UNL     1       7.507  -1.865  24.966  0.00  0.00    +0.214 A 
ATOM      2  C   UNL     1       7.835  -3.034  24.076  0.00  0.00    +0.238 A 
ATOM      3  O   UNL     1       8.843  -2.999  23.378  0.00  0.00    -0.283 OA
ATOM      4  C   UNL     1       6.898  -4.175  24.053  0.00  0.00    +0.109 A 
ATOM      5  C   UNL     1       5.875  -4.173  24.998  0.00  0.00    +0.147 A 
ATOM      6  C   UNL     1       4.923  -5.198  25.011  0.00  0.00    +0.092 A 
ATOM      7  C   UNL     1       5.012  -6.234  24.083  0.00  0.00    +0.124 A 
ATOM      8  C   UNL     1       6.027  -6.258  23.145  0.00  0.00    +0.091 A 
ATOM      9  O   UNL     1       5.748  -3.203  25.963  0.00  0.00    -0.451 OA
ATOM     10  C   UNL     1       6.974  -5.233  23.130  0.00  0.00    +0.135 A 
ATOM     11  C   UNL     1       6.530  -2.050  25.907  0.00  0.00    +0.181 A 
ENDROOT
BRANCH  11  12
ATOM     12  C   UNL     1       6.105  -1.079  26.976  0.00  0.00    +0.025 A 
ATOM     13  C   UNL     1       4.825  -1.119  27.549  0.00  0.00    +0.015 A 
ATOM     14  C   UNL     1       4.516  -0.413  28.725  0.00  0.00    +0.050 A 
ATOM     15  C   UNL     1       5.433   0.479  29.243  0.00  0.00    +0.158 A 
ATOM     16  C   UNL     1       6.632   0.695  28.577  0.00  0.00    +0.159 A 
ATOM     17  C   UNL     1       6.984  -0.087  27.469  0.00  0.00    +0.060 A 
BRANCH  15  18
ATOM     18  O   UNL     1       5.141   1.150  30.394  0.00  0.00    -0.503 OA
ATOM     19  H   UNL     1       5.694   0.724  31.078  0.00  0.00    +0.292 HD
ENDBRANCH  15  18
BRANCH  16  20
ATOM     20  O   UNL     1       7.449   1.680  29.062  0.00  0.00    -0.503 OA
ATOM     21  H   UNL     1       8.347   1.506  28.733  0.00  0.00    +0.292 HD
ENDBRANCH  16  20
ENDBRANCH  11  12
BRANCH   7  22
ATOM     22  O   UNL     1       4.095  -7.243  24.045  0.00  0.00    -0.507 OA
ATOM     23  H   UNL     1       4.053  -7.677  24.913  0.00  0.00    +0.292 HD
ENDBRANCH   7  22
BRANCH  10  24
ATOM     24  O   UNL     1       7.962  -5.275  22.184  0.00  0.00    -0.506 OA
ATOM     25  H   UNL     1       7.680  -5.827  21.432  0.00  0.00    +0.292 HD
ENDBRANCH  10  24
BRANCH   1  26
ATOM     26  O   UNL     1       8.298  -0.754  24.701  0.00  0.00    -0.453 OA
BRANCH  26  30
ATOM     27  C   UNL     1      10.869   1.082  24.214  0.00  0.00    +0.041 C 
ATOM     28  C   UNL     1       9.642   1.908  23.825  0.00  0.00    +0.150 C 
ATOM     29  O   UNL     1       8.463   1.576  24.541  0.00  0.00    -0.334 OA
ATOM     30  C   UNL     1       7.710   0.423  24.148  0.00  0.00    +0.339 C 
ATOM     31  C   UNL     1       7.467   0.337  22.622  0.00  0.00    +0.214 C 
ATOM     32  C   UNL     1       8.708   0.707  21.795  0.00  0.00    +0.180 C 
ATOM     33  C   UNL     1       9.335   2.005  22.333  0.00  0.00    +0.174 C 
BRANCH  31  34
ATOM     34  O   UNL     1       6.404   1.261  22.307  0.00  0.00    -0.383 OA
ATOM     35  H   UNL     1       6.731   1.844  21.599  0.00  0.00    +0.210 HD
ENDBRANCH  31  34
BRANCH  32  36
ATOM     36  O   UNL     1       9.631  -0.382  21.711  0.00  0.00    -0.386 OA
ATOM     37  H   UNL     1      10.297  -0.312  22.419  0.00  0.00    +0.210 HD
ENDBRANCH  32  36
BRANCH  33  38
ATOM     38  O   UNL     1      10.470   2.409  21.575  0.00  0.00    -0.387 OA
ATOM     39  H   UNL     1      11.045   1.630  21.478  0.00  0.00    +0.210 HD
ENDBRANCH  33  38
ENDBRANCH  26  30
ENDBRANCH   1  26
TORSDOF 10
ENDMDL
MODEL 7
REMARK VINA RESULT:      -6.7      3.742      8.895
REMARK  Name = 
REMARK  11 active torsions:
REMARK  status: ('A' for Active; 'I' for Inactive)
REMARK    1  A    between atoms: C_1  and  C_2
REMARK    2  A    between atoms: C_4  and  O_37
REMARK    3  A    between atoms: C_6  and  O_36
REMARK    4  A    between atoms: C_8  and  O_35
REMARK    5  A    between atoms: C_10  and  O_13
REMARK    6  A    between atoms: O_13  and  C_14
REMARK    7  A    between atoms: C_15  and  C_27
REMARK    8  A    between atoms: C_19  and  O_26
REMARK    9  A    between atoms: C_21  and  O_25
REMARK   10  A    between atoms: C_29  and  O_34
REMARK   11  A    between atoms: C_30  and  O_33
REMARK                            x       y       z     vdW  Elec       q    Type
REMARK                         _______ _______ _______ _____ _____    ______ ____
ROOT
ATOM      1  C   UNL     1       6.968  -1.301  24.881  0.00  0.00    +0.214 A 
ATOM      2  C   UNL     1       7.397   0.038  25.420  0.00  0.00    +0.238 A 
ATOM      3  O   UNL     1       6.931   0.439  26.481  0.00  0.00    -0.283 OA
ATOM      4  C   UNL     1       8.345   0.838  24.621  0.00  0.00    +0.109 A 
ATOM      5  C   UNL     1       8.923   0.218  23.516  0.00  0.00    +0.147 A 
ATOM      6  C   UNL     1       9.799   0.924  22.686  0.00  0.00    +0.092 A 
ATOM      7  C   UNL     1      10.106   2.253  22.978  0.00  0.00    +0.124 A 
ATOM      8  C   UNL     1       9.549   2.882  24.076  0.00  0.00    +0.091 A 
ATOM      9  O   UNL     1       8.694  -1.097  23.191  0.00  0.00    -0.451 OA
ATOM     10  C   UNL     1       8.673   2.177  24.902  0.00  0.00    +0.135 A 
ATOM     11  C   UNL     1       7.695  -1.819  23.844  0.00  0.00    +0.181 A 
ENDROOT
BRANCH  11  12
ATOM     12  C   UNL     1       7.535  -3.176  23.212  0.00  0.00    +0.025 A 
ATOM     13  C   UNL     1       8.157  -4.319  23.739  0.00  0.00    +0.015 A 
ATOM     14  C   UNL     1       7.795  -5.614  23.331  0.00  0.00    +0.050 A 
ATOM     15  C   UNL     1       6.933  -5.776  22.266  0.00  0.00    +0.158 A 
ATOM     16  C   UNL     1       6.462  -4.660  21.589  0.00  0.00    +0.159 A 
ATOM     17  C   UNL     1       6.735  -3.370  22.063  0.00  0.00    +0.060 A 
BRANCH  15  18
ATOM     18  O   UNL     1       6.567  -7.033  21.883  0.00  0.00    -0.503 OA
ATOM     19  H   UNL     1       6.408  -6.963  20.921  0.00  0.00    +0.292 HD
ENDBRANCH  15  18
BRANCH  16  20
ATOM     20  O   UNL     1       5.713  -4.879  20.465  0.00  0.00    -0.503 OA
ATOM     21  H   UNL     1       6.297  -5.275  19.794  0.00  0.00    +0.292 HD
ENDBRANCH  16  20
ENDBRANCH  11  12
BRANCH   7  22
ATOM     22  O   UNL     1      10.937   2.988  22.185  0.00  0.00    -0.507 OA
ATOM     23  H   UNL     1      11.186   3.807  22.646  0.00  0.00    +0.292 HD
ENDBRANCH   7  22
BRANCH  10  24
ATOM     24  O   UNL     1       8.128   2.826  25.976  0.00  0.00    -0.506 OA
ATOM     25  H   UNL     1       7.722   2.182  26.584  0.00  0.00    +0.292 HD
ENDBRANCH  10  24
BRANCH   1  26
ATOM     26  O   UNL     1       5.883  -1.830  25.568  0.00  0.00    -0.453 OA
BRANCH  26  30
ATOM     27  C   UNL     1       2.892  -2.627  26.366  0.00  0.00    +0.041 C 
ATOM     28  C   UNL     1       3.813  -3.178  27.454  0.00  0.00    +0.150 C 
ATOM     29  O   UNL     1       4.999  -2.424  27.653  0.00  0.00    -0.334 OA
ATOM     30  C   UNL     1       6.096  -2.601  26.749  0.00  0.00    +0.339 C 
ATOM     31  C   UNL     1       6.431  -4.086  26.469  0.00  0.00    +0.214 C 
ATOM     32  C   UNL     1       5.179  -4.955  26.267  0.00  0.00    +0.180 C 
ATOM     33  C   UNL     1       4.149  -4.664  27.371  0.00  0.00    +0.174 C 
BRANCH  31  34
ATOM     34  O   UNL     1       7.162  -4.582  27.610  0.00  0.00    -0.383 OA
ATOM     35  H   UNL     1       6.915  -5.516  27.727  0.00  0.00    +0.210 HD
ENDBRANCH  31  34
BRANCH  32  36
ATOM     36  O   UNL     1       4.652  -4.822  24.944  0.00  0.00    -0.386 OA
ATOM     37  H   UNL     1       4.256  -5.663  24.654  0.00  0.00    +0.210 HD
ENDBRANCH  32  36
BRANCH  33  38
ATOM     38  O   UNL     1       2.983  -5.473  27.246  0.00  0.00    -0.387 OA
ATOM     39  H   UNL     1       2.535  -5.469  28.111  0.00  0.00    +0.210 HD
ENDBRANCH  33  38
ENDBRANCH  26  30
ENDBRANCH   1  26
TORSDOF 10
ENDMDL
MODEL 8
REMARK VINA RESULT:      -6.7      3.447      6.719
REMARK  Name = 
REMARK  11 active torsions:
REMARK  status: ('A' for Active; 'I' for Inactive)
REMARK    1  A    between atoms: C_1  and  C_2
REMARK    2  A    between atoms: C_4  and  O_37
REMARK    3  A    between atoms: C_6  and  O_36
REMARK    4  A    between atoms: C_8  and  O_35
REMARK    5  A    between atoms: C_10  and  O_13
REMARK    6  A    between atoms: O_13  and  C_14
REMARK    7  A    between atoms: C_15  and  C_27
REMARK    8  A    between atoms: C_19  and  O_26
REMARK    9  A    between atoms: C_21  and  O_25
REMARK   10  A    between atoms: C_29  and  O_34
REMARK   11  A    between atoms: C_30  and  O_33
REMARK                            x       y       z     vdW  Elec       q    Type
REMARK                         _______ _______ _______ _____ _____    ______ ____
ROOT
ATOM      1  C   UNL     1       7.180  -1.776  23.772  0.00  0.00    +0.214 A 
ATOM      2  C   UNL     1       7.456  -3.042  23.006  0.00  0.00    +0.238 A 
ATOM      3  O   UNL     1       8.352  -3.059  22.168  0.00  0.00    -0.283 OA
ATOM      4  C   UNL     1       6.602  -4.216  23.272  0.00  0.00    +0.109 A 
ATOM      5  C   UNL     1       5.723  -4.128  24.349  0.00  0.00    +0.147 A 
ATOM      6  C   UNL     1       4.851  -5.183  24.638  0.00  0.00    +0.092 A 
ATOM      7  C   UNL     1       4.876  -6.334  23.852  0.00  0.00    +0.124 A 
ATOM      8  C   UNL     1       5.749  -6.443  22.786  0.00  0.00    +0.091 A 
ATOM      9  O   UNL     1       5.670  -3.039  25.185  0.00  0.00    -0.451 OA
ATOM     10  C   UNL     1       6.616  -5.389  22.496  0.00  0.00    +0.135 A 
ATOM     11  C   UNL     1       6.360  -1.871  24.863  0.00  0.00    +0.181 A 
ENDROOT
BRANCH  11  12
ATOM     12  C   UNL     1       6.026  -0.780  25.845  0.00  0.00    +0.025 A 
ATOM     13  C   UNL     1       6.499  -0.800  27.166  0.00  0.00    +0.015 A 
ATOM     14  C   UNL     1       6.429   0.332  27.996  0.00  0.00    +0.050 A 
ATOM     15  C   UNL     1       5.727   1.442  27.574  0.00  0.00    +0.158 A 
ATOM     16  C   UNL     1       5.070   1.414  26.352  0.00  0.00    +0.159 A 
ATOM     17  C   UNL     1       5.230   0.330  25.480  0.00  0.00    +0.060 A 
BRANCH  15  18
ATOM     18  O   UNL     1       5.675   2.548  28.371  0.00  0.00    -0.503 OA
ATOM     19  H   UNL     1       4.737   2.619  28.636  0.00  0.00    +0.292 HD
ENDBRANCH  15  18
BRANCH  16  20
ATOM     20  O   UNL     1       4.285   2.491  26.037  0.00  0.00    -0.503 OA
ATOM     21  H   UNL     1       4.846   3.285  26.077  0.00  0.00    +0.292 HD
ENDBRANCH  16  20
ENDBRANCH  11  12
BRANCH   7  22
ATOM     22  O   UNL     1       4.031  -7.379  24.083  0.00  0.00    -0.507 OA
ATOM     23  H   UNL     1       4.528  -8.121  24.465  0.00  0.00    +0.292 HD
ENDBRANCH   7  22
BRANCH  10  24
ATOM     24  O   UNL     1       7.462  -5.518  21.428  0.00  0.00    -0.506 OA
ATOM     25  H   UNL     1       7.738  -4.638  21.114  0.00  0.00    +0.292 HD
ENDBRANCH  10  24
BRANCH   1  26
ATOM     26  O   UNL     1       7.853  -0.679  23.249  0.00  0.00    -0.453 OA
BRANCH  26  30
ATOM     27  C   UNL     1       8.668   1.713  21.290  0.00  0.00    +0.041 C 
ATOM     28  C   UNL     1       9.874   1.431  22.187  0.00  0.00    +0.150 C 
ATOM     29  O   UNL     1       9.976   0.084  22.622  0.00  0.00    -0.334 OA
ATOM     30  C   UNL     1       9.163  -0.359  23.715  0.00  0.00    +0.339 C 
ATOM     31  C   UNL     1       9.173   0.610  24.922  0.00  0.00    +0.214 C 
ATOM     32  C   UNL     1       9.086   2.087  24.507  0.00  0.00    +0.180 C 
ATOM     33  C   UNL     1      10.077   2.376  23.367  0.00  0.00    +0.174 C 
BRANCH  31  34
ATOM     34  O   UNL     1      10.413   0.398  25.630  0.00  0.00    -0.383 OA
ATOM     35  H   UNL     1      10.585  -0.561  25.628  0.00  0.00    +0.210 HD
ENDBRANCH  31  34
BRANCH  32  36
ATOM     36  O   UNL     1       7.741   2.471  24.206  0.00  0.00    -0.386 OA
ATOM     37  H   UNL     1       7.115   1.958  24.749  0.00  0.00    +0.210 HD
ENDBRANCH  32  36
BRANCH  33  38
ATOM     38  O   UNL     1      10.058   3.744  22.971  0.00  0.00    -0.387 OA
ATOM     39  H   UNL     1      10.100   4.280  23.782  0.00  0.00    +0.210 HD
ENDBRANCH  33  38
ENDBRANCH  26  30
ENDBRANCH   1  26
TORSDOF 10
ENDMDL
MODEL 9
REMARK VINA RESULT:      -6.7      3.660      7.057
REMARK  Name = 
REMARK  11 active torsions:
REMARK  status: ('A' for Active; 'I' for Inactive)
REMARK    1  A    between atoms: C_1  and  C_2
REMARK    2  A    between atoms: C_4  and  O_37
REMARK    3  A    between atoms: C_6  and  O_36
REMARK    4  A    between atoms: C_8  and  O_35
REMARK    5  A    between atoms: C_10  and  O_13
REMARK    6  A    between atoms: O_13  and  C_14
REMARK    7  A    between atoms: C_15  and  C_27
REMARK    8  A    between atoms: C_19  and  O_26
REMARK    9  A    between atoms: C_21  and  O_25
REMARK   10  A    between atoms: C_29  and  O_34
REMARK   11  A    between atoms: C_30  and  O_33
REMARK                            x       y       z     vdW  Elec       q    Type
REMARK                         _______ _______ _______ _____ _____    ______ ____
ROOT
ATOM      1  C   UNL     1       7.554  -1.597  25.904  0.00  0.00    +0.214 A 
ATOM      2  C   UNL     1       7.910  -3.005  26.301  0.00  0.00    +0.238 A 
ATOM      3  O   UNL     1       9.033  -3.436  26.060  0.00  0.00    -0.283 OA
ATOM      4  C   UNL     1       6.868  -3.832  26.941  0.00  0.00    +0.109 A 
ATOM      5  C   UNL     1       5.686  -3.191  27.305  0.00  0.00    +0.147 A 
ATOM      6  C   UNL     1       4.636  -3.916  27.877  0.00  0.00    +0.092 A 
ATOM      7  C   UNL     1       4.782  -5.285  28.098  0.00  0.00    +0.124 A 
ATOM      8  C   UNL     1       5.952  -5.936  27.753  0.00  0.00    +0.091 A 
ATOM      9  O   UNL     1       5.488  -1.841  27.148  0.00  0.00    -0.451 OA
ATOM     10  C   UNL     1       6.998  -5.212  27.180  0.00  0.00    +0.135 A 
ATOM     11  C   UNL     1       6.397  -1.077  26.416  0.00  0.00    +0.181 A 
ENDROOT
BRANCH  11  12
ATOM     12  C   UNL     1       5.887   0.331  26.260  0.00  0.00    +0.025 A 
ATOM     13  C   UNL     1       6.185   1.337  27.191  0.00  0.00    +0.015 A 
ATOM     14  C   UNL     1       5.955   2.695  26.914  0.00  0.00    +0.050 A 
ATOM     15  C   UNL     1       5.262   3.049  25.774  0.00  0.00    +0.158 A 
ATOM     16  C   UNL     1       4.770   2.058  24.935  0.00  0.00    +0.159 A 
ATOM     17  C   UNL     1       5.094   0.713  25.153  0.00  0.00    +0.060 A 
BRANCH  15  18
ATOM     18  O   UNL     1       5.054   4.368  25.496  0.00  0.00    -0.503 OA
ATOM     19  H   UNL     1       5.236   4.832  26.337  0.00  0.00    +0.292 HD
ENDBRANCH  15  18
BRANCH  16  20
ATOM     20  O   UNL     1       3.983   2.458  23.889  0.00  0.00    -0.503 OA
ATOM     21  H   UNL     1       4.506   2.364  23.074  0.00  0.00    +0.292 HD
ENDBRANCH  16  20
ENDBRANCH  11  12
BRANCH   7  22
ATOM     22  O   UNL     1       3.778  -6.037  28.633  0.00  0.00    -0.507 OA
ATOM     23  H   UNL     1       3.962  -6.205  29.573  0.00  0.00    +0.292 HD
ENDBRANCH   7  22
BRANCH  10  24
ATOM     24  O   UNL     1       8.141  -5.883  26.837  0.00  0.00    -0.506 OA
ATOM     25  H   UNL     1       8.921  -5.332  27.030  0.00  0.00    +0.292 HD
ENDBRANCH  10  24
BRANCH   1  26
ATOM     26  O   UNL     1       8.508  -1.019  25.077  0.00  0.00    -0.453 OA
BRANCH  26  30
ATOM     27  C   UNL     1       8.398   2.022  24.100  0.00  0.00    +0.041 C 
ATOM     28  C   UNL     1       8.243   1.143  22.859  0.00  0.00    +0.150 C 
ATOM     29  O   UNL     1       7.628  -0.113  23.106  0.00  0.00    -0.334 OA
ATOM     30  C   UNL     1       8.411  -1.175  23.661  0.00  0.00    +0.339 C 
ATOM     31  C   UNL     1       9.779  -1.363  22.962  0.00  0.00    +0.214 C 
ATOM     32  C   UNL     1      10.482  -0.032  22.651  0.00  0.00    +0.180 C 
ATOM     33  C   UNL     1       9.492   0.951  22.003  0.00  0.00    +0.174 C 
BRANCH  31  34
ATOM     34  O   UNL     1       9.532  -2.060  21.723  0.00  0.00    -0.383 OA
ATOM     35  H   UNL     1       8.621  -1.852  21.452  0.00  0.00    +0.210 HD
ENDBRANCH  31  34
BRANCH  32  36
ATOM     36  O   UNL     1      11.141   0.498  23.804  0.00  0.00    -0.386 OA
ATOM     37  H   UNL     1      10.769   1.368  24.034  0.00  0.00    +0.210 HD
ENDBRANCH  32  36
BRANCH  33  38
ATOM     38  O   UNL     1      10.107   2.189  21.664  0.00  0.00    -0.387 OA
ATOM     39  H   UNL     1      11.069   2.069  21.755  0.00  0.00    +0.210 HD
ENDBRANCH  33  38
ENDBRANCH  26  30
ENDBRANCH   1  26
TORSDOF 10
ENDMDL
