MODEL 1
REMARK VINA RESULT:      -7.1      0.000      0.000
REMARK  Name = 
REMARK  17 active torsions:
REMARK  status: ('A' for Active; 'I' for Inactive)
REMARK    1  A    between atoms: C_1  and  C_2
REMARK    2  A    between atoms: C_4  and  O_53
REMARK    3  A    between atoms: C_6  and  O_52
REMARK    4  A    between atoms: C_8  and  O_51
REMARK    5  A    between atoms: C_10  and  O_13
REMARK    6  A    between atoms: O_13  and  C_14
REMARK    7  A    between atoms: C_16  and  O_50
REMARK    8  A    between atoms: C_18  and  O_49
REMARK    9  A    between atoms: C_20  and  C_47
REMARK   10  A    between atoms: C_23  and  O_25
REMARK   11  A    between atoms: O_25  and  C_26
REMARK   12  A    between atoms: C_27  and  C_39
REMARK   13  A    between atoms: C_31  and  O_38
REMARK   14  A    between atoms: C_33  and  O_37
REMARK   15  A    between atoms: C_41  and  O_46
REMARK   16  A    between atoms: C_42  and  O_45
REMARK   17  A    between atoms: C_47  and  O_48
REMARK                            x       y       z     vdW  Elec       q    Type
REMARK                         _______ _______ _______ _____ _____    ______ ____
ROOT
ATOM      1  C   UNL     1       4.768  -2.076  26.313  0.00  0.00    +0.221 C 
ATOM      2  C   UNL     1       5.162  -0.726  25.660  0.00  0.00    +0.340 C 
ATOM      3  O   UNL     1       5.878   0.062  26.635  0.00  0.00    -0.331 OA
ATOM      4  C   UNL     1       4.941   0.505  27.644  0.00  0.00    +0.179 C 
ATOM      5  C   UNL     1       4.588  -0.709  28.511  0.00  0.00    +0.177 C 
ATOM      6  C   UNL     1       3.967  -1.788  27.610  0.00  0.00    +0.180 C 
ENDROOT
BRANCH   6   7
ATOM      7  O   UNL     1       3.753  -2.978  28.378  0.00  0.00    -0.386 OA
ATOM      8  H   UNL     1       3.162  -2.742  29.120  0.00  0.00    +0.210 HD
ENDBRANCH   6   7
BRANCH   5   9
ATOM      9  O   UNL     1       3.629  -0.361  29.523  0.00  0.00    -0.386 OA
ATOM     10  H   UNL     1       3.442  -1.195  29.999  0.00  0.00    +0.210 HD
ENDBRANCH   5   9
BRANCH   4  11
ATOM     11  C   UNL     1       5.461   1.698  28.450  0.00  0.00    +0.190 C 
BRANCH  11  12
ATOM     12  O   UNL     1       6.058   1.283  29.681  0.00  0.00    -0.392 OA
ATOM     13  H   UNL     1       5.327   1.048  30.293  0.00  0.00    +0.210 HD
ENDBRANCH  11  12
ENDBRANCH   4  11
BRANCH   2  14
ATOM     14  O   UNL     1       5.849  -0.889  24.403  0.00  0.00    -0.453 OA
BRANCH  14  15
ATOM     15  C   UNL     1       7.041  -0.175  24.212  0.00  0.00    +0.214 A 
ATOM     16  C   UNL     1       7.015   1.194  23.549  0.00  0.00    +0.238 A 
ATOM     17  O   UNL     1       6.020   1.614  22.968  0.00  0.00    -0.283 OA
ATOM     18  C   UNL     1       8.224   2.006  23.528  0.00  0.00    +0.109 A 
ATOM     19  C   UNL     1       9.384   1.424  23.998  0.00  0.00    +0.147 A 
ATOM     20  C   UNL     1      10.574   2.156  24.031  0.00  0.00    +0.092 A 
ATOM     21  C   UNL     1      10.582   3.473  23.580  0.00  0.00    +0.124 A 
ATOM     22  C   UNL     1       9.432   4.060  23.070  0.00  0.00    +0.091 A 
ATOM     23  O   UNL     1       9.440   0.124  24.407  0.00  0.00    -0.451 OA
ATOM     24  C   UNL     1       8.251   3.322  23.037  0.00  0.00    +0.135 A 
ATOM     25  C   UNL     1       8.284  -0.658  24.521  0.00  0.00    +0.181 A 
BRANCH  25  26
ATOM     26  C   UNL     1       8.672  -2.063  24.947  0.00  0.00    +0.025 A 
ATOM     27  C   UNL     1       9.626  -2.776  24.169  0.00  0.00    +0.015 A 
ATOM     28  C   UNL     1       9.973  -4.113  24.419  0.00  0.00    +0.050 A 
ATOM     29  C   UNL     1       9.372  -4.769  25.472  0.00  0.00    +0.158 A 
ATOM     30  C   UNL     1       8.454  -4.101  26.273  0.00  0.00    +0.159 A 
ATOM     31  C   UNL     1       8.098  -2.769  26.020  0.00  0.00    +0.060 A 
BRANCH  29  32
ATOM     32  O   UNL     1       9.679  -6.080  25.706  0.00  0.00    -0.503 OA
ATOM     33  H   UNL     1      10.549  -6.208  25.277  0.00  0.00    +0.292 HD
ENDBRANCH  29  32
BRANCH  30  34
ATOM     34  O   UNL     1       7.908  -4.812  27.312  0.00  0.00    -0.503 OA
ATOM     35  H   UNL     1       8.147  -5.746  27.186  0.00  0.00    +0.292 HD
ENDBRANCH  30  34
ENDBRANCH  25  26
BRANCH  24  36
ATOM     36  O   UNL     1       7.133   3.908  22.515  0.00  0.00    -0.506 OA
ATOM     37  H   UNL     1       6.543   4.216  23.222  0.00  0.00    +0.292 HD
ENDBRANCH  24  36
BRANCH  21  38
ATOM     38  O   UNL     1      11.708   4.238  23.611  0.00  0.00    -0.507 OA
ATOM     39  H   UNL     1      12.013   4.393  22.704  0.00  0.00    +0.292 HD
ENDBRANCH  21  38
ENDBRANCH  14  15
ENDBRANCH   2  14
BRANCH   1  40
ATOM     40  O   UNL     1       4.069  -3.009  25.451  0.00  0.00    -0.337 OA
BRANCH  40  44
ATOM     41  C   UNL     1       7.104  -4.584  22.176  0.00  0.00    +0.041 C 
ATOM     42  C   UNL     1       6.318  -5.011  23.407  0.00  0.00    +0.149 C 
ATOM     43  O   UNL     1       5.489  -3.906  23.820  0.00  0.00    -0.343 OA
ATOM     44  C   UNL     1       4.747  -4.197  25.020  0.00  0.00    +0.282 C 
ATOM     45  C   UNL     1       3.819  -5.396  24.755  0.00  0.00    +0.201 C 
ATOM     46  C   UNL     1       4.644  -6.606  24.363  0.00  0.00    +0.179 C 
ATOM     47  C   UNL     1       5.482  -6.278  23.126  0.00  0.00    +0.174 C 
BRANCH  47  48
ATOM     48  O   UNL     1       4.635  -6.086  21.987  0.00  0.00    -0.387 OA
ATOM     49  H   UNL     1       4.448  -5.122  21.935  0.00  0.00    +0.210 HD
ENDBRANCH  47  48
BRANCH  46  50
ATOM     50  O   UNL     1       3.727  -7.689  24.152  0.00  0.00    -0.386 OA
ATOM     51  H   UNL     1       3.683  -8.208  24.973  0.00  0.00    +0.210 HD
ENDBRANCH  46  50
BRANCH  45  52
ATOM     52  O   UNL     1       2.876  -5.094  23.719  0.00  0.00    -0.384 OA
ATOM     53  H   UNL     1       3.240  -4.311  23.255  0.00  0.00    +0.210 HD
ENDBRANCH  45  52
ENDBRANCH  40  44
ENDBRANCH   1  40
TORSDOF 16
ENDMDL
MODEL 2
REMARK VINA RESULT:      -7.0      1.126      1.660
REMARK  Name = 
REMARK  17 active torsions:
REMARK  status: ('A' for Active; 'I' for Inactive)
REMARK    1  A    between atoms: C_1  and  C_2
REMARK    2  A    between atoms: C_4  and  O_53
REMARK    3  A    between atoms: C_6  and  O_52
REMARK    4  A    between atoms: C_8  and  O_51
REMARK    5  A    between atoms: C_10  and  O_13
REMARK    6  A    between atoms: O_13  and  C_14
REMARK    7  A    between atoms: C_16  and  O_50
REMARK    8  A    between atoms: C_18  and  O_49
REMARK    9  A    between atoms: C_20  and  C_47
REMARK   10  A    between atoms: C_23  and  O_25
REMARK   11  A    between atoms: O_25  and  C_26
REMARK   12  A    between atoms: C_27  and  C_39
REMARK   13  A    between atoms: C_31  and  O_38
REMARK   14  A    between atoms: C_33  and  O_37
REMARK   15  A    between atoms: C_41  and  O_46
REMARK   16  A    between atoms: C_42  and  O_45
REMARK   17  A    between atoms: C_47  and  O_48
REMARK                            x       y       z     vdW  Elec       q    Type
REMARK                         _______ _______ _______ _____ _____    ______ ____
ROOT
ATOM      1  C   UNL     1       4.148  -1.695  26.804  0.00  0.00    +0.221 C 
ATOM      2  C   UNL     1       5.072  -0.568  26.276  0.00  0.00    +0.340 C 
ATOM      3  O   UNL     1       6.017  -0.228  27.313  0.00  0.00    -0.331 OA
ATOM      4  C   UNL     1       5.308   0.465  28.368  0.00  0.00    +0.179 C 
ATOM      5  C   UNL     1       4.470  -0.574  29.121  0.00  0.00    +0.177 C 
ATOM      6  C   UNL     1       3.493  -1.224  28.129  0.00  0.00    +0.180 C 
ENDROOT
BRANCH   6   7
ATOM      7  O   UNL     1       2.794  -2.289  28.784  0.00  0.00    -0.386 OA
ATOM      8  H   UNL     1       2.671  -2.023  29.718  0.00  0.00    +0.210 HD
ENDBRANCH   6   7
BRANCH   5   9
ATOM      9  O   UNL     1       3.704   0.042  30.169  0.00  0.00    -0.386 OA
ATOM     10  H   UNL     1       3.871  -0.504  30.965  0.00  0.00    +0.210 HD
ENDBRANCH   5   9
BRANCH   4  11
ATOM     11  C   UNL     1       6.242   1.269  29.277  0.00  0.00    +0.190 C 
BRANCH  11  12
ATOM     12  O   UNL     1       7.566   1.342  28.741  0.00  0.00    -0.392 OA
ATOM     13  H   UNL     1       8.188   1.305  29.500  0.00  0.00    +0.210 HD
ENDBRANCH  11  12
ENDBRANCH   4  11
BRANCH   2  14
ATOM     14  O   UNL     1       5.672  -0.883  25.003  0.00  0.00    -0.453 OA
BRANCH  14  15
ATOM     15  C   UNL     1       6.860  -0.221  24.659  0.00  0.00    +0.214 A 
ATOM     16  C   UNL     1       6.809   1.158  24.018  0.00  0.00    +0.238 A 
ATOM     17  O   UNL     1       5.765   1.632  23.582  0.00  0.00    -0.283 OA
ATOM     18  C   UNL     1       8.041   1.914  23.841  0.00  0.00    +0.109 A 
ATOM     19  C   UNL     1       9.225   1.273  24.142  0.00  0.00    +0.147 A 
ATOM     20  C   UNL     1      10.442   1.950  24.020  0.00  0.00    +0.092 A 
ATOM     21  C   UNL     1      10.450   3.272  23.585  0.00  0.00    +0.124 A 
ATOM     22  C   UNL     1       9.270   3.919  23.242  0.00  0.00    +0.091 A 
ATOM     23  O   UNL     1       9.275  -0.035  24.527  0.00  0.00    -0.451 OA
ATOM     24  C   UNL     1       8.063   3.236  23.363  0.00  0.00    +0.135 A 
ATOM     25  C   UNL     1       8.109  -0.765  24.791  0.00  0.00    +0.181 A 
BRANCH  25  26
ATOM     26  C   UNL     1       8.484  -2.193  25.146  0.00  0.00    +0.025 A 
ATOM     27  C   UNL     1       9.429  -2.876  24.330  0.00  0.00    +0.015 A 
ATOM     28  C   UNL     1       9.763  -4.227  24.514  0.00  0.00    +0.050 A 
ATOM     29  C   UNL     1       9.160  -4.928  25.535  0.00  0.00    +0.158 A 
ATOM     30  C   UNL     1       8.251  -4.290  26.372  0.00  0.00    +0.159 A 
ATOM     31  C   UNL     1       7.907  -2.945  26.185  0.00  0.00    +0.060 A 
BRANCH  29  32
ATOM     32  O   UNL     1       9.455  -6.251  25.705  0.00  0.00    -0.503 OA
ATOM     33  H   UNL     1      10.151  -6.434  25.042  0.00  0.00    +0.292 HD
ENDBRANCH  29  32
BRANCH  30  34
ATOM     34  O   UNL     1       7.701  -5.046  27.377  0.00  0.00    -0.503 OA
ATOM     35  H   UNL     1       6.796  -5.278  27.108  0.00  0.00    +0.292 HD
ENDBRANCH  30  34
ENDBRANCH  25  26
BRANCH  24  36
ATOM     36  O   UNL     1       6.913   3.880  23.004  0.00  0.00    -0.506 OA
ATOM     37  H   UNL     1       6.946   4.151  22.073  0.00  0.00    +0.292 HD
ENDBRANCH  24  36
BRANCH  21  38
ATOM     38  O   UNL     1      11.604   3.985  23.469  0.00  0.00    -0.507 OA
ATOM     39  H   UNL     1      12.359   3.376  23.485  0.00  0.00    +0.292 HD
ENDBRANCH  21  38
ENDBRANCH  14  15
ENDBRANCH   2  14
BRANCH   1  40
ATOM     40  O   UNL     1       3.158  -2.185  25.864  0.00  0.00    -0.337 OA
BRANCH  40  44
ATOM     41  C   UNL     1       4.468  -6.422  27.522  0.00  0.00    +0.041 C 
ATOM     42  C   UNL     1       3.755  -5.739  26.363  0.00  0.00    +0.149 C 
ATOM     43  O   UNL     1       3.849  -4.313  26.551  0.00  0.00    -0.343 OA
ATOM     44  C   UNL     1       3.149  -3.579  25.529  0.00  0.00    +0.282 C 
ATOM     45  C   UNL     1       3.776  -3.906  24.161  0.00  0.00    +0.201 C 
ATOM     46  C   UNL     1       3.661  -5.393  23.887  0.00  0.00    +0.179 C 
ATOM     47  C   UNL     1       4.348  -6.177  25.006  0.00  0.00    +0.174 C 
BRANCH  47  48
ATOM     48  O   UNL     1       5.762  -5.955  24.974  0.00  0.00    -0.387 OA
ATOM     49  H   UNL     1       6.039  -6.036  24.034  0.00  0.00    +0.210 HD
ENDBRANCH  47  48
BRANCH  46  50
ATOM     50  O   UNL     1       4.239  -5.628  22.596  0.00  0.00    -0.386 OA
ATOM     51  H   UNL     1       4.358  -4.768  22.160  0.00  0.00    +0.210 HD
ENDBRANCH  46  50
BRANCH  45  52
ATOM     52  O   UNL     1       5.152  -3.510  24.121  0.00  0.00    -0.384 OA
ATOM     53  H   UNL     1       5.609  -4.205  23.602  0.00  0.00    +0.210 HD
ENDBRANCH  45  52
ENDBRANCH  40  44
ENDBRANCH   1  40
TORSDOF 16
ENDMDL
MODEL 3
REMARK VINA RESULT:      -6.7      2.168      7.478
REMARK  Name = 
REMARK  17 active torsions:
REMARK  status: ('A' for Active; 'I' for Inactive)
REMARK    1  A    between atoms: C_1  and  C_2
REMARK    2  A    between atoms: C_4  and  O_53
REMARK    3  A    between atoms: C_6  and  O_52
REMARK    4  A    between atoms: C_8  and  O_51
REMARK    5  A    between atoms: C_10  and  O_13
REMARK    6  A    between atoms: O_13  and  C_14
REMARK    7  A    between atoms: C_16  and  O_50
REMARK    8  A    between atoms: C_18  and  O_49
REMARK    9  A    between atoms: C_20  and  C_47
REMARK   10  A    between atoms: C_23  and  O_25
REMARK   11  A    between atoms: O_25  and  C_26
REMARK   12  A    between atoms: C_27  and  C_39
REMARK   13  A    between atoms: C_31  and  O_38
REMARK   14  A    between atoms: C_33  and  O_37
REMARK   15  A    between atoms: C_41  and  O_46
REMARK   16  A    between atoms: C_42  and  O_45
REMARK   17  A    between atoms: C_47  and  O_48
REMARK                            x       y       z     vdW  Elec       q    Type
REMARK                         _______ _______ _______ _____ _____    ______ ____
ROOT
ATOM      1  C   UNL     1       6.486   1.969  26.613  0.00  0.00    +0.221 C 
ATOM      2  C   UNL     1       5.942   0.541  26.352  0.00  0.00    +0.340 C 
ATOM      3  O   UNL     1       4.813   0.316  27.223  0.00  0.00    -0.331 OA
ATOM      4  C   UNL     1       5.300   0.184  28.579  0.00  0.00    +0.179 C 
ATOM      5  C   UNL     1       5.714   1.580  29.059  0.00  0.00    +0.177 C 
ATOM      6  C   UNL     1       6.810   2.111  28.123  0.00  0.00    +0.180 C 
ENDROOT
BRANCH   6   7
ATOM      7  O   UNL     1       7.116   3.466  28.475  0.00  0.00    -0.386 OA
ATOM      8  H   UNL     1       8.084   3.576  28.393  0.00  0.00    +0.210 HD
ENDBRANCH   6   7
BRANCH   5   9
ATOM      9  O   UNL     1       6.245   1.531  30.393  0.00  0.00    -0.386 OA
ATOM     10  H   UNL     1       6.913   2.246  30.431  0.00  0.00    +0.210 HD
ENDBRANCH   5   9
BRANCH   4  11
ATOM     11  C   UNL     1       4.292  -0.504  29.505  0.00  0.00    +0.190 C 
BRANCH  11  12
ATOM     12  O   UNL     1       3.523   0.447  30.246  0.00  0.00    -0.392 OA
ATOM     13  H   UNL     1       4.150   0.947  30.813  0.00  0.00    +0.210 HD
ENDBRANCH  11  12
ENDBRANCH   4  11
BRANCH   2  14
ATOM     14  O   UNL     1       5.679   0.285  24.957  0.00  0.00    -0.453 OA
BRANCH  14  15
ATOM     15  C   UNL     1       6.054  -0.963  24.440  0.00  0.00    +0.214 A 
ATOM     16  C   UNL     1       5.157  -2.176  24.642  0.00  0.00    +0.238 A 
ATOM     17  O   UNL     1       4.220  -2.164  25.432  0.00  0.00    -0.283 OA
ATOM     18  C   UNL     1       5.458  -3.417  23.942  0.00  0.00    +0.109 A 
ATOM     19  C   UNL     1       6.637  -3.470  23.227  0.00  0.00    +0.147 A 
ATOM     20  C   UNL     1       6.974  -4.621  22.510  0.00  0.00    +0.092 A 
ATOM     21  C   UNL     1       6.114  -5.716  22.529  0.00  0.00    +0.124 A 
ATOM     22  C   UNL     1       4.942  -5.692  23.273  0.00  0.00    +0.091 A 
ATOM     23  O   UNL     1       7.535  -2.443  23.214  0.00  0.00    -0.451 OA
ATOM     24  C   UNL     1       4.617  -4.541  23.987  0.00  0.00    +0.135 A 
ATOM     25  C   UNL     1       7.241  -1.207  23.803  0.00  0.00    +0.181 A 
BRANCH  25  26
ATOM     26  C   UNL     1       8.446  -0.292  23.671  0.00  0.00    +0.025 A 
ATOM     27  C   UNL     1       9.344  -0.179  24.770  0.00  0.00    +0.015 A 
ATOM     28  C   UNL     1      10.426   0.715  24.785  0.00  0.00    +0.050 A 
ATOM     29  C   UNL     1      10.641   1.517  23.685  0.00  0.00    +0.158 A 
ATOM     30  C   UNL     1       9.803   1.419  22.580  0.00  0.00    +0.159 A 
ATOM     31  C   UNL     1       8.716   0.535  22.566  0.00  0.00    +0.060 A 
BRANCH  29  32
ATOM     32  O   UNL     1      11.673   2.413  23.701  0.00  0.00    -0.503 OA
ATOM     33  H   UNL     1      12.457   1.887  23.445  0.00  0.00    +0.292 HD
ENDBRANCH  29  32
BRANCH  30  34
ATOM     34  O   UNL     1      10.087   2.237  21.515  0.00  0.00    -0.503 OA
ATOM     35  H   UNL     1       9.819   1.768  20.706  0.00  0.00    +0.292 HD
ENDBRANCH  30  34
ENDBRANCH  25  26
BRANCH  24  36
ATOM     36  O   UNL     1       3.470  -4.541  24.729  0.00  0.00    -0.506 OA
ATOM     37  H   UNL     1       3.266  -5.434  25.050  0.00  0.00    +0.292 HD
ENDBRANCH  24  36
BRANCH  21  38
ATOM     38  O   UNL     1       6.382  -6.854  21.831  0.00  0.00    -0.507 OA
ATOM     39  H   UNL     1       5.592  -7.116  21.332  0.00  0.00    +0.292 HD
ENDBRANCH  21  38
ENDBRANCH  14  15
ENDBRANCH   2  14
BRANCH   1  40
ATOM     40  O   UNL     1       7.606   2.373  25.786  0.00  0.00    -0.337 OA
BRANCH  40  44
ATOM     41  C   UNL     1       5.389   6.552  25.970  0.00  0.00    +0.041 C 
ATOM     42  C   UNL     1       6.509   5.803  25.262  0.00  0.00    +0.149 C 
ATOM     43  O   UNL     1       6.509   4.440  25.733  0.00  0.00    -0.343 OA
ATOM     44  C   UNL     1       7.578   3.663  25.160  0.00  0.00    +0.282 C 
ATOM     45  C   UNL     1       7.402   3.623  23.631  0.00  0.00    +0.201 C 
ATOM     46  C   UNL     1       7.443   5.032  23.073  0.00  0.00    +0.179 C 
ATOM     47  C   UNL     1       6.349   5.877  23.728  0.00  0.00    +0.174 C 
BRANCH  47  48
ATOM     48  O   UNL     1       5.055   5.413  23.329  0.00  0.00    -0.387 OA
ATOM     49  H   UNL     1       5.187   4.527  22.923  0.00  0.00    +0.210 HD
ENDBRANCH  47  48
BRANCH  46  50
ATOM     50  O   UNL     1       7.297   4.925  21.651  0.00  0.00    -0.386 OA
ATOM     51  H   UNL     1       7.651   4.062  21.377  0.00  0.00    +0.210 HD
ENDBRANCH  46  50
BRANCH  45  52
ATOM     52  O   UNL     1       6.164   2.996  23.275  0.00  0.00    -0.384 OA
ATOM     53  H   UNL     1       6.306   2.037  23.419  0.00  0.00    +0.210 HD
ENDBRANCH  45  52
ENDBRANCH  40  44
ENDBRANCH   1  40
TORSDOF 16
ENDMDL
MODEL 4
REMARK VINA RESULT:      -6.7      2.054      4.385
REMARK  Name = 
REMARK  17 active torsions:
REMARK  status: ('A' for Active; 'I' for Inactive)
REMARK    1  A    between atoms: C_1  and  C_2
REMARK    2  A    between atoms: C_4  and  O_53
REMARK    3  A    between atoms: C_6  and  O_52
REMARK    4  A    between atoms: C_8  and  O_51
REMARK    5  A    between atoms: C_10  and  O_13
REMARK    6  A    between atoms: O_13  and  C_14
REMARK    7  A    between atoms: C_16  and  O_50
REMARK    8  A    between atoms: C_18  and  O_49
REMARK    9  A    between atoms: C_20  and  C_47
REMARK   10  A    between atoms: C_23  and  O_25
REMARK   11  A    between atoms: O_25  and  C_26
REMARK   12  A    between atoms: C_27  and  C_39
REMARK   13  A    between atoms: C_31  and  O_38
REMARK   14  A    between atoms: C_33  and  O_37
REMARK   15  A    between atoms: C_41  and  O_46
REMARK   16  A    between atoms: C_42  and  O_45
REMARK   17  A    between atoms: C_47  and  O_48
REMARK                            x       y       z     vdW  Elec       q    Type
REMARK                         _______ _______ _______ _____ _____    ______ ____
ROOT
ATOM      1  C   UNL     1       3.801  -3.277  25.235  0.00  0.00    +0.221 C 
ATOM      2  C   UNL     1       5.211  -2.714  24.919  0.00  0.00    +0.340 C 
ATOM      3  O   UNL     1       5.356  -2.622  23.486  0.00  0.00    -0.331 OA
ATOM      4  C   UNL     1       5.466  -3.962  22.950  0.00  0.00    +0.179 C 
ATOM      5  C   UNL     1       4.076  -4.603  23.023  0.00  0.00    +0.177 C 
ATOM      6  C   UNL     1       3.625  -4.627  24.491  0.00  0.00    +0.180 C 
ENDROOT
BRANCH   6   7
ATOM      7  O   UNL     1       2.275  -5.100  24.563  0.00  0.00    -0.386 OA
ATOM      8  H   UNL     1       1.753  -4.416  25.027  0.00  0.00    +0.210 HD
ENDBRANCH   6   7
BRANCH   5   9
ATOM      9  O   UNL     1       4.105  -5.956  22.538  0.00  0.00    -0.386 OA
ATOM     10  H   UNL     1       3.886  -5.894  21.586  0.00  0.00    +0.210 HD
ENDBRANCH   5   9
BRANCH   4  11
ATOM     11  C   UNL     1       6.077  -3.988  21.546  0.00  0.00    +0.190 C 
BRANCH  11  12
ATOM     12  O   UNL     1       6.535  -5.297  21.195  0.00  0.00    -0.392 OA
ATOM     13  H   UNL     1       5.795  -5.919  21.367  0.00  0.00    +0.210 HD
ENDBRANCH  11  12
ENDBRANCH   4  11
BRANCH   2  14
ATOM     14  O   UNL     1       5.500  -1.491  25.627  0.00  0.00    -0.453 OA
BRANCH  14  15
ATOM     15  C   UNL     1       6.591  -0.725  25.191  0.00  0.00    +0.214 A 
ATOM     16  C   UNL     1       6.370   0.675  24.638  0.00  0.00    +0.238 A 
ATOM     17  O   UNL     1       5.253   1.088  24.347  0.00  0.00    -0.283 OA
ATOM     18  C   UNL     1       7.517   1.530  24.369  0.00  0.00    +0.109 A 
ATOM     19  C   UNL     1       8.770   0.968  24.502  0.00  0.00    +0.147 A 
ATOM     20  C   UNL     1       9.915   1.740  24.284  0.00  0.00    +0.092 A 
ATOM     21  C   UNL     1       9.780   3.079  23.925  0.00  0.00    +0.124 A 
ATOM     22  C   UNL     1       8.526   3.649  23.751  0.00  0.00    +0.091 A 
ATOM     23  O   UNL     1       8.956  -0.349  24.806  0.00  0.00    -0.451 OA
ATOM     24  C   UNL     1       7.392   2.871  23.966  0.00  0.00    +0.135 A 
ATOM     25  C   UNL     1       7.883  -1.178  25.155  0.00  0.00    +0.181 A 
BRANCH  25  26
ATOM     26  C   UNL     1       8.395  -2.588  25.387  0.00  0.00    +0.025 A 
ATOM     27  C   UNL     1       9.326  -3.140  24.462  0.00  0.00    +0.015 A 
ATOM     28  C   UNL     1       9.778  -4.466  24.531  0.00  0.00    +0.050 A 
ATOM     29  C   UNL     1       9.313  -5.276  25.544  0.00  0.00    +0.158 A 
ATOM     30  C   UNL     1       8.423  -4.768  26.485  0.00  0.00    +0.159 A 
ATOM     31  C   UNL     1       7.961  -3.447  26.413  0.00  0.00    +0.060 A 
BRANCH  29  32
ATOM     32  O   UNL     1       9.723  -6.577  25.604  0.00  0.00    -0.503 OA
ATOM     33  H   UNL     1       9.121  -7.052  24.997  0.00  0.00    +0.292 HD
ENDBRANCH  29  32
BRANCH  30  34
ATOM     34  O   UNL     1       8.014  -5.626  27.475  0.00  0.00    -0.503 OA
ATOM     35  H   UNL     1       8.346  -5.278  28.320  0.00  0.00    +0.292 HD
ENDBRANCH  30  34
ENDBRANCH  25  26
BRANCH  24  36
ATOM     36  O   UNL     1       6.166   3.442  23.772  0.00  0.00    -0.506 OA
ATOM     37  H   UNL     1       6.233   4.211  23.184  0.00  0.00    +0.292 HD
ENDBRANCH  24  36
BRANCH  21  38
ATOM     38  O   UNL     1      10.861   3.882  23.723  0.00  0.00    -0.507 OA
ATOM     39  H   UNL     1      11.231   4.141  24.581  0.00  0.00    +0.292 HD
ENDBRANCH  21  38
ENDBRANCH  14  15
ENDBRANCH   2  14
BRANCH   1  40
ATOM     40  O   UNL     1       3.476  -3.397  26.642  0.00  0.00    -0.337 OA
BRANCH  40  44
ATOM     41  C   UNL     1       1.253  -5.682  30.142  0.00  0.00    +0.041 C 
ATOM     42  C   UNL     1       2.157  -5.895  28.937  0.00  0.00    +0.149 C 
ATOM     43  O   UNL     1       2.497  -4.603  28.394  0.00  0.00    -0.343 OA
ATOM     44  C   UNL     1       3.308  -4.704  27.207  0.00  0.00    +0.282 C 
ATOM     45  C   UNL     1       4.625  -5.417  27.562  0.00  0.00    +0.201 C 
ATOM     46  C   UNL     1       4.329  -6.806  28.095  0.00  0.00    +0.179 C 
ATOM     47  C   UNL     1       3.416  -6.704  29.317  0.00  0.00    +0.174 C 
BRANCH  47  48
ATOM     48  O   UNL     1       4.108  -6.084  30.406  0.00  0.00    -0.387 OA
ATOM     49  H   UNL     1       4.499  -6.811  30.942  0.00  0.00    +0.210 HD
ENDBRANCH  47  48
BRANCH  46  50
ATOM     50  O   UNL     1       5.592  -7.422  28.384  0.00  0.00    -0.386 OA
ATOM     51  H   UNL     1       5.416  -8.273  28.820  0.00  0.00    +0.210 HD
ENDBRANCH  46  50
BRANCH  45  52
ATOM     52  O   UNL     1       5.365  -4.671  28.536  0.00  0.00    -0.384 OA
ATOM     53  H   UNL     1       4.746  -4.530  29.282  0.00  0.00    +0.210 HD
ENDBRANCH  45  52
ENDBRANCH  40  44
ENDBRANCH   1  40
TORSDOF 16
ENDMDL
MODEL 5
REMARK VINA RESULT:      -6.6      1.999      6.014
REMARK  Name = 
REMARK  17 active torsions:
REMARK  status: ('A' for Active; 'I' for Inactive)
REMARK    1  A    between atoms: C_1  and  C_2
REMARK    2  A    between atoms: C_4  and  O_53
REMARK    3  A    between atoms: C_6  and  O_52
REMARK    4  A    between atoms: C_8  and  O_51
REMARK    5  A    between atoms: C_10  and  O_13
REMARK    6  A    between atoms: O_13  and  C_14
REMARK    7  A    between atoms: C_16  and  O_50
REMARK    8  A    between atoms: C_18  and  O_49
REMARK    9  A    between atoms: C_20  and  C_47
REMARK   10  A    between atoms: C_23  and  O_25
REMARK   11  A    between atoms: O_25  and  C_26
REMARK   12  A    between atoms: C_27  and  C_39
REMARK   13  A    between atoms: C_31  and  O_38
REMARK   14  A    between atoms: C_33  and  O_37
REMARK   15  A    between atoms: C_41  and  O_46
REMARK   16  A    between atoms: C_42  and  O_45
REMARK   17  A    between atoms: C_47  and  O_48
REMARK                            x       y       z     vdW  Elec       q    Type
REMARK                         _______ _______ _______ _____ _____    ______ ____
ROOT
ATOM      1  C   UNL     1       6.767  -3.771  25.369  0.00  0.00    +0.221 C 
ATOM      2  C   UNL     1       7.009  -2.300  24.944  0.00  0.00    +0.340 C 
ATOM      3  O   UNL     1       7.860  -2.295  23.777  0.00  0.00    -0.331 OA
ATOM      4  C   UNL     1       9.192  -2.691  24.180  0.00  0.00    +0.179 C 
ATOM      5  C   UNL     1       9.160  -4.197  24.464  0.00  0.00    +0.177 C 
ATOM      6  C   UNL     1       8.140  -4.461  25.581  0.00  0.00    +0.180 C 
ENDROOT
BRANCH   6   7
ATOM      7  O   UNL     1       8.000  -5.875  25.768  0.00  0.00    -0.386 OA
ATOM      8  H   UNL     1       7.726  -6.255  24.909  0.00  0.00    +0.210 HD
ENDBRANCH   6   7
BRANCH   5   9
ATOM      9  O   UNL     1      10.445  -4.667  24.906  0.00  0.00    -0.386 OA
ATOM     10  H   UNL     1      10.985  -4.742  24.094  0.00  0.00    +0.210 HD
ENDBRANCH   5   9
BRANCH   4  11
ATOM     11  C   UNL     1      10.262  -2.285  23.163  0.00  0.00    +0.190 C 
BRANCH  11  12
ATOM     12  O   UNL     1       9.685  -1.932  21.903  0.00  0.00    -0.392 OA
ATOM     13  H   UNL     1      10.411  -1.928  21.242  0.00  0.00    +0.210 HD
ENDBRANCH  11  12
ENDBRANCH   4  11
BRANCH   2  14
ATOM     14  O   UNL     1       5.788  -1.549  24.793  0.00  0.00    -0.453 OA
BRANCH  14  15
ATOM     15  C   UNL     1       5.625  -0.400  25.582  0.00  0.00    +0.214 A 
ATOM     16  C   UNL     1       4.470  -0.308  26.569  0.00  0.00    +0.238 A 
ATOM     17  O   UNL     1       3.537  -1.104  26.551  0.00  0.00    -0.283 OA
ATOM     18  C   UNL     1       4.419   0.800  27.513  0.00  0.00    +0.109 A 
ATOM     19  C   UNL     1       5.362   1.796  27.370  0.00  0.00    +0.147 A 
ATOM     20  C   UNL     1       5.386   2.874  28.260  0.00  0.00    +0.092 A 
ATOM     21  C   UNL     1       4.448   2.938  29.285  0.00  0.00    +0.124 A 
ATOM     22  C   UNL     1       3.469   1.962  29.419  0.00  0.00    +0.091 A 
ATOM     23  O   UNL     1       6.274   1.805  26.355  0.00  0.00    -0.451 OA
ATOM     24  C   UNL     1       3.450   0.894  28.526  0.00  0.00    +0.135 A 
ATOM     25  C   UNL     1       6.408   0.718  25.482  0.00  0.00    +0.181 A 
BRANCH  25  26
ATOM     26  C   UNL     1       7.460   1.043  24.438  0.00  0.00    +0.025 A 
ATOM     27  C   UNL     1       8.783   1.345  24.869  0.00  0.00    +0.015 A 
ATOM     28  C   UNL     1       9.798   1.757  23.992  0.00  0.00    +0.050 A 
ATOM     29  C   UNL     1       9.512   1.868  22.648  0.00  0.00    +0.158 A 
ATOM     30  C   UNL     1       8.239   1.557  22.182  0.00  0.00    +0.159 A 
ATOM     31  C   UNL     1       7.220   1.155  23.057  0.00  0.00    +0.060 A 
BRANCH  29  32
ATOM     32  O   UNL     1      10.484   2.297  21.790  0.00  0.00    -0.503 OA
ATOM     33  H   UNL     1      10.568   1.576  21.135  0.00  0.00    +0.292 HD
ENDBRANCH  29  32
BRANCH  30  34
ATOM     34  O   UNL     1       8.031   1.675  20.831  0.00  0.00    -0.503 OA
ATOM     35  H   UNL     1       7.070   1.720  20.685  0.00  0.00    +0.292 HD
ENDBRANCH  30  34
ENDBRANCH  25  26
BRANCH  24  36
ATOM     36  O   UNL     1       2.470  -0.048  28.661  0.00  0.00    -0.506 OA
ATOM     37  H   UNL     1       2.490  -0.676  27.920  0.00  0.00    +0.292 HD
ENDBRANCH  24  36
BRANCH  21  38
ATOM     38  O   UNL     1       4.440   3.953  30.193  0.00  0.00    -0.507 OA
ATOM     39  H   UNL     1       4.250   3.593  31.073  0.00  0.00    +0.292 HD
ENDBRANCH  21  38
ENDBRANCH  14  15
ENDBRANCH   2  14
BRANCH   1  40
ATOM     40  O   UNL     1       5.894  -3.956  26.512  0.00  0.00    -0.337 OA
BRANCH  40  44
ATOM     41  C   UNL     1       1.794  -4.852  28.703  0.00  0.00    +0.041 C 
ATOM     42  C   UNL     1       2.536  -5.049  27.388  0.00  0.00    +0.149 C 
ATOM     43  O   UNL     1       3.873  -4.533  27.543  0.00  0.00    -0.343 OA
ATOM     44  C   UNL     1       4.638  -4.622  26.325  0.00  0.00    +0.282 C 
ATOM     45  C   UNL     1       4.759  -6.102  25.919  0.00  0.00    +0.201 C 
ATOM     46  C   UNL     1       3.378  -6.685  25.694  0.00  0.00    +0.179 C 
ATOM     47  C   UNL     1       2.542  -6.534  26.966  0.00  0.00    +0.174 C 
BRANCH  47  48
ATOM     48  O   UNL     1       3.071  -7.357  28.011  0.00  0.00    -0.387 OA
ATOM     49  H   UNL     1       2.455  -7.276  28.773  0.00  0.00    +0.210 HD
ENDBRANCH  47  48
BRANCH  46  50
ATOM     50  O   UNL     1       3.558  -8.052  25.298  0.00  0.00    -0.386 OA
ATOM     51  H   UNL     1       3.080  -8.188  24.463  0.00  0.00    +0.210 HD
ENDBRANCH  46  50
BRANCH  45  52
ATOM     52  O   UNL     1       5.447  -6.854  26.924  0.00  0.00    -0.384 OA
ATOM     53  H   UNL     1       5.041  -6.586  27.775  0.00  0.00    +0.210 HD
ENDBRANCH  45  52
ENDBRANCH  40  44
ENDBRANCH   1  40
TORSDOF 16
ENDMDL
MODEL 6
REMARK VINA RESULT:      -6.6      1.790      5.445
REMARK  Name = 
REMARK  17 active torsions:
REMARK  status: ('A' for Active; 'I' for Inactive)
REMARK    1  A    between atoms: C_1  and  C_2
REMARK    2  A    between atoms: C_4  and  O_53
REMARK    3  A    between atoms: C_6  and  O_52
REMARK    4  A    between atoms: C_8  and  O_51
REMARK    5  A    between atoms: C_10  and  O_13
REMARK    6  A    between atoms: O_13  and  C_14
REMARK    7  A    between atoms: C_16  and  O_50
REMARK    8  A    between atoms: C_18  and  O_49
REMARK    9  A    between atoms: C_20  and  C_47
REMARK   10  A    between atoms: C_23  and  O_25
REMARK   11  A    between atoms: O_25  and  C_26
REMARK   12  A    between atoms: C_27  and  C_39
REMARK   13  A    between atoms: C_31  and  O_38
REMARK   14  A    between atoms: C_33  and  O_37
REMARK   15  A    between atoms: C_41  and  O_46
REMARK   16  A    between atoms: C_42  and  O_45
REMARK   17  A    between atoms: C_47  and  O_48
REMARK                            x       y       z     vdW  Elec       q    Type
REMARK                         _______ _______ _______ _____ _____    ______ ____
ROOT
ATOM      1  C   UNL     1       5.461  -2.774  26.779  0.00  0.00    +0.221 C 
ATOM      2  C   UNL     1       5.204  -2.774  25.250  0.00  0.00    +0.340 C 
ATOM      3  O   UNL     1       4.156  -3.725  24.962  0.00  0.00    -0.331 OA
ATOM      4  C   UNL     1       4.682  -5.059  25.155  0.00  0.00    +0.179 C 
ATOM      5  C   UNL     1       4.821  -5.286  26.665  0.00  0.00    +0.177 C 
ATOM      6  C   UNL     1       5.776  -4.224  27.232  0.00  0.00    +0.180 C 
ENDROOT
BRANCH   6   7
ATOM      7  O   UNL     1       5.814  -4.338  28.660  0.00  0.00    -0.386 OA
ATOM      8  H   UNL     1       6.735  -4.165  28.939  0.00  0.00    +0.210 HD
ENDBRANCH   6   7
BRANCH   5   9
ATOM      9  O   UNL     1       5.373  -6.583  26.944  0.00  0.00    -0.386 OA
ATOM     10  H   UNL     1       6.343  -6.450  26.972  0.00  0.00    +0.210 HD
ENDBRANCH   5   9
BRANCH   4  11
ATOM     11  C   UNL     1       3.845  -6.131  24.453  0.00  0.00    +0.190 C 
BRANCH  11  12
ATOM     12  O   UNL     1       4.627  -7.285  24.132  0.00  0.00    -0.392 OA
ATOM     13  H   UNL     1       4.362  -7.997  24.754  0.00  0.00    +0.210 HD
ENDBRANCH  11  12
ENDBRANCH   4  11
BRANCH   2  14
ATOM     14  O   UNL     1       4.974  -1.454  24.718  0.00  0.00    -0.453 OA
BRANCH  14  15
ATOM     15  C   UNL     1       6.044  -0.810  24.079  0.00  0.00    +0.214 A 
ATOM     16  C   UNL     1       6.160   0.706  24.122  0.00  0.00    +0.238 A 
ATOM     17  O   UNL     1       5.235   1.416  24.503  0.00  0.00    -0.283 OA
ATOM     18  C   UNL     1       7.367   1.349  23.624  0.00  0.00    +0.109 A 
ATOM     19  C   UNL     1       8.302   0.546  23.004  0.00  0.00    +0.147 A 
ATOM     20  C   UNL     1       9.496   1.094  22.528  0.00  0.00    +0.092 A 
ATOM     21  C   UNL     1       9.731   2.458  22.676  0.00  0.00    +0.124 A 
ATOM     22  C   UNL     1       8.784   3.287  23.264  0.00  0.00    +0.091 A 
ATOM     23  O   UNL     1       8.100  -0.787  22.793  0.00  0.00    -0.451 OA
ATOM     24  C   UNL     1       7.596   2.732  23.733  0.00  0.00    +0.135 A 
ATOM     25  C   UNL     1       6.993  -1.454  23.332  0.00  0.00    +0.181 A 
BRANCH  25  26
ATOM     26  C   UNL     1       7.017  -2.904  22.884  0.00  0.00    +0.025 A 
ATOM     27  C   UNL     1       6.044  -3.348  21.944  0.00  0.00    +0.015 A 
ATOM     28  C   UNL     1       5.919  -4.688  21.547  0.00  0.00    +0.050 A 
ATOM     29  C   UNL     1       6.780  -5.622  22.079  0.00  0.00    +0.158 A 
ATOM     30  C   UNL     1       7.763  -5.227  22.980  0.00  0.00    +0.159 A 
ATOM     31  C   UNL     1       7.884  -3.891  23.387  0.00  0.00    +0.060 A 
BRANCH  29  32
ATOM     32  O   UNL     1       6.648  -6.935  21.723  0.00  0.00    -0.503 OA
ATOM     33  H   UNL     1       6.834  -6.948  20.764  0.00  0.00    +0.292 HD
ENDBRANCH  29  32
BRANCH  30  34
ATOM     34  O   UNL     1       8.595  -6.208  23.458  0.00  0.00    -0.503 OA
ATOM     35  H   UNL     1       9.074  -5.841  24.220  0.00  0.00    +0.292 HD
ENDBRANCH  30  34
ENDBRANCH  25  26
BRANCH  24  36
ATOM     36  O   UNL     1       6.667   3.563  24.291  0.00  0.00    -0.506 OA
ATOM     37  H   UNL     1       5.995   3.055  24.773  0.00  0.00    +0.292 HD
ENDBRANCH  24  36
BRANCH  21  38
ATOM     38  O   UNL     1      10.886   3.041  22.251  0.00  0.00    -0.507 OA
ATOM     39  H   UNL     1      10.675   3.870  21.793  0.00  0.00    +0.292 HD
ENDBRANCH  21  38
ENDBRANCH  14  15
ENDBRANCH   2  14
BRANCH   1  40
ATOM     40  O   UNL     1       6.466  -1.839  27.245  0.00  0.00    -0.337 OA
BRANCH  40  44
ATOM     41  C   UNL     1       3.168   1.557  27.321  0.00  0.00    +0.041 C 
ATOM     42  C   UNL     1       4.366   1.012  28.085  0.00  0.00    +0.149 C 
ATOM     43  O   UNL     1       4.938  -0.066  27.318  0.00  0.00    -0.343 OA
ATOM     44  C   UNL     1       6.050  -0.688  27.992  0.00  0.00    +0.282 C 
ATOM     45  C   UNL     1       7.154   0.362  28.207  0.00  0.00    +0.201 C 
ATOM     46  C   UNL     1       6.620   1.502  29.053  0.00  0.00    +0.179 C 
ATOM     47  C   UNL     1       5.401   2.122  28.370  0.00  0.00    +0.174 C 
BRANCH  47  48
ATOM     48  O   UNL     1       5.789   2.778  27.158  0.00  0.00    -0.387 OA
ATOM     49  H   UNL     1       6.263   2.110  26.615  0.00  0.00    +0.210 HD
ENDBRANCH  47  48
BRANCH  46  50
ATOM     50  O   UNL     1       7.698   2.431  29.235  0.00  0.00    -0.386 OA
ATOM     51  H   UNL     1       7.320   3.325  29.267  0.00  0.00    +0.210 HD
ENDBRANCH  46  50
BRANCH  45  52
ATOM     52  O   UNL     1       7.630   0.869  26.954  0.00  0.00    -0.384 OA
ATOM     53  H   UNL     1       8.588   0.663  26.936  0.00  0.00    +0.210 HD
ENDBRANCH  45  52
ENDBRANCH  40  44
ENDBRANCH   1  40
TORSDOF 16
ENDMDL
MODEL 7
REMARK VINA RESULT:      -6.6      2.721      7.551
REMARK  Name = 
REMARK  17 active torsions:
REMARK  status: ('A' for Active; 'I' for Inactive)
REMARK    1  A    between atoms: C_1  and  C_2
REMARK    2  A    between atoms: C_4  and  O_53
REMARK    3  A    between atoms: C_6  and  O_52
REMARK    4  A    between atoms: C_8  and  O_51
REMARK    5  A    between atoms: C_10  and  O_13
REMARK    6  A    between atoms: O_13  and  C_14
REMARK    7  A    between atoms: C_16  and  O_50
REMARK    8  A    between atoms: C_18  and  O_49
REMARK    9  A    between atoms: C_20  and  C_47
REMARK   10  A    between atoms: C_23  and  O_25
REMARK   11  A    between atoms: O_25  and  C_26
REMARK   12  A    between atoms: C_27  and  C_39
REMARK   13  A    between atoms: C_31  and  O_38
REMARK   14  A    between atoms: C_33  and  O_37
REMARK   15  A    between atoms: C_41  and  O_46
REMARK   16  A    between atoms: C_42  and  O_45
REMARK   17  A    between atoms: C_47  and  O_48
REMARK                            x       y       z     vdW  Elec       q    Type
REMARK                         _______ _______ _______ _____ _____    ______ ____
ROOT
ATOM      1  C   UNL     1       5.733   2.762  26.098  0.00  0.00    +0.221 C 
ATOM      2  C   UNL     1       6.472   1.448  26.462  0.00  0.00    +0.340 C 
ATOM      3  O   UNL     1       6.346   1.231  27.884  0.00  0.00    -0.331 OA
ATOM      4  C   UNL     1       7.162   2.208  28.571  0.00  0.00    +0.179 C 
ATOM      5  C   UNL     1       6.453   3.563  28.458  0.00  0.00    +0.177 C 
ATOM      6  C   UNL     1       6.302   3.912  26.970  0.00  0.00    +0.180 C 
ENDROOT
BRANCH   6   7
ATOM      7  O   UNL     1       5.525   5.109  26.843  0.00  0.00    -0.386 OA
ATOM      8  H   UNL     1       4.628   4.909  27.180  0.00  0.00    +0.210 HD
ENDBRANCH   6   7
BRANCH   5   9
ATOM      9  O   UNL     1       7.220   4.601  29.090  0.00  0.00    -0.386 OA
ATOM     10  H   UNL     1       7.889   4.135  29.632  0.00  0.00    +0.210 HD
ENDBRANCH   5   9
BRANCH   4  11
ATOM     11  C   UNL     1       7.478   1.804  30.013  0.00  0.00    +0.190 C 
BRANCH  11  12
ATOM     12  O   UNL     1       8.677   2.426  30.485  0.00  0.00    -0.392 OA
ATOM     13  H   UNL     1       8.645   2.408  31.466  0.00  0.00    +0.210 HD
ENDBRANCH  11  12
ENDBRANCH   4  11
BRANCH   2  14
ATOM     14  O   UNL     1       6.065   0.329  25.649  0.00  0.00    -0.453 OA
BRANCH  14  15
ATOM     15  C   UNL     1       6.917  -0.783  25.592  0.00  0.00    +0.214 A 
ATOM     16  C   UNL     1       6.603  -2.029  26.406  0.00  0.00    +0.238 A 
ATOM     17  O   UNL     1       5.753  -2.029  27.289  0.00  0.00    -0.283 OA
ATOM     18  C   UNL     1       7.384  -3.241  26.195  0.00  0.00    +0.109 A 
ATOM     19  C   UNL     1       8.472  -3.153  25.352  0.00  0.00    +0.147 A 
ATOM     20  C   UNL     1       9.248  -4.284  25.084  0.00  0.00    +0.092 A 
ATOM     21  C   UNL     1       8.918  -5.498  25.680  0.00  0.00    +0.124 A 
ATOM     22  C   UNL     1       7.848  -5.594  26.560  0.00  0.00    +0.091 A 
ATOM     23  O   UNL     1       8.865  -1.978  24.779  0.00  0.00    -0.451 OA
ATOM     24  C   UNL     1       7.083  -4.461  26.824  0.00  0.00    +0.135 A 
ATOM     25  C   UNL     1       8.092  -0.816  24.891  0.00  0.00    +0.181 A 
BRANCH  25  26
ATOM     26  C   UNL     1       8.810   0.329  24.197  0.00  0.00    +0.025 A 
ATOM     27  C   UNL     1      10.125   0.669  24.620  0.00  0.00    +0.015 A 
ATOM     28  C   UNL     1      10.830   1.773  24.115  0.00  0.00    +0.050 A 
ATOM     29  C   UNL     1      10.231   2.563  23.158  0.00  0.00    +0.158 A 
ATOM     30  C   UNL     1       8.957   2.249  22.698  0.00  0.00    +0.159 A 
ATOM     31  C   UNL     1       8.247   1.154  23.208  0.00  0.00    +0.060 A 
BRANCH  29  32
ATOM     32  O   UNL     1      10.896   3.657  22.681  0.00  0.00    -0.503 OA
ATOM     33  H   UNL     1      11.816   3.537  22.988  0.00  0.00    +0.292 HD
ENDBRANCH  29  32
BRANCH  30  34
ATOM     34  O   UNL     1       8.430   3.070  21.733  0.00  0.00    -0.503 OA
ATOM     35  H   UNL     1       7.922   3.766  22.185  0.00  0.00    +0.292 HD
ENDBRANCH  30  34
ENDBRANCH  25  26
BRANCH  24  36
ATOM     36  O   UNL     1       6.046  -4.568  27.706  0.00  0.00    -0.506 OA
ATOM     37  H   UNL     1       6.330  -5.015  28.520  0.00  0.00    +0.292 HD
ENDBRANCH  24  36
BRANCH  21  38
ATOM     38  O   UNL     1       9.626  -6.636  25.437  0.00  0.00    -0.507 OA
ATOM     39  H   UNL     1      10.281  -6.462  24.744  0.00  0.00    +0.292 HD
ENDBRANCH  21  38
ENDBRANCH  14  15
ENDBRANCH   2  14
BRANCH   1  40
ATOM     40  O   UNL     1       5.731   3.110  24.691  0.00  0.00    -0.337 OA
BRANCH  40  44
ATOM     41  C   UNL     1       1.329   3.054  22.950  0.00  0.00    +0.041 C 
ATOM     42  C   UNL     1       2.462   3.986  23.356  0.00  0.00    +0.149 C 
ATOM     43  O   UNL     1       3.596   3.181  23.734  0.00  0.00    -0.343 OA
ATOM     44  C   UNL     1       4.705   3.978  24.192  0.00  0.00    +0.282 C 
ATOM     45  C   UNL     1       5.158   4.906  23.050  0.00  0.00    +0.201 C 
ATOM     46  C   UNL     1       4.015   5.813  22.643  0.00  0.00    +0.179 C 
ATOM     47  C   UNL     1       2.813   4.968  22.217  0.00  0.00    +0.174 C 
BRANCH  47  48
ATOM     48  O   UNL     1       3.106   4.260  21.007  0.00  0.00    -0.387 OA
ATOM     49  H   UNL     1       4.068   4.374  20.840  0.00  0.00    +0.210 HD
ENDBRANCH  47  48
BRANCH  46  50
ATOM     50  O   UNL     1       4.505   6.664  21.597  0.00  0.00    -0.386 OA
ATOM     51  H   UNL     1       4.048   7.519  21.666  0.00  0.00    +0.210 HD
ENDBRANCH  46  50
BRANCH  45  52
ATOM     52  O   UNL     1       5.602   4.146  21.919  0.00  0.00    -0.384 OA
ATOM     53  H   UNL     1       6.472   3.777  22.178  0.00  0.00    +0.210 HD
ENDBRANCH  45  52
ENDBRANCH  40  44
ENDBRANCH   1  40
TORSDOF 16
ENDMDL
MODEL 8
REMARK VINA RESULT:      -6.4      2.381      7.487
REMARK  Name = 
REMARK  17 active torsions:
REMARK  status: ('A' for Active; 'I' for Inactive)
REMARK    1  A    between atoms: C_1  and  C_2
REMARK    2  A    between atoms: C_4  and  O_53
REMARK    3  A    between atoms: C_6  and  O_52
REMARK    4  A    between atoms: C_8  and  O_51
REMARK    5  A    between atoms: C_10  and  O_13
REMARK    6  A    between atoms: O_13  and  C_14
REMARK    7  A    between atoms: C_16  and  O_50
REMARK    8  A    between atoms: C_18  and  O_49
REMARK    9  A    between atoms: C_20  and  C_47
REMARK   10  A    between atoms: C_23  and  O_25
REMARK   11  A    between atoms: O_25  and  C_26
REMARK   12  A    between atoms: C_27  and  C_39
REMARK   13  A    between atoms: C_31  and  O_38
REMARK   14  A    between atoms: C_33  and  O_37
REMARK   15  A    between atoms: C_41  and  O_46
REMARK   16  A    between atoms: C_42  and  O_45
REMARK   17  A    between atoms: C_47  and  O_48
REMARK                            x       y       z     vdW  Elec       q    Type
REMARK                         _______ _______ _______ _____ _____    ______ ____
ROOT
ATOM      1  C   UNL     1       8.604   1.841  24.925  0.00  0.00    +0.221 C 
ATOM      2  C   UNL     1       8.395   0.326  25.178  0.00  0.00    +0.340 C 
ATOM      3  O   UNL     1       9.557  -0.383  24.695  0.00  0.00    -0.331 OA
ATOM      4  C   UNL     1       9.553  -0.339  23.249  0.00  0.00    +0.179 C 
ATOM      5  C   UNL     1       9.934   1.085  22.830  0.00  0.00    +0.177 C 
ATOM      6  C   UNL     1       8.903   2.059  23.418  0.00  0.00    +0.180 C 
ENDROOT
BRANCH   6   7
ATOM      7  O   UNL     1       9.316   3.405  23.148  0.00  0.00    -0.386 OA
ATOM      8  H   UNL     1       8.755   3.739  22.420  0.00  0.00    +0.210 HD
ENDBRANCH   6   7
BRANCH   5   9
ATOM      9  O   UNL     1       9.920   1.224  21.399  0.00  0.00    -0.386 OA
ATOM     10  H   UNL     1      10.549   1.948  21.204  0.00  0.00    +0.210 HD
ENDBRANCH   5   9
BRANCH   4  11
ATOM     11  C   UNL     1      10.443  -1.417  22.623  0.00  0.00    +0.190 C 
BRANCH  11  12
ATOM     12  O   UNL     1      10.142  -1.610  21.239  0.00  0.00    -0.392 OA
ATOM     13  H   UNL     1      10.411  -0.791  20.767  0.00  0.00    +0.210 HD
ENDBRANCH  11  12
ENDBRANCH   4  11
BRANCH   2  14
ATOM     14  O   UNL     1       8.038   0.027  26.542  0.00  0.00    -0.453 OA
BRANCH  14  15
ATOM     15  C   UNL     1       6.754  -0.483  26.785  0.00  0.00    +0.214 A 
ATOM     16  C   UNL     1       5.727   0.356  27.531  0.00  0.00    +0.238 A 
ATOM     17  O   UNL     1       6.038   1.380  28.130  0.00  0.00    -0.283 OA
ATOM     18  C   UNL     1       4.347  -0.102  27.611  0.00  0.00    +0.109 A 
ATOM     19  C   UNL     1       4.068  -1.359  27.116  0.00  0.00    +0.147 A 
ATOM     20  C   UNL     1       2.759  -1.849  27.137  0.00  0.00    +0.092 A 
ATOM     21  C   UNL     1       1.741  -1.062  27.668  0.00  0.00    +0.124 A 
ATOM     22  C   UNL     1       2.012   0.189  28.205  0.00  0.00    +0.091 A 
ATOM     23  O   UNL     1       5.036  -2.187  26.627  0.00  0.00    -0.451 OA
ATOM     24  C   UNL     1       3.319   0.668  28.183  0.00  0.00    +0.135 A 
ATOM     25  C   UNL     1       6.355  -1.751  26.456  0.00  0.00    +0.181 A 
BRANCH  25  26
ATOM     26  C   UNL     1       7.201  -2.904  25.948  0.00  0.00    +0.025 A 
ATOM     27  C   UNL     1       8.152  -3.495  26.826  0.00  0.00    +0.015 A 
ATOM     28  C   UNL     1       9.051  -4.495  26.421  0.00  0.00    +0.050 A 
ATOM     29  C   UNL     1       9.010  -4.936  25.116  0.00  0.00    +0.158 A 
ATOM     30  C   UNL     1       8.078  -4.403  24.232  0.00  0.00    +0.159 A 
ATOM     31  C   UNL     1       7.186  -3.398  24.631  0.00  0.00    +0.060 A 
BRANCH  29  32
ATOM     32  O   UNL     1       9.900  -5.886  24.702  0.00  0.00    -0.503 OA
ATOM     33  H   UNL     1      10.671  -5.377  24.384  0.00  0.00    +0.292 HD
ENDBRANCH  29  32
BRANCH  30  34
ATOM     34  O   UNL     1       8.084  -4.901  22.953  0.00  0.00    -0.503 OA
ATOM     35  H   UNL     1       8.978  -4.769  22.592  0.00  0.00    +0.292 HD
ENDBRANCH  30  34
ENDBRANCH  25  26
BRANCH  24  36
ATOM     36  O   UNL     1       3.572   1.893  28.731  0.00  0.00    -0.506 OA
ATOM     37  H   UNL     1       2.908   2.113  29.405  0.00  0.00    +0.292 HD
ENDBRANCH  24  36
BRANCH  21  38
ATOM     38  O   UNL     1       0.446  -1.481  27.693  0.00  0.00    -0.507 OA
ATOM     39  H   UNL     1      -0.118  -0.756  28.005  0.00  0.00    +0.292 HD
ENDBRANCH  21  38
ENDBRANCH  14  15
ENDBRANCH   2  14
BRANCH   1  40
ATOM     40  O   UNL     1       7.538   2.706  25.389  0.00  0.00    -0.337 OA
BRANCH  40  44
ATOM     41  C   UNL     1       5.764   6.305  22.875  0.00  0.00    +0.041 C 
ATOM     42  C   UNL     1       5.580   4.823  23.169  0.00  0.00    +0.149 C 
ATOM     43  O   UNL     1       6.530   4.443  24.185  0.00  0.00    -0.343 OA
ATOM     44  C   UNL     1       6.470   3.036  24.489  0.00  0.00    +0.282 C 
ATOM     45  C   UNL     1       5.065   2.699  25.021  0.00  0.00    +0.201 C 
ATOM     46  C   UNL     1       4.026   3.035  23.970  0.00  0.00    +0.179 C 
ATOM     47  C   UNL     1       4.129   4.515  23.598  0.00  0.00    +0.174 C 
BRANCH  47  48
ATOM     48  O   UNL     1       3.742   5.335  24.706  0.00  0.00    -0.387 OA
ATOM     49  H   UNL     1       3.612   4.732  25.471  0.00  0.00    +0.210 HD
ENDBRANCH  47  48
BRANCH  46  50
ATOM     50  O   UNL     1       2.747   2.679  24.515  0.00  0.00    -0.386 OA
ATOM     51  H   UNL     1       2.675   1.709  24.500  0.00  0.00    +0.210 HD
ENDBRANCH  46  50
BRANCH  45  52
ATOM     52  O   UNL     1       4.788   3.420  26.227  0.00  0.00    -0.384 OA
ATOM     53  H   UNL     1       5.393   3.046  26.900  0.00  0.00    +0.210 HD
ENDBRANCH  45  52
ENDBRANCH  40  44
ENDBRANCH   1  40
TORSDOF 16
ENDMDL
MODEL 9
REMARK VINA RESULT:      -6.4      2.536      8.100
REMARK  Name = 
REMARK  17 active torsions:
REMARK  status: ('A' for Active; 'I' for Inactive)
REMARK    1  A    between atoms: C_1  and  C_2
REMARK    2  A    between atoms: C_4  and  O_53
REMARK    3  A    between atoms: C_6  and  O_52
REMARK    4  A    between atoms: C_8  and  O_51
REMARK    5  A    between atoms: C_10  and  O_13
REMARK    6  A    between atoms: O_13  and  C_14
REMARK    7  A    between atoms: C_16  and  O_50
REMARK    8  A    between atoms: C_18  and  O_49
REMARK    9  A    between atoms: C_20  and  C_47
REMARK   10  A    between atoms: C_23  and  O_25
REMARK   11  A    between atoms: O_25  and  C_26
REMARK   12  A    between atoms: C_27  and  C_39
REMARK   13  A    between atoms: C_31  and  O_38
REMARK   14  A    between atoms: C_33  and  O_37
REMARK   15  A    between atoms: C_41  and  O_46
REMARK   16  A    between atoms: C_42  and  O_45
REMARK   17  A    between atoms: C_47  and  O_48
REMARK                            x       y       z     vdW  Elec       q    Type
REMARK                         _______ _______ _______ _____ _____    ______ ____
ROOT
ATOM      1  C   UNL     1       7.133   2.885  23.095  0.00  0.00    +0.221 C 
ATOM      2  C   UNL     1       7.365   1.369  23.318  0.00  0.00    +0.340 C 
ATOM      3  O   UNL     1       8.437   1.205  24.271  0.00  0.00    -0.331 OA
ATOM      4  C   UNL     1       9.679   1.585  23.633  0.00  0.00    +0.179 C 
ATOM      5  C   UNL     1       9.684   3.113  23.506  0.00  0.00    +0.177 C 
ATOM      6  C   UNL     1       8.473   3.537  22.662  0.00  0.00    +0.180 C 
ENDROOT
BRANCH   6   7
ATOM      7  O   UNL     1       8.386   4.967  22.644  0.00  0.00    -0.386 OA
ATOM      8  H   UNL     1       7.668   5.221  23.259  0.00  0.00    +0.210 HD
ENDBRANCH   6   7
BRANCH   5   9
ATOM      9  O   UNL     1      10.875   3.573  22.848  0.00  0.00    -0.386 OA
ATOM     10  H   UNL     1      10.571   3.945  21.994  0.00  0.00    +0.210 HD
ENDBRANCH   5   9
BRANCH   4  11
ATOM     11  C   UNL     1      10.909   1.030  24.357  0.00  0.00    +0.190 C 
BRANCH  11  12
ATOM     12  O   UNL     1      10.547   0.329  25.549  0.00  0.00    -0.392 OA
ATOM     13  H   UNL     1      10.196   0.994  26.181  0.00  0.00    +0.210 HD
ENDBRANCH  11  12
ENDBRANCH   4  11
BRANCH   2  14
ATOM     14  O   UNL     1       6.156   0.658  23.653  0.00  0.00    -0.453 OA
BRANCH  14  15
ATOM     15  C   UNL     1       6.267  -0.464  24.487  0.00  0.00    +0.214 A 
ATOM     16  C   UNL     1       6.635  -1.820  23.901  0.00  0.00    +0.238 A 
ATOM     17  O   UNL     1       6.624  -2.028  22.693  0.00  0.00    -0.283 OA
ATOM     18  C   UNL     1       6.934  -2.931  24.794  0.00  0.00    +0.109 A 
ATOM     19  C   UNL     1       6.730  -2.731  26.143  0.00  0.00    +0.147 A 
ATOM     20  C   UNL     1       7.022  -3.747  27.058  0.00  0.00    +0.092 A 
ATOM     21  C   UNL     1       7.513  -4.964  26.595  0.00  0.00    +0.124 A 
ATOM     22  C   UNL     1       7.687  -5.195  25.237  0.00  0.00    +0.091 A 
ATOM     23  O   UNL     1       6.209  -1.573  26.644  0.00  0.00    -0.451 OA
ATOM     24  C   UNL     1       7.390  -4.178  24.333  0.00  0.00    +0.135 A 
ATOM     25  C   UNL     1       5.991  -0.456  25.828  0.00  0.00    +0.181 A 
BRANCH  25  26
ATOM     26  C   UNL     1       5.361   0.651  26.655  0.00  0.00    +0.025 A 
ATOM     27  C   UNL     1       6.125   1.820  26.929  0.00  0.00    +0.015 A 
ATOM     28  C   UNL     1       5.671   2.851  27.767  0.00  0.00    +0.050 A 
ATOM     29  C   UNL     1       4.426   2.738  28.347  0.00  0.00    +0.158 A 
ATOM     30  C   UNL     1       3.637   1.624  28.083  0.00  0.00    +0.159 A 
ATOM     31  C   UNL     1       4.091   0.588  27.255  0.00  0.00    +0.060 A 
BRANCH  29  32
ATOM     32  O   UNL     1       3.987   3.720  29.188  0.00  0.00    -0.503 OA
ATOM     33  H   UNL     1       3.274   4.168  28.691  0.00  0.00    +0.292 HD
ENDBRANCH  29  32
BRANCH  30  34
ATOM     34  O   UNL     1       2.402   1.586  28.682  0.00  0.00    -0.503 OA
ATOM     35  H   UNL     1       1.914   2.377  28.397  0.00  0.00    +0.292 HD
ENDBRANCH  30  34
ENDBRANCH  25  26
BRANCH  24  36
ATOM     36  O   UNL     1       7.550  -4.427  23.000  0.00  0.00    -0.506 OA
ATOM     37  H   UNL     1       8.344  -3.985  22.659  0.00  0.00    +0.292 HD
ENDBRANCH  24  36
BRANCH  21  38
ATOM     38  O   UNL     1       7.835  -5.980  27.443  0.00  0.00    -0.507 OA
ATOM     39  H   UNL     1       7.166  -6.679  27.372  0.00  0.00    +0.292 HD
ENDBRANCH  21  38
ENDBRANCH  14  15
ENDBRANCH   2  14
BRANCH   1  40
ATOM     40  O   UNL     1       6.055   3.227  22.187  0.00  0.00    -0.337 OA
BRANCH  40  44
ATOM     41  C   UNL     1       5.042   6.359  25.589  0.00  0.00    +0.041 C 
ATOM     42  C   UNL     1       4.487   5.720  24.324  0.00  0.00    +0.149 C 
ATOM     43  O   UNL     1       5.423   4.718  23.877  0.00  0.00    -0.343 OA
ATOM     44  C   UNL     1       5.010   4.095  22.646  0.00  0.00    +0.282 C 
ATOM     45  C   UNL     1       3.657   3.396  22.869  0.00  0.00    +0.201 C 
ATOM     46  C   UNL     1       2.618   4.414  23.295  0.00  0.00    +0.179 C 
ATOM     47  C   UNL     1       3.084   5.124  24.568  0.00  0.00    +0.174 C 
BRANCH  47  48
ATOM     48  O   UNL     1       3.105   4.208  25.668  0.00  0.00    -0.387 OA
ATOM     49  H   UNL     1       2.493   3.474  25.436  0.00  0.00    +0.210 HD
ENDBRANCH  47  48
BRANCH  46  50
ATOM     50  O   UNL     1       1.381   3.708  23.464  0.00  0.00    -0.386 OA
ATOM     51  H   UNL     1       1.051   3.466  22.582  0.00  0.00    +0.210 HD
ENDBRANCH  46  50
BRANCH  45  52
ATOM     52  O   UNL     1       3.768   2.371  23.863  0.00  0.00    -0.384 OA
ATOM     53  H   UNL     1       3.446   2.777  24.695  0.00  0.00    +0.210 HD
ENDBRANCH  45  52
ENDBRANCH  40  44
ENDBRANCH   1  40
TORSDOF 16
ENDMDL
