MODEL 1
REMARK VINA RESULT:      -7.8      0.000      0.000
REMARK  Name = 
REMARK  12 active torsions:
REMARK  status: ('A' for Active; 'I' for Inactive)
REMARK    1  A    between atoms: C_3  and  O_38
REMARK    2  A    between atoms: C_4  and  O_37
REMARK    3  A    between atoms: C_6  and  C_7
REMARK    4  A    between atoms: C_8  and  O_36
REMARK    5  A    between atoms: C_12  and  O_35
REMARK    6  A    between atoms: C_14  and  O_18
REMARK    7  A    between atoms: O_18  and  C_19
REMARK    8  A    between atoms: C_21  and  O_34
REMARK    9  A    between atoms: C_23  and  O_33
REMARK   10  A    between atoms: C_25  and  O_32
REMARK   11  A    between atoms: C_27  and  C_30
REMARK   12  A    between atoms: C_30  and  O_31
REMARK                            x       y       z     vdW  Elec       q    Type
REMARK                         _______ _______ _______ _____ _____    ______ ____
ROOT
ATOM      1  C   UNL     1       6.969  -4.118  24.232  0.00  0.00    +0.181 A 
ATOM      2  O   UNL     1       6.324  -2.889  23.996  0.00  0.00    -0.451 OA
ATOM      3  C   UNL     1       7.084  -1.793  23.620  0.00  0.00    +0.147 A 
ATOM      4  C   UNL     1       8.474  -1.855  23.581  0.00  0.00    +0.109 A 
ATOM      5  C   UNL     1       9.222  -0.738  23.215  0.00  0.00    +0.135 A 
ATOM      6  C   UNL     1       8.594   0.457  22.896  0.00  0.00    +0.092 A 
ATOM      7  C   UNL     1       7.199   0.568  22.964  0.00  0.00    +0.131 A 
ATOM      8  C   UNL     1       9.153  -3.103  23.905  0.00  0.00    +0.238 A 
ATOM      9  O   UNL     1      10.375  -3.147  23.944  0.00  0.00    -0.283 OA
ATOM     10  C   UNL     1       6.443  -0.576  23.298  0.00  0.00    +0.093 A 
ATOM     11  C   UNL     1       8.306  -4.286  24.139  0.00  0.00    +0.208 A 
ENDROOT
BRANCH   1  13
ATOM     12  C   UNL     1       5.213  -5.838  23.587  0.00  0.00    +0.015 A 
ATOM     13  C   UNL     1       6.062  -5.259  24.562  0.00  0.00    +0.025 A 
ATOM     14  C   UNL     1       6.000  -5.780  25.862  0.00  0.00    +0.060 A 
ATOM     15  C   UNL     1       5.059  -6.759  26.177  0.00  0.00    +0.159 A 
ATOM     16  C   UNL     1       4.164  -7.239  25.225  0.00  0.00    +0.158 A 
ATOM     17  C   UNL     1       4.242  -6.792  23.919  0.00  0.00    +0.050 A 
BRANCH  15  18
ATOM     18  O   UNL     1       4.998  -7.240  27.455  0.00  0.00    -0.503 OA
ATOM     19  H   UNL     1       5.509  -6.597  27.987  0.00  0.00    +0.292 HD
ENDBRANCH  15  18
BRANCH  16  20
ATOM     20  O   UNL     1       3.225  -8.149  25.623  0.00  0.00    -0.503 OA
ATOM     21  H   UNL     1       3.352  -8.967  25.110  0.00  0.00    +0.292 HD
ENDBRANCH  16  20
ENDBRANCH   1  13
BRANCH   5  22
ATOM     22  O   UNL     1      10.593  -0.723  23.172  0.00  0.00    -0.506 OA
ATOM     23  H   UNL     1      10.898   0.189  23.390  0.00  0.00    +0.292 HD
ENDBRANCH   5  22
BRANCH  11  24
ATOM     24  O   UNL     1       8.980  -5.493  24.223  0.00  0.00    -0.501 OA
ATOM     25  H   UNL     1       8.488  -6.149  23.700  0.00  0.00    +0.292 HD
ENDBRANCH  11  24
BRANCH   7  26
ATOM     26  O   UNL     1       6.527   1.770  22.747  0.00  0.00    -0.461 OA
BRANCH  26  27
ATOM     27  C   UNL     1       7.166   2.902  23.375  0.00  0.00    +0.339 C 
ATOM     28  O   UNL     1       6.300   3.525  24.336  0.00  0.00    -0.331 OA
ATOM     29  C   UNL     1       5.348   4.463  23.819  0.00  0.00    +0.179 C 
ATOM     30  C   UNL     1       6.117   5.638  23.224  0.00  0.00    +0.177 C 
ATOM     31  C   UNL     1       6.972   5.138  22.052  0.00  0.00    +0.180 C 
ATOM     32  C   UNL     1       7.857   3.951  22.458  0.00  0.00    +0.214 C 
BRANCH  30  33
ATOM     33  O   UNL     1       5.226   6.661  22.784  0.00  0.00    -0.386 OA
ATOM     34  H   UNL     1       5.789   7.338  22.358  0.00  0.00    +0.210 HD
ENDBRANCH  30  33
BRANCH  31  35
ATOM     35  O   UNL     1       7.759   6.246  21.573  0.00  0.00    -0.386 OA
ATOM     36  H   UNL     1       8.694   5.951  21.588  0.00  0.00    +0.210 HD
ENDBRANCH  31  35
BRANCH  32  37
ATOM     37  O   UNL     1       8.988   4.538  23.168  0.00  0.00    -0.383 OA
ATOM     38  H   UNL     1       8.934   5.510  23.073  0.00  0.00    +0.210 HD
ENDBRANCH  32  37
BRANCH  29  39
ATOM     39  C   UNL     1       4.307   3.895  22.823  0.00  0.00    +0.190 C 
BRANCH  39  40
ATOM     40  O   UNL     1       3.767   2.640  23.219  0.00  0.00    -0.392 OA
ATOM     41  H   UNL     1       4.073   1.967  22.589  0.00  0.00    +0.210 HD
ENDBRANCH  39  40
ENDBRANCH  29  39
ENDBRANCH  26  27
ENDBRANCH   7  26
TORSDOF 12
ENDMDL
MODEL 2
REMARK VINA RESULT:      -7.5      2.007      9.332
REMARK  Name = 
REMARK  12 active torsions:
REMARK  status: ('A' for Active; 'I' for Inactive)
REMARK    1  A    between atoms: C_3  and  O_38
REMARK    2  A    between atoms: C_4  and  O_37
REMARK    3  A    between atoms: C_6  and  C_7
REMARK    4  A    between atoms: C_8  and  O_36
REMARK    5  A    between atoms: C_12  and  O_35
REMARK    6  A    between atoms: C_14  and  O_18
REMARK    7  A    between atoms: O_18  and  C_19
REMARK    8  A    between atoms: C_21  and  O_34
REMARK    9  A    between atoms: C_23  and  O_33
REMARK   10  A    between atoms: C_25  and  O_32
REMARK   11  A    between atoms: C_27  and  C_30
REMARK   12  A    between atoms: C_30  and  O_31
REMARK                            x       y       z     vdW  Elec       q    Type
REMARK                         _______ _______ _______ _____ _____    ______ ____
ROOT
ATOM      1  C   UNL     1       8.391   0.119  23.681  0.00  0.00    +0.181 A 
ATOM      2  O   UNL     1       7.578  -0.460  24.674  0.00  0.00    -0.451 OA
ATOM      3  C   UNL     1       7.904  -1.715  25.162  0.00  0.00    +0.147 A 
ATOM      4  C   UNL     1       8.948  -2.455  24.614  0.00  0.00    +0.109 A 
ATOM      5  C   UNL     1       9.251  -3.722  25.108  0.00  0.00    +0.135 A 
ATOM      6  C   UNL     1       8.512  -4.270  26.147  0.00  0.00    +0.092 A 
ATOM      7  C   UNL     1       7.429  -3.570  26.695  0.00  0.00    +0.131 A 
ATOM      8  C   UNL     1       9.741  -1.895  23.528  0.00  0.00    +0.238 A 
ATOM      9  O   UNL     1      10.612  -2.568  22.993  0.00  0.00    -0.283 OA
ATOM     10  C   UNL     1       7.148  -2.272  26.218  0.00  0.00    +0.093 A 
ATOM     11  C   UNL     1       9.468  -0.498  23.149  0.00  0.00    +0.208 A 
ENDROOT
BRANCH   1  13
ATOM     12  C   UNL     1       6.827   1.748  22.514  0.00  0.00    +0.015 A 
ATOM     13  C   UNL     1       8.002   1.502  23.267  0.00  0.00    +0.025 A 
ATOM     14  C   UNL     1       8.806   2.605  23.586  0.00  0.00    +0.060 A 
ATOM     15  C   UNL     1       8.490   3.867  23.085  0.00  0.00    +0.159 A 
ATOM     16  C   UNL     1       7.385   4.065  22.260  0.00  0.00    +0.158 A 
ATOM     17  C   UNL     1       6.538   3.009  21.978  0.00  0.00    +0.050 A 
BRANCH  15  18
ATOM     18  O   UNL     1       9.296   4.927  23.389  0.00  0.00    -0.503 OA
ATOM     19  H   UNL     1       8.680   5.640  23.652  0.00  0.00    +0.292 HD
ENDBRANCH  15  18
BRANCH  16  20
ATOM     20  O   UNL     1       7.177   5.316  21.750  0.00  0.00    -0.503 OA
ATOM     21  H   UNL     1       6.975   5.919  22.487  0.00  0.00    +0.292 HD
ENDBRANCH  16  20
ENDBRANCH   1  13
BRANCH   5  22
ATOM     22  O   UNL     1      10.253  -4.513  24.606  0.00  0.00    -0.506 OA
ATOM     23  H   UNL     1      11.113  -4.174  24.947  0.00  0.00    +0.292 HD
ENDBRANCH   5  22
BRANCH  11  24
ATOM     24  O   UNL     1      10.381   0.071  22.276  0.00  0.00    -0.501 OA
ATOM     25  H   UNL     1      10.903   0.724  22.771  0.00  0.00    +0.292 HD
ENDBRANCH  11  24
BRANCH   7  26
ATOM     26  O   UNL     1       6.596  -4.114  27.673  0.00  0.00    -0.461 OA
BRANCH  26  27
ATOM     27  C   UNL     1       6.583  -5.558  27.670  0.00  0.00    +0.339 C 
ATOM     28  O   UNL     1       6.232  -6.076  26.378  0.00  0.00    -0.331 OA
ATOM     29  C   UNL     1       4.832  -6.151  26.083  0.00  0.00    +0.179 C 
ATOM     30  C   UNL     1       4.199  -7.150  27.047  0.00  0.00    +0.177 C 
ATOM     31  C   UNL     1       4.353  -6.630  28.482  0.00  0.00    +0.180 C 
ATOM     32  C   UNL     1       5.811  -6.282  28.810  0.00  0.00    +0.214 C 
BRANCH  30  33
ATOM     33  O   UNL     1       2.822  -7.353  26.740  0.00  0.00    -0.386 OA
ATOM     34  H   UNL     1       2.324  -7.005  27.508  0.00  0.00    +0.210 HD
ENDBRANCH  30  33
BRANCH  31  35
ATOM     35  O   UNL     1       3.835  -7.635  29.376  0.00  0.00    -0.386 OA
ATOM     36  H   UNL     1       4.073  -8.503  28.987  0.00  0.00    +0.210 HD
ENDBRANCH  31  35
BRANCH  32  37
ATOM     37  O   UNL     1       6.459  -7.557  29.093  0.00  0.00    -0.383 OA
ATOM     38  H   UNL     1       6.273  -8.164  28.348  0.00  0.00    +0.210 HD
ENDBRANCH  32  37
BRANCH  29  39
ATOM     39  C   UNL     1       4.067  -4.805  26.069  0.00  0.00    +0.190 C 
BRANCH  39  40
ATOM     40  O   UNL     1       2.936  -4.803  25.206  0.00  0.00    -0.392 OA
ATOM     41  H   UNL     1       2.756  -5.720  24.941  0.00  0.00    +0.210 HD
ENDBRANCH  39  40
ENDBRANCH  29  39
ENDBRANCH  26  27
ENDBRANCH   7  26
TORSDOF 12
ENDMDL
MODEL 3
REMARK VINA RESULT:      -7.4      0.769      2.071
REMARK  Name = 
REMARK  12 active torsions:
REMARK  status: ('A' for Active; 'I' for Inactive)
REMARK    1  A    between atoms: C_3  and  O_38
REMARK    2  A    between atoms: C_4  and  O_37
REMARK    3  A    between atoms: C_6  and  C_7
REMARK    4  A    between atoms: C_8  and  O_36
REMARK    5  A    between atoms: C_12  and  O_35
REMARK    6  A    between atoms: C_14  and  O_18
REMARK    7  A    between atoms: O_18  and  C_19
REMARK    8  A    between atoms: C_21  and  O_34
REMARK    9  A    between atoms: C_23  and  O_33
REMARK   10  A    between atoms: C_25  and  O_32
REMARK   11  A    between atoms: C_27  and  C_30
REMARK   12  A    between atoms: C_30  and  O_31
REMARK                            x       y       z     vdW  Elec       q    Type
REMARK                         _______ _______ _______ _____ _____    ______ ____
ROOT
ATOM      1  C   UNL     1       6.915  -4.040  24.534  0.00  0.00    +0.181 A 
ATOM      2  O   UNL     1       6.310  -2.773  24.640  0.00  0.00    -0.451 OA
ATOM      3  C   UNL     1       7.065  -1.643  24.372  0.00  0.00    +0.147 A 
ATOM      4  C   UNL     1       8.429  -1.730  24.111  0.00  0.00    +0.109 A 
ATOM      5  C   UNL     1       9.175  -0.580  23.859  0.00  0.00    +0.135 A 
ATOM      6  C   UNL     1       8.573   0.669  23.875  0.00  0.00    +0.092 A 
ATOM      7  C   UNL     1       7.210   0.798  24.175  0.00  0.00    +0.131 A 
ATOM      8  C   UNL     1       9.080  -3.034  24.082  0.00  0.00    +0.238 A 
ATOM      9  O   UNL     1      10.291  -3.113  23.924  0.00  0.00    -0.283 OA
ATOM     10  C   UNL     1       6.450  -0.372  24.392  0.00  0.00    +0.093 A 
ATOM     11  C   UNL     1       8.214  -4.219  24.209  0.00  0.00    +0.208 A 
ENDROOT
BRANCH   1  13
ATOM     12  C   UNL     1       5.180  -5.720  23.744  0.00  0.00    +0.015 A 
ATOM     13  C   UNL     1       6.006  -5.202  24.772  0.00  0.00    +0.025 A 
ATOM     14  C   UNL     1       5.919  -5.805  26.034  0.00  0.00    +0.060 A 
ATOM     15  C   UNL     1       4.976  -6.805  26.266  0.00  0.00    +0.159 A 
ATOM     16  C   UNL     1       4.102  -7.226  25.266  0.00  0.00    +0.158 A 
ATOM     17  C   UNL     1       4.205  -6.695  23.994  0.00  0.00    +0.050 A 
BRANCH  15  18
ATOM     18  O   UNL     1       4.890  -7.367  27.509  0.00  0.00    -0.503 OA
ATOM     19  H   UNL     1       3.949  -7.273  27.759  0.00  0.00    +0.292 HD
ENDBRANCH  15  18
BRANCH  16  20
ATOM     20  O   UNL     1       3.158  -8.161  25.586  0.00  0.00    -0.503 OA
ATOM     21  H   UNL     1       2.722  -8.451  24.765  0.00  0.00    +0.292 HD
ENDBRANCH  16  20
ENDBRANCH   1  13
BRANCH   5  22
ATOM     22  O   UNL     1      10.524  -0.590  23.611  0.00  0.00    -0.506 OA
ATOM     23  H   UNL     1      10.705   0.031  22.867  0.00  0.00    +0.292 HD
ENDBRANCH   5  22
BRANCH  11  24
ATOM     24  O   UNL     1       8.828  -5.434  23.954  0.00  0.00    -0.501 OA
ATOM     25  H   UNL     1       8.485  -5.773  23.110  0.00  0.00    +0.292 HD
ENDBRANCH  11  24
BRANCH   7  26
ATOM     26  O   UNL     1       6.578   2.034  24.298  0.00  0.00    -0.461 OA
BRANCH  26  27
ATOM     27  C   UNL     1       6.111   2.563  23.038  0.00  0.00    +0.339 C 
ATOM     28  O   UNL     1       7.191   2.720  22.104  0.00  0.00    -0.331 OA
ATOM     29  C   UNL     1       7.962   3.922  22.221  0.00  0.00    +0.179 C 
ATOM     30  C   UNL     1       7.048   5.103  21.906  0.00  0.00    +0.177 C 
ATOM     31  C   UNL     1       5.923   5.160  22.947  0.00  0.00    +0.180 C 
ATOM     32  C   UNL     1       5.190   3.817  23.070  0.00  0.00    +0.214 C 
BRANCH  30  33
ATOM     33  O   UNL     1       7.779   6.327  21.901  0.00  0.00    -0.386 OA
ATOM     34  H   UNL     1       8.521   6.191  21.278  0.00  0.00    +0.210 HD
ENDBRANCH  30  33
BRANCH  31  35
ATOM     35  O   UNL     1       5.024   6.221  22.570  0.00  0.00    -0.386 OA
ATOM     36  H   UNL     1       4.244   5.793  22.157  0.00  0.00    +0.210 HD
ENDBRANCH  31  35
BRANCH  32  37
ATOM     37  O   UNL     1       4.277   3.769  21.934  0.00  0.00    -0.383 OA
ATOM     38  H   UNL     1       3.549   4.401  22.103  0.00  0.00    +0.210 HD
ENDBRANCH  32  37
BRANCH  29  39
ATOM     39  C   UNL     1       8.712   4.120  23.561  0.00  0.00    +0.190 C 
BRANCH  39  40
ATOM     40  O   UNL     1       9.934   4.837  23.428  0.00  0.00    -0.392 OA
ATOM     41  H   UNL     1      10.410   4.483  22.659  0.00  0.00    +0.210 HD
ENDBRANCH  39  40
ENDBRANCH  29  39
ENDBRANCH  26  27
ENDBRANCH   7  26
TORSDOF 12
ENDMDL
MODEL 4
REMARK VINA RESULT:      -7.2      1.154      2.221
REMARK  Name = 
REMARK  12 active torsions:
REMARK  status: ('A' for Active; 'I' for Inactive)
REMARK    1  A    between atoms: C_3  and  O_38
REMARK    2  A    between atoms: C_4  and  O_37
REMARK    3  A    between atoms: C_6  and  C_7
REMARK    4  A    between atoms: C_8  and  O_36
REMARK    5  A    between atoms: C_12  and  O_35
REMARK    6  A    between atoms: C_14  and  O_18
REMARK    7  A    between atoms: O_18  and  C_19
REMARK    8  A    between atoms: C_21  and  O_34
REMARK    9  A    between atoms: C_23  and  O_33
REMARK   10  A    between atoms: C_25  and  O_32
REMARK   11  A    between atoms: C_27  and  C_30
REMARK   12  A    between atoms: C_30  and  O_31
REMARK                            x       y       z     vdW  Elec       q    Type
REMARK                         _______ _______ _______ _____ _____    ______ ____
ROOT
ATOM      1  C   UNL     1       6.835  -3.851  24.139  0.00  0.00    +0.181 A 
ATOM      2  O   UNL     1       6.282  -2.586  23.864  0.00  0.00    -0.451 OA
ATOM      3  C   UNL     1       7.121  -1.555  23.475  0.00  0.00    +0.147 A 
ATOM      4  C   UNL     1       8.504  -1.715  23.459  0.00  0.00    +0.109 A 
ATOM      5  C   UNL     1       9.333  -0.662  23.079  0.00  0.00    +0.135 A 
ATOM      6  C   UNL     1       8.795   0.567  22.723  0.00  0.00    +0.092 A 
ATOM      7  C   UNL     1       7.410   0.776  22.767  0.00  0.00    +0.131 A 
ATOM      8  C   UNL     1       9.089  -2.999  23.822  0.00  0.00    +0.238 A 
ATOM      9  O   UNL     1      10.305  -3.127  23.880  0.00  0.00    -0.283 OA
ATOM     10  C   UNL     1       6.571  -0.304  23.115  0.00  0.00    +0.093 A 
ATOM     11  C   UNL     1       8.158  -4.114  24.071  0.00  0.00    +0.208 A 
ENDROOT
BRANCH   1  13
ATOM     12  C   UNL     1       5.815  -5.513  25.767  0.00  0.00    +0.015 A 
ATOM     13  C   UNL     1       5.846  -4.917  24.482  0.00  0.00    +0.025 A 
ATOM     14  C   UNL     1       4.929  -5.386  23.531  0.00  0.00    +0.060 A 
ATOM     15  C   UNL     1       4.100  -6.466  23.834  0.00  0.00    +0.159 A 
ATOM     16  C   UNL     1       4.161  -7.103  25.071  0.00  0.00    +0.158 A 
ATOM     17  C   UNL     1       5.010  -6.625  26.052  0.00  0.00    +0.050 A 
BRANCH  15  18
ATOM     18  O   UNL     1       3.227  -6.924  22.888  0.00  0.00    -0.503 OA
ATOM     19  H   UNL     1       3.729  -6.888  22.049  0.00  0.00    +0.292 HD
ENDBRANCH  15  18
BRANCH  16  20
ATOM     20  O   UNL     1       3.367  -8.198  25.272  0.00  0.00    -0.503 OA
ATOM     21  H   UNL     1       3.867  -8.992  25.013  0.00  0.00    +0.292 HD
ENDBRANCH  16  20
ENDBRANCH   1  13
BRANCH   5  22
ATOM     22  O   UNL     1      10.702  -0.743  23.056  0.00  0.00    -0.506 OA
ATOM     23  H   UNL     1      10.967  -1.584  23.498  0.00  0.00    +0.292 HD
ENDBRANCH   5  22
BRANCH  11  24
ATOM     24  O   UNL     1       8.745  -5.362  24.192  0.00  0.00    -0.501 OA
ATOM     25  H   UNL     1       8.207  -5.889  24.808  0.00  0.00    +0.292 HD
ENDBRANCH  11  24
BRANCH   7  26
ATOM     26  O   UNL     1       6.827   2.016  22.512  0.00  0.00    -0.461 OA
BRANCH  26  27
ATOM     27  C   UNL     1       6.267   2.636  23.690  0.00  0.00    +0.339 C 
ATOM     28  O   UNL     1       5.480   3.788  23.351  0.00  0.00    -0.331 OA
ATOM     29  C   UNL     1       6.198   5.013  23.157  0.00  0.00    +0.179 C 
ATOM     30  C   UNL     1       6.839   5.402  24.486  0.00  0.00    +0.177 C 
ATOM     31  C   UNL     1       7.849   4.321  24.892  0.00  0.00    +0.180 C 
ATOM     32  C   UNL     1       7.220   2.920  24.886  0.00  0.00    +0.214 C 
BRANCH  30  33
ATOM     33  O   UNL     1       7.484   6.669  24.390  0.00  0.00    -0.386 OA
ATOM     34  H   UNL     1       6.878   7.237  23.873  0.00  0.00    +0.210 HD
ENDBRANCH  30  33
BRANCH  31  35
ATOM     35  O   UNL     1       8.366   4.663  26.193  0.00  0.00    -0.386 OA
ATOM     36  H   UNL     1       7.630   5.086  26.683  0.00  0.00    +0.210 HD
ENDBRANCH  31  35
BRANCH  32  37
ATOM     37  O   UNL     1       6.466   2.830  26.131  0.00  0.00    -0.383 OA
ATOM     38  H   UNL     1       6.644   3.638  26.653  0.00  0.00    +0.210 HD
ENDBRANCH  32  37
BRANCH  29  39
ATOM     39  C   UNL     1       7.228   5.020  22.000  0.00  0.00    +0.190 C 
BRANCH  39  40
ATOM     40  O   UNL     1       7.425   6.306  21.423  0.00  0.00    -0.392 OA
ATOM     41  H   UNL     1       7.449   6.203  20.457  0.00  0.00    +0.210 HD
ENDBRANCH  39  40
ENDBRANCH  29  39
ENDBRANCH  26  27
ENDBRANCH   7  26
TORSDOF 12
ENDMDL
MODEL 5
REMARK VINA RESULT:      -7.2      1.993      9.305
REMARK  Name = 
REMARK  12 active torsions:
REMARK  status: ('A' for Active; 'I' for Inactive)
REMARK    1  A    between atoms: C_3  and  O_38
REMARK    2  A    between atoms: C_4  and  O_37
REMARK    3  A    between atoms: C_6  and  C_7
REMARK    4  A    between atoms: C_8  and  O_36
REMARK    5  A    between atoms: C_12  and  O_35
REMARK    6  A    between atoms: C_14  and  O_18
REMARK    7  A    between atoms: O_18  and  C_19
REMARK    8  A    between atoms: C_21  and  O_34
REMARK    9  A    between atoms: C_23  and  O_33
REMARK   10  A    between atoms: C_25  and  O_32
REMARK   11  A    between atoms: C_27  and  C_30
REMARK   12  A    between atoms: C_30  and  O_31
REMARK                            x       y       z     vdW  Elec       q    Type
REMARK                         _______ _______ _______ _____ _____    ______ ____
ROOT
ATOM      1  C   UNL     1       8.374  -0.235  23.867  0.00  0.00    +0.181 A 
ATOM      2  O   UNL     1       7.340  -0.879  24.574  0.00  0.00    -0.451 OA
ATOM      3  C   UNL     1       7.522  -2.189  24.985  0.00  0.00    +0.147 A 
ATOM      4  C   UNL     1       8.654  -2.912  24.620  0.00  0.00    +0.109 A 
ATOM      5  C   UNL     1       8.813  -4.234  25.031  0.00  0.00    +0.135 A 
ATOM      6  C   UNL     1       7.840  -4.854  25.801  0.00  0.00    +0.092 A 
ATOM      7  C   UNL     1       6.669  -4.171  26.153  0.00  0.00    +0.131 A 
ATOM      8  C   UNL     1       9.692  -2.276  23.817  0.00  0.00    +0.238 A 
ATOM      9  O   UNL     1      10.655  -2.925  23.431  0.00  0.00    -0.283 OA
ATOM     10  C   UNL     1       6.529  -2.820  25.768  0.00  0.00    +0.093 A 
ATOM     11  C   UNL     1       9.537  -0.838  23.539  0.00  0.00    +0.208 A 
ENDROOT
BRANCH   1  13
ATOM     12  C   UNL     1       7.364   1.563  22.383  0.00  0.00    +0.015 A 
ATOM     13  C   UNL     1       8.116   1.197  23.527  0.00  0.00    +0.025 A 
ATOM     14  C   UNL     1       8.634   2.233  24.316  0.00  0.00    +0.060 A 
ATOM     15  C   UNL     1       8.486   3.559  23.911  0.00  0.00    +0.159 A 
ATOM     16  C   UNL     1       7.832   3.888  22.726  0.00  0.00    +0.158 A 
ATOM     17  C   UNL     1       7.255   2.894  21.959  0.00  0.00    +0.050 A 
BRANCH  15  18
ATOM     18  O   UNL     1       9.017   4.555  24.681  0.00  0.00    -0.503 OA
ATOM     19  H   UNL     1       8.342   4.723  25.369  0.00  0.00    +0.292 HD
ENDBRANCH  15  18
BRANCH  16  20
ATOM     20  O   UNL     1       7.786   5.204  22.360  0.00  0.00    -0.503 OA
ATOM     21  H   UNL     1       8.427   5.697  22.903  0.00  0.00    +0.292 HD
ENDBRANCH  16  20
ENDBRANCH   1  13
BRANCH   5  22
ATOM     22  O   UNL     1       9.893  -5.009  24.694  0.00  0.00    -0.506 OA
ATOM     23  H   UNL     1      10.518  -5.013  25.456  0.00  0.00    +0.292 HD
ENDBRANCH   5  22
BRANCH  11  24
ATOM     24  O   UNL     1      10.639  -0.220  22.972  0.00  0.00    -0.501 OA
ATOM     25  H   UNL     1      11.297  -0.906  22.769  0.00  0.00    +0.292 HD
ENDBRANCH  11  24
BRANCH   7  26
ATOM     26  O   UNL     1       5.620  -4.777  26.843  0.00  0.00    -0.461 OA
BRANCH  26  27
ATOM     27  C   UNL     1       4.403  -4.862  26.070  0.00  0.00    +0.339 C 
ATOM     28  O   UNL     1       3.245  -4.888  26.919  0.00  0.00    -0.331 OA
ATOM     29  C   UNL     1       2.884  -6.164  27.461  0.00  0.00    +0.179 C 
ATOM     30  C   UNL     1       2.493  -7.077  26.302  0.00  0.00    +0.177 C 
ATOM     31  C   UNL     1       3.708  -7.278  25.388  0.00  0.00    +0.180 C 
ATOM     32  C   UNL     1       4.323  -5.940  24.952  0.00  0.00    +0.214 C 
BRANCH  30  33
ATOM     33  O   UNL     1       2.020  -8.334  26.779  0.00  0.00    -0.386 OA
ATOM     34  H   UNL     1       2.629  -9.005  26.408  0.00  0.00    +0.210 HD
ENDBRANCH  30  33
BRANCH  31  35
ATOM     35  O   UNL     1       3.286  -8.061  24.254  0.00  0.00    -0.386 OA
ATOM     36  H   UNL     1       3.762  -8.916  24.313  0.00  0.00    +0.210 HD
ENDBRANCH  31  35
BRANCH  32  37
ATOM     37  O   UNL     1       3.465  -5.453  23.877  0.00  0.00    -0.383 OA
ATOM     38  H   UNL     1       3.747  -4.543  23.653  0.00  0.00    +0.210 HD
ENDBRANCH  32  37
BRANCH  29  39
ATOM     39  C   UNL     1       3.931  -6.831  28.386  0.00  0.00    +0.190 C 
BRANCH  39  40
ATOM     40  O   UNL     1       3.375  -7.794  29.273  0.00  0.00    -0.392 OA
ATOM     41  H   UNL     1       2.889  -7.320  29.968  0.00  0.00    +0.210 HD
ENDBRANCH  39  40
ENDBRANCH  29  39
ENDBRANCH  26  27
ENDBRANCH   7  26
TORSDOF 12
ENDMDL
MODEL 6
REMARK VINA RESULT:      -7.2      2.087      8.890
REMARK  Name = 
REMARK  12 active torsions:
REMARK  status: ('A' for Active; 'I' for Inactive)
REMARK    1  A    between atoms: C_3  and  O_38
REMARK    2  A    between atoms: C_4  and  O_37
REMARK    3  A    between atoms: C_6  and  C_7
REMARK    4  A    between atoms: C_8  and  O_36
REMARK    5  A    between atoms: C_12  and  O_35
REMARK    6  A    between atoms: C_14  and  O_18
REMARK    7  A    between atoms: O_18  and  C_19
REMARK    8  A    between atoms: C_21  and  O_34
REMARK    9  A    between atoms: C_23  and  O_33
REMARK   10  A    between atoms: C_25  and  O_32
REMARK   11  A    between atoms: C_27  and  C_30
REMARK   12  A    between atoms: C_30  and  O_31
REMARK                            x       y       z     vdW  Elec       q    Type
REMARK                         _______ _______ _______ _____ _____    ______ ____
ROOT
ATOM      1  C   UNL     1       7.711   2.221  23.949  0.00  0.00    +0.181 A 
ATOM      2  O   UNL     1       6.970   1.044  24.168  0.00  0.00    -0.451 OA
ATOM      3  C   UNL     1       7.408  -0.142  23.600  0.00  0.00    +0.147 A 
ATOM      4  C   UNL     1       8.495  -0.169  22.731  0.00  0.00    +0.109 A 
ATOM      5  C   UNL     1       8.911  -1.369  22.157  0.00  0.00    +0.135 A 
ATOM      6  C   UNL     1       8.242  -2.553  22.433  0.00  0.00    +0.092 A 
ATOM      7  C   UNL     1       7.119  -2.555  23.271  0.00  0.00    +0.131 A 
ATOM      8  C   UNL     1       9.216   1.061  22.433  0.00  0.00    +0.238 A 
ATOM      9  O   UNL     1      10.126   1.058  21.615  0.00  0.00    -0.283 OA
ATOM     10  C   UNL     1       6.723  -1.345  23.881  0.00  0.00    +0.093 A 
ATOM     11  C   UNL     1       8.823   2.267  23.182  0.00  0.00    +0.208 A 
ENDROOT
BRANCH   1  13
ATOM     12  C   UNL     1       6.305   4.335  24.035  0.00  0.00    +0.015 A 
ATOM     13  C   UNL     1       7.203   3.434  24.658  0.00  0.00    +0.025 A 
ATOM     14  C   UNL     1       7.622   3.739  25.960  0.00  0.00    +0.060 A 
ATOM     15  C   UNL     1       7.234   4.938  26.556  0.00  0.00    +0.159 A 
ATOM     16  C   UNL     1       6.433   5.857  25.882  0.00  0.00    +0.158 A 
ATOM     17  C   UNL     1       5.952   5.558  24.621  0.00  0.00    +0.050 A 
BRANCH  15  18
ATOM     18  O   UNL     1       7.669   5.229  27.818  0.00  0.00    -0.503 OA
ATOM     19  H   UNL     1       8.642   5.129  27.774  0.00  0.00    +0.292 HD
ENDBRANCH  15  18
BRANCH  16  20
ATOM     20  O   UNL     1       6.150   7.042  26.502  0.00  0.00    -0.503 OA
ATOM     21  H   UNL     1       5.182   7.147  26.538  0.00  0.00    +0.292 HD
ENDBRANCH  16  20
ENDBRANCH   1  13
BRANCH   5  22
ATOM     22  O   UNL     1       9.961  -1.467  21.280  0.00  0.00    -0.506 OA
ATOM     23  H   UNL     1       9.632  -1.888  20.452  0.00  0.00    +0.292 HD
ENDBRANCH   5  22
BRANCH  11  24
ATOM     24  O   UNL     1       9.666   3.356  23.042  0.00  0.00    -0.501 OA
ATOM     25  H   UNL     1      10.205   3.425  23.848  0.00  0.00    +0.292 HD
ENDBRANCH  11  24
BRANCH   7  26
ATOM     26  O   UNL     1       6.355  -3.698  23.505  0.00  0.00    -0.461 OA
BRANCH  26  27
ATOM     27  C   UNL     1       7.136  -4.820  23.969  0.00  0.00    +0.339 C 
ATOM     28  O   UNL     1       6.308  -5.810  24.599  0.00  0.00    -0.331 OA
ATOM     29  C   UNL     1       5.981  -5.583  25.975  0.00  0.00    +0.179 C 
ATOM     30  C   UNL     1       7.273  -5.638  26.784  0.00  0.00    +0.177 C 
ATOM     31  C   UNL     1       8.203  -4.507  26.326  0.00  0.00    +0.180 C 
ATOM     32  C   UNL     1       8.414  -4.523  24.805  0.00  0.00    +0.214 C 
BRANCH  30  33
ATOM     33  O   UNL     1       7.007  -5.524  28.180  0.00  0.00    -0.386 OA
ATOM     34  H   UNL     1       6.834  -6.434  28.493  0.00  0.00    +0.210 HD
ENDBRANCH  30  33
BRANCH  31  35
ATOM     35  O   UNL     1       9.450  -4.642  27.035  0.00  0.00    -0.386 OA
ATOM     36  H   UNL     1      10.154  -4.346  26.420  0.00  0.00    +0.210 HD
ENDBRANCH  31  35
BRANCH  32  37
ATOM     37  O   UNL     1       9.400  -5.570  24.563  0.00  0.00    -0.383 OA
ATOM     38  H   UNL     1      10.283  -5.151  24.518  0.00  0.00    +0.210 HD
ENDBRANCH  32  37
BRANCH  29  39
ATOM     39  C   UNL     1       5.171  -4.298  26.277  0.00  0.00    +0.190 C 
BRANCH  39  40
ATOM     40  O   UNL     1       4.410  -4.375  27.477  0.00  0.00    -0.392 OA
ATOM     41  H   UNL     1       4.096  -5.289  27.578  0.00  0.00    +0.210 HD
ENDBRANCH  39  40
ENDBRANCH  29  39
ENDBRANCH  26  27
ENDBRANCH   7  26
TORSDOF 12
ENDMDL
MODEL 7
REMARK VINA RESULT:      -7.1      1.736      9.153
REMARK  Name = 
REMARK  12 active torsions:
REMARK  status: ('A' for Active; 'I' for Inactive)
REMARK    1  A    between atoms: C_3  and  O_38
REMARK    2  A    between atoms: C_4  and  O_37
REMARK    3  A    between atoms: C_6  and  C_7
REMARK    4  A    between atoms: C_8  and  O_36
REMARK    5  A    between atoms: C_12  and  O_35
REMARK    6  A    between atoms: C_14  and  O_18
REMARK    7  A    between atoms: O_18  and  C_19
REMARK    8  A    between atoms: C_21  and  O_34
REMARK    9  A    between atoms: C_23  and  O_33
REMARK   10  A    between atoms: C_25  and  O_32
REMARK   11  A    between atoms: C_27  and  C_30
REMARK   12  A    between atoms: C_30  and  O_31
REMARK                            x       y       z     vdW  Elec       q    Type
REMARK                         _______ _______ _______ _____ _____    ______ ____
ROOT
ATOM      1  C   UNL     1       7.092   2.189  23.173  0.00  0.00    +0.181 A 
ATOM      2  O   UNL     1       6.470   0.968  23.499  0.00  0.00    -0.451 OA
ATOM      3  C   UNL     1       7.138  -0.217  23.236  0.00  0.00    +0.147 A 
ATOM      4  C   UNL     1       8.354  -0.228  22.558  0.00  0.00    +0.109 A 
ATOM      5  C   UNL     1       9.003  -1.431  22.290  0.00  0.00    +0.135 A 
ATOM      6  C   UNL     1       8.443  -2.638  22.683  0.00  0.00    +0.092 A 
ATOM      7  C   UNL     1       7.201  -2.667  23.330  0.00  0.00    +0.131 A 
ATOM      8  C   UNL     1       8.963   1.029  22.143  0.00  0.00    +0.238 A 
ATOM      9  O   UNL     1       9.995   1.025  21.485  0.00  0.00    -0.283 OA
ATOM     10  C   UNL     1       6.564  -1.445  23.635  0.00  0.00    +0.093 A 
ATOM     11  C   UNL     1       8.305   2.272  22.585  0.00  0.00    +0.208 A 
ENDROOT
BRANCH   1  13
ATOM     12  C   UNL     1       6.225   3.832  24.906  0.00  0.00    +0.015 A 
ATOM     13  C   UNL     1       6.328   3.414  23.556  0.00  0.00    +0.025 A 
ATOM     14  C   UNL     1       5.660   4.182  22.592  0.00  0.00    +0.060 A 
ATOM     15  C   UNL     1       4.853   5.248  22.985  0.00  0.00    +0.159 A 
ATOM     16  C   UNL     1       4.685   5.575  24.329  0.00  0.00    +0.158 A 
ATOM     17  C   UNL     1       5.379   4.877  25.300  0.00  0.00    +0.050 A 
BRANCH  15  18
ATOM     18  O   UNL     1       4.192   5.972  22.034  0.00  0.00    -0.503 OA
ATOM     19  H   UNL     1       3.514   6.475  22.530  0.00  0.00    +0.292 HD
ENDBRANCH  15  18
BRANCH  16  20
ATOM     20  O   UNL     1       3.823   6.589  24.643  0.00  0.00    -0.503 OA
ATOM     21  H   UNL     1       4.122   6.999  25.475  0.00  0.00    +0.292 HD
ENDBRANCH  16  20
ENDBRANCH   1  13
BRANCH   5  22
ATOM     22  O   UNL     1      10.193  -1.517  21.613  0.00  0.00    -0.506 OA
ATOM     23  H   UNL     1      10.365  -0.648  21.181  0.00  0.00    +0.292 HD
ENDBRANCH   5  22
BRANCH  11  24
ATOM     24  O   UNL     1       9.024   3.435  22.367  0.00  0.00    -0.501 OA
ATOM     25  H   UNL     1       9.842   3.200  21.897  0.00  0.00    +0.292 HD
ENDBRANCH  11  24
BRANCH   7  26
ATOM     26  O   UNL     1       6.550  -3.856  23.660  0.00  0.00    -0.461 OA
BRANCH  26  27
ATOM     27  C   UNL     1       5.872  -3.799  24.934  0.00  0.00    +0.339 C 
ATOM     28  O   UNL     1       6.736  -3.301  25.966  0.00  0.00    -0.331 OA
ATOM     29  C   UNL     1       7.612  -4.256  26.576  0.00  0.00    +0.179 C 
ATOM     30  C   UNL     1       6.755  -5.288  27.303  0.00  0.00    +0.177 C 
ATOM     31  C   UNL     1       5.886  -6.030  26.279  0.00  0.00    +0.180 C 
ATOM     32  C   UNL     1       5.086  -5.059  25.398  0.00  0.00    +0.214 C 
BRANCH  30  33
ATOM     33  O   UNL     1       7.568  -6.212  28.022  0.00  0.00    -0.386 OA
ATOM     34  H   UNL     1       8.097  -5.672  28.644  0.00  0.00    +0.210 HD
ENDBRANCH  30  33
BRANCH  31  35
ATOM     35  O   UNL     1       5.019  -6.927  27.000  0.00  0.00    -0.386 OA
ATOM     36  H   UNL     1       4.460  -6.368  27.581  0.00  0.00    +0.210 HD
ENDBRANCH  31  35
BRANCH  32  37
ATOM     37  O   UNL     1       3.951  -4.643  26.214  0.00  0.00    -0.383 OA
ATOM     38  H   UNL     1       3.248  -5.317  26.122  0.00  0.00    +0.210 HD
ENDBRANCH  32  37
BRANCH  29  39
ATOM     39  C   UNL     1       8.645  -4.927  25.638  0.00  0.00    +0.190 C 
BRANCH  39  40
ATOM     40  O   UNL     1       9.866  -5.267  26.286  0.00  0.00    -0.392 OA
ATOM     41  H   UNL     1      10.284  -5.986  25.784  0.00  0.00    +0.210 HD
ENDBRANCH  39  40
ENDBRANCH  29  39
ENDBRANCH  26  27
ENDBRANCH   7  26
TORSDOF 12
ENDMDL
MODEL 8
REMARK VINA RESULT:      -7.0      1.685      9.462
REMARK  Name = 
REMARK  12 active torsions:
REMARK  status: ('A' for Active; 'I' for Inactive)
REMARK    1  A    between atoms: C_3  and  O_38
REMARK    2  A    between atoms: C_4  and  O_37
REMARK    3  A    between atoms: C_6  and  C_7
REMARK    4  A    between atoms: C_8  and  O_36
REMARK    5  A    between atoms: C_12  and  O_35
REMARK    6  A    between atoms: C_14  and  O_18
REMARK    7  A    between atoms: O_18  and  C_19
REMARK    8  A    between atoms: C_21  and  O_34
REMARK    9  A    between atoms: C_23  and  O_33
REMARK   10  A    between atoms: C_25  and  O_32
REMARK   11  A    between atoms: C_27  and  C_30
REMARK   12  A    between atoms: C_30  and  O_31
REMARK                            x       y       z     vdW  Elec       q    Type
REMARK                         _______ _______ _______ _____ _____    ______ ____
ROOT
ATOM      1  C   UNL     1       8.260  -0.214  23.787  0.00  0.00    +0.181 A 
ATOM      2  O   UNL     1       7.035  -0.892  23.939  0.00  0.00    -0.451 OA
ATOM      3  C   UNL     1       7.046  -2.262  24.142  0.00  0.00    +0.147 A 
ATOM      4  C   UNL     1       8.230  -2.993  24.087  0.00  0.00    +0.109 A 
ATOM      5  C   UNL     1       8.218  -4.373  24.279  0.00  0.00    +0.135 A 
ATOM      6  C   UNL     1       7.026  -5.042  24.517  0.00  0.00    +0.092 A 
ATOM      7  C   UNL     1       5.811  -4.345  24.537  0.00  0.00    +0.131 A 
ATOM      8  C   UNL     1       9.493  -2.308  23.847  0.00  0.00    +0.238 A 
ATOM      9  O   UNL     1      10.528  -2.950  23.726  0.00  0.00    -0.283 OA
ATOM     10  C   UNL     1       5.831  -2.942  24.381  0.00  0.00    +0.093 A 
ATOM     11  C   UNL     1       9.460  -0.836  23.800  0.00  0.00    +0.208 A 
ENDROOT
BRANCH   1  13
ATOM     12  C   UNL     1       8.853   2.150  24.504  0.00  0.00    +0.015 A 
ATOM     13  C   UNL     1       8.154   1.269  23.643  0.00  0.00    +0.025 A 
ATOM     14  C   UNL     1       7.333   1.843  22.662  0.00  0.00    +0.060 A 
ATOM     15  C   UNL     1       7.151   3.225  22.626  0.00  0.00    +0.159 A 
ATOM     16  C   UNL     1       7.769   4.063  23.551  0.00  0.00    +0.158 A 
ATOM     17  C   UNL     1       8.634   3.534  24.490  0.00  0.00    +0.050 A 
BRANCH  15  18
ATOM     18  O   UNL     1       6.330   3.766  21.677  0.00  0.00    -0.503 OA
ATOM     19  H   UNL     1       6.839   3.704  20.844  0.00  0.00    +0.292 HD
ENDBRANCH  15  18
BRANCH  16  20
ATOM     20  O   UNL     1       7.490   5.400  23.497  0.00  0.00    -0.503 OA
ATOM     21  H   UNL     1       8.214   5.846  23.022  0.00  0.00    +0.292 HD
ENDBRANCH  16  20
ENDBRANCH   1  13
BRANCH   5  22
ATOM     22  O   UNL     1       9.343  -5.156  24.223  0.00  0.00    -0.506 OA
ATOM     23  H   UNL     1      10.093  -4.646  24.607  0.00  0.00    +0.292 HD
ENDBRANCH   5  22
BRANCH  11  24
ATOM     24  O   UNL     1      10.696  -0.213  23.794  0.00  0.00    -0.501 OA
ATOM     25  H   UNL     1      10.556   0.736  23.956  0.00  0.00    +0.292 HD
ENDBRANCH  11  24
BRANCH   7  26
ATOM     26  O   UNL     1       4.579  -4.982  24.676  0.00  0.00    -0.461 OA
BRANCH  26  27
ATOM     27  C   UNL     1       4.677  -6.285  25.291  0.00  0.00    +0.339 C 
ATOM     28  O   UNL     1       4.226  -7.318  24.401  0.00  0.00    -0.331 OA
ATOM     29  C   UNL     1       2.812  -7.545  24.355  0.00  0.00    +0.179 C 
ATOM     30  C   UNL     1       2.368  -8.042  25.728  0.00  0.00    +0.177 C 
ATOM     31  C   UNL     1       2.639  -6.950  26.771  0.00  0.00    +0.180 C 
ATOM     32  C   UNL     1       4.093  -6.462  26.722  0.00  0.00    +0.214 C 
BRANCH  30  33
ATOM     33  O   UNL     1       0.985  -8.388  25.722  0.00  0.00    -0.386 OA
ATOM     34  H   UNL     1       0.499  -7.539  25.724  0.00  0.00    +0.210 HD
ENDBRANCH  30  33
BRANCH  31  35
ATOM     35  O   UNL     1       2.301  -7.481  28.067  0.00  0.00    -0.386 OA
ATOM     36  H   UNL     1       3.149  -7.714  28.502  0.00  0.00    +0.210 HD
ENDBRANCH  31  35
BRANCH  32  37
ATOM     37  O   UNL     1       4.865  -7.475  27.432  0.00  0.00    -0.383 OA
ATOM     38  H   UNL     1       4.933  -8.263  26.856  0.00  0.00    +0.210 HD
ENDBRANCH  32  37
BRANCH  29  39
ATOM     39  C   UNL     1       1.949  -6.354  23.871  0.00  0.00    +0.190 C 
BRANCH  39  40
ATOM     40  O   UNL     1       2.473  -5.702  22.720  0.00  0.00    -0.392 OA
ATOM     41  H   UNL     1       2.805  -4.831  22.991  0.00  0.00    +0.210 HD
ENDBRANCH  39  40
ENDBRANCH  29  39
ENDBRANCH  26  27
ENDBRANCH   7  26
TORSDOF 12
ENDMDL
MODEL 9
REMARK VINA RESULT:      -7.0      1.714      9.033
REMARK  Name = 
REMARK  12 active torsions:
REMARK  status: ('A' for Active; 'I' for Inactive)
REMARK    1  A    between atoms: C_3  and  O_38
REMARK    2  A    between atoms: C_4  and  O_37
REMARK    3  A    between atoms: C_6  and  C_7
REMARK    4  A    between atoms: C_8  and  O_36
REMARK    5  A    between atoms: C_12  and  O_35
REMARK    6  A    between atoms: C_14  and  O_18
REMARK    7  A    between atoms: O_18  and  C_19
REMARK    8  A    between atoms: C_21  and  O_34
REMARK    9  A    between atoms: C_23  and  O_33
REMARK   10  A    between atoms: C_25  and  O_32
REMARK   11  A    between atoms: C_27  and  C_30
REMARK   12  A    between atoms: C_30  and  O_31
REMARK                            x       y       z     vdW  Elec       q    Type
REMARK                         _______ _______ _______ _____ _____    ______ ____
ROOT
ATOM      1  C   UNL     1       6.831   1.841  23.035  0.00  0.00    +0.181 A 
ATOM      2  O   UNL     1       6.417   0.546  23.402  0.00  0.00    -0.451 OA
ATOM      3  C   UNL     1       7.286  -0.516  23.213  0.00  0.00    +0.147 A 
ATOM      4  C   UNL     1       8.508  -0.345  22.568  0.00  0.00    +0.109 A 
ATOM      5  C   UNL     1       9.362  -1.428  22.374  0.00  0.00    +0.135 A 
ATOM      6  C   UNL     1       9.004  -2.696  22.809  0.00  0.00    +0.092 A 
ATOM      7  C   UNL     1       7.764  -2.913  23.424  0.00  0.00    +0.131 A 
ATOM      8  C   UNL     1       8.907   0.980  22.110  0.00  0.00    +0.238 A 
ATOM      9  O   UNL     1       9.946   1.125  21.480  0.00  0.00    -0.283 OA
ATOM     10  C   UNL     1       6.918  -1.806  23.654  0.00  0.00    +0.093 A 
ATOM     11  C   UNL     1       8.032   2.107  22.475  0.00  0.00    +0.208 A 
ENDROOT
BRANCH   1  13
ATOM     12  C   UNL     1       5.698   3.438  24.653  0.00  0.00    +0.015 A 
ATOM     13  C   UNL     1       5.856   2.932  23.340  0.00  0.00    +0.025 A 
ATOM     14  C   UNL     1       5.041   3.475  22.337  0.00  0.00    +0.060 A 
ATOM     15  C   UNL     1       4.054   4.402  22.667  0.00  0.00    +0.159 A 
ATOM     16  C   UNL     1       3.848   4.807  23.984  0.00  0.00    +0.158 A 
ATOM     17  C   UNL     1       4.677   4.338  24.986  0.00  0.00    +0.050 A 
BRANCH  15  18
ATOM     18  O   UNL     1       3.253   4.905  21.680  0.00  0.00    -0.503 OA
ATOM     19  H   UNL     1       3.272   4.226  20.976  0.00  0.00    +0.292 HD
ENDBRANCH  15  18
BRANCH  16  20
ATOM     20  O   UNL     1       2.817   5.666  24.241  0.00  0.00    -0.503 OA
ATOM     21  H   UNL     1       2.334   5.825  23.410  0.00  0.00    +0.292 HD
ENDBRANCH  16  20
ENDBRANCH   1  13
BRANCH   5  22
ATOM     22  O   UNL     1      10.572  -1.337  21.733  0.00  0.00    -0.506 OA
ATOM     23  H   UNL     1      11.257  -1.103  22.402  0.00  0.00    +0.292 HD
ENDBRANCH   5  22
BRANCH  11  24
ATOM     24  O   UNL     1       8.548   3.367  22.222  0.00  0.00    -0.501 OA
ATOM     25  H   UNL     1       8.852   3.387  21.299  0.00  0.00    +0.292 HD
ENDBRANCH  11  24
BRANCH   7  26
ATOM     26  O   UNL     1       7.316  -4.181  23.793  0.00  0.00    -0.461 OA
BRANCH  26  27
ATOM     27  C   UNL     1       5.888  -4.242  24.001  0.00  0.00    +0.339 C 
ATOM     28  O   UNL     1       5.545  -3.950  25.364  0.00  0.00    -0.331 OA
ATOM     29  C   UNL     1       5.637  -5.041  26.289  0.00  0.00    +0.179 C 
ATOM     30  C   UNL     1       4.609  -6.093  25.884  0.00  0.00    +0.177 C 
ATOM     31  C   UNL     1       4.957  -6.626  24.488  0.00  0.00    +0.180 C 
ATOM     32  C   UNL     1       5.127  -5.490  23.469  0.00  0.00    +0.214 C 
BRANCH  30  33
ATOM     33  O   UNL     1       4.573  -7.162  26.826  0.00  0.00    -0.386 OA
ATOM     34  H   UNL     1       4.133  -7.906  26.368  0.00  0.00    +0.210 HD
ENDBRANCH  30  33
BRANCH  31  35
ATOM     35  O   UNL     1       3.919  -7.543  24.091  0.00  0.00    -0.386 OA
ATOM     36  H   UNL     1       4.025  -7.682  23.126  0.00  0.00    +0.210 HD
ENDBRANCH  31  35
BRANCH  32  37
ATOM     37  O   UNL     1       3.772  -5.101  23.095  0.00  0.00    -0.383 OA
ATOM     38  H   UNL     1       3.798  -4.175  22.779  0.00  0.00    +0.210 HD
ENDBRANCH  32  37
BRANCH  29  39
ATOM     39  C   UNL     1       7.045  -5.658  26.475  0.00  0.00    +0.190 C 
BRANCH  39  40
ATOM     40  O   UNL     1       7.334  -6.020  27.820  0.00  0.00    -0.392 OA
ATOM     41  H   UNL     1       7.893  -5.326  28.207  0.00  0.00    +0.210 HD
ENDBRANCH  39  40
ENDBRANCH  29  39
ENDBRANCH  26  27
ENDBRANCH   7  26
TORSDOF 12
ENDMDL
