MODEL 1
REMARK VINA RESULT:      -7.7      0.000      0.000
REMARK  Name = 
REMARK  12 active torsions:
REMARK  status: ('A' for Active; 'I' for Inactive)
REMARK    1  A    between atoms: C_3  and  O_22
REMARK    2  A    between atoms: C_4  and  O_21
REMARK    3  A    between atoms: C_6  and  C_7
REMARK    4  A    between atoms: C_8  and  O_20
REMARK    5  A    between atoms: C_12  and  O_19
REMARK    6  A    between atoms: C_14  and  O_18
REMARK    7  A    between atoms: O_22  and  C_23
REMARK    8  A    between atoms: C_25  and  O_38
REMARK    9  A    between atoms: C_27  and  O_37
REMARK   10  A    between atoms: C_29  and  O_36
REMARK   11  A    between atoms: C_31  and  C_34
REMARK   12  A    between atoms: C_34  and  O_35
REMARK                            x       y       z     vdW  Elec       q    Type
REMARK                         _______ _______ _______ _____ _____    ______ ____
ROOT
ATOM      1  C   UNL     1       9.007  -0.268  25.283  0.00  0.00    +0.015 A 
ATOM      2  C   UNL     1       8.843   0.399  24.061  0.00  0.00    +0.025 A 
ATOM      3  C   UNL     1       8.560  -0.399  22.939  0.00  0.00    +0.060 A 
ATOM      4  C   UNL     1       8.385  -1.792  23.065  0.00  0.00    +0.159 A 
ATOM      5  C   UNL     1       8.515  -2.442  24.297  0.00  0.00    +0.165 A 
ATOM      6  C   UNL     1       8.898  -1.659  25.386  0.00  0.00    +0.050 A 
ENDROOT
BRANCH   2   7
ATOM      7  C   UNL     1       9.080   1.876  24.027  0.00  0.00    +0.181 A 
ATOM      8  O   UNL     1      10.401   2.176  23.677  0.00  0.00    -0.451 OA
ATOM      9  C   UNL     1      10.826   3.476  23.652  0.00  0.00    +0.147 A 
ATOM     10  C   UNL     1       9.967   4.545  23.847  0.00  0.00    +0.109 A 
ATOM     11  C   UNL     1      10.452   5.861  23.779  0.00  0.00    +0.135 A 
ATOM     12  C   UNL     1      11.802   6.102  23.524  0.00  0.00    +0.091 A 
ATOM     13  C   UNL     1      12.654   5.019  23.345  0.00  0.00    +0.124 A 
ATOM     14  C   UNL     1       8.559   4.260  24.150  0.00  0.00    +0.238 A 
ATOM     15  O   UNL     1       7.774   5.193  24.302  0.00  0.00    -0.283 OA
ATOM     16  C   UNL     1      12.181   3.711  23.406  0.00  0.00    +0.092 A 
ATOM     17  C   UNL     1       8.162   2.828  24.302  0.00  0.00    +0.208 A 
BRANCH  11  18
ATOM     18  O   UNL     1       9.656   6.959  23.949  0.00  0.00    -0.506 OA
ATOM     19  H   UNL     1      10.235   7.736  24.136  0.00  0.00    +0.292 HD
ENDBRANCH  11  18
BRANCH  13  20
ATOM     20  O   UNL     1      13.985   5.204  23.105  0.00  0.00    -0.507 OA
ATOM     21  H   UNL     1      14.352   4.395  22.711  0.00  0.00    +0.292 HD
ENDBRANCH  13  20
BRANCH  17  22
ATOM     22  O   UNL     1       6.874   2.594  24.744  0.00  0.00    -0.501 OA
ATOM     23  H   UNL     1       6.403   3.440  24.805  0.00  0.00    +0.292 HD
ENDBRANCH  17  22
ENDBRANCH   2   7
BRANCH   4  24
ATOM     24  O   UNL     1       8.076  -2.486  21.926  0.00  0.00    -0.503 OA
ATOM     25  H   UNL     1       7.254  -2.972  22.117  0.00  0.00    +0.292 HD
ENDBRANCH   4  24
BRANCH   5  26
ATOM     26  O   UNL     1       8.246  -3.803  24.382  0.00  0.00    -0.457 OA
BRANCH  26  27
ATOM     27  C   UNL     1       6.925  -4.094  24.898  0.00  0.00    +0.339 C 
ATOM     28  O   UNL     1       6.559  -5.473  24.785  0.00  0.00    -0.331 OA
ATOM     29  C   UNL     1       5.686  -5.868  23.723  0.00  0.00    +0.179 C 
ATOM     30  C   UNL     1       4.433  -4.986  23.689  0.00  0.00    +0.177 C 
ATOM     31  C   UNL     1       4.808  -3.517  23.472  0.00  0.00    +0.180 C 
ATOM     32  C   UNL     1       5.835  -3.056  24.513  0.00  0.00    +0.214 C 
BRANCH  30  33
ATOM     33  O   UNL     1       3.511  -5.423  22.691  0.00  0.00    -0.386 OA
ATOM     34  H   UNL     1       2.623  -5.391  23.101  0.00  0.00    +0.210 HD
ENDBRANCH  30  33
BRANCH  31  35
ATOM     35  O   UNL     1       5.224  -3.352  22.113  0.00  0.00    -0.386 OA
ATOM     36  H   UNL     1       4.459  -3.104  21.564  0.00  0.00    +0.210 HD
ENDBRANCH  31  35
BRANCH  32  37
ATOM     37  O   UNL     1       5.072  -2.741  25.709  0.00  0.00    -0.383 OA
ATOM     38  H   UNL     1       4.357  -3.399  25.804  0.00  0.00    +0.210 HD
ENDBRANCH  32  37
BRANCH  29  39
ATOM     39  C   UNL     1       6.394  -6.033  22.363  0.00  0.00    +0.190 C 
BRANCH  39  40
ATOM     40  O   UNL     1       5.492  -6.452  21.341  0.00  0.00    -0.392 OA
ATOM     41  H   UNL     1       5.949  -7.104  20.783  0.00  0.00    +0.210 HD
ENDBRANCH  39  40
ENDBRANCH  29  39
ENDBRANCH  26  27
ENDBRANCH   5  26
TORSDOF 12
ENDMDL
MODEL 2
REMARK VINA RESULT:      -7.6      1.521      2.662
REMARK  Name = 
REMARK  12 active torsions:
REMARK  status: ('A' for Active; 'I' for Inactive)
REMARK    1  A    between atoms: C_3  and  O_22
REMARK    2  A    between atoms: C_4  and  O_21
REMARK    3  A    between atoms: C_6  and  C_7
REMARK    4  A    between atoms: C_8  and  O_20
REMARK    5  A    between atoms: C_12  and  O_19
REMARK    6  A    between atoms: C_14  and  O_18
REMARK    7  A    between atoms: O_22  and  C_23
REMARK    8  A    between atoms: C_25  and  O_38
REMARK    9  A    between atoms: C_27  and  O_37
REMARK   10  A    between atoms: C_29  and  O_36
REMARK   11  A    between atoms: C_31  and  C_34
REMARK   12  A    between atoms: C_34  and  O_35
REMARK                            x       y       z     vdW  Elec       q    Type
REMARK                         _______ _______ _______ _____ _____    ______ ____
ROOT
ATOM      1  C   UNL     1       8.633   0.014  22.647  0.00  0.00    +0.015 A 
ATOM      2  C   UNL     1       8.014   0.791  23.636  0.00  0.00    +0.025 A 
ATOM      3  C   UNL     1       6.944   0.198  24.326  0.00  0.00    +0.060 A 
ATOM      4  C   UNL     1       6.567  -1.137  24.074  0.00  0.00    +0.159 A 
ATOM      5  C   UNL     1       7.216  -1.915  23.109  0.00  0.00    +0.165 A 
ATOM      6  C   UNL     1       8.209  -1.287  22.355  0.00  0.00    +0.050 A 
ENDROOT
BRANCH   2   7
ATOM      7  C   UNL     1       8.468   2.207  23.807  0.00  0.00    +0.181 A 
ATOM      8  O   UNL     1       9.813   2.361  23.452  0.00  0.00    -0.451 OA
ATOM      9  C   UNL     1      10.425   3.575  23.599  0.00  0.00    +0.147 A 
ATOM     10  C   UNL     1       9.738   4.716  23.982  0.00  0.00    +0.109 A 
ATOM     11  C   UNL     1      10.412   5.943  24.086  0.00  0.00    +0.135 A 
ATOM     12  C   UNL     1      11.779   6.022  23.814  0.00  0.00    +0.091 A 
ATOM     13  C   UNL     1      12.456   4.866  23.446  0.00  0.00    +0.124 A 
ATOM     14  C   UNL     1       8.310   4.596  24.296  0.00  0.00    +0.238 A 
ATOM     15  O   UNL     1       7.675   5.598  24.612  0.00  0.00    -0.283 OA
ATOM     16  C   UNL     1      11.795   3.646  23.336  0.00  0.00    +0.092 A 
ATOM     17  C   UNL     1       7.707   3.229  24.254  0.00  0.00    +0.208 A 
BRANCH  11  18
ATOM     18  O   UNL     1       9.792   7.107  24.445  0.00  0.00    -0.506 OA
ATOM     19  H   UNL     1      10.483   7.798  24.583  0.00  0.00    +0.292 HD
ENDBRANCH  11  18
BRANCH  13  20
ATOM     20  O   UNL     1      13.796   4.891  23.183  0.00  0.00    -0.507 OA
ATOM     21  H   UNL     1      13.930   5.067  22.236  0.00  0.00    +0.292 HD
ENDBRANCH  13  20
BRANCH  17  22
ATOM     22  O   UNL     1       6.406   3.120  24.708  0.00  0.00    -0.501 OA
ATOM     23  H   UNL     1       5.941   2.456  24.174  0.00  0.00    +0.292 HD
ENDBRANCH  17  22
ENDBRANCH   2   7
BRANCH   4  24
ATOM     24  O   UNL     1       5.536  -1.644  24.818  0.00  0.00    -0.503 OA
ATOM     25  H   UNL     1       5.929  -2.312  25.408  0.00  0.00    +0.292 HD
ENDBRANCH   4  24
BRANCH   5  26
ATOM     26  O   UNL     1       6.865  -3.251  22.960  0.00  0.00    -0.457 OA
BRANCH  26  27
ATOM     27  C   UNL     1       7.807  -4.163  23.574  0.00  0.00    +0.339 C 
ATOM     28  O   UNL     1       7.234  -5.428  23.921  0.00  0.00    -0.331 OA
ATOM     29  C   UNL     1       6.875  -5.670  25.283  0.00  0.00    +0.179 C 
ATOM     30  C   UNL     1       8.042  -5.346  26.223  0.00  0.00    +0.177 C 
ATOM     31  C   UNL     1       8.450  -3.876  26.094  0.00  0.00    +0.180 C 
ATOM     32  C   UNL     1       8.741  -3.514  24.633  0.00  0.00    +0.214 C 
BRANCH  30  33
ATOM     33  O   UNL     1       7.730  -5.666  27.578  0.00  0.00    -0.386 OA
ATOM     34  H   UNL     1       7.011  -5.061  27.848  0.00  0.00    +0.210 HD
ENDBRANCH  30  33
BRANCH  31  35
ATOM     35  O   UNL     1       7.443  -3.072  26.717  0.00  0.00    -0.386 OA
ATOM     36  H   UNL     1       7.440  -3.236  27.677  0.00  0.00    +0.210 HD
ENDBRANCH  31  35
BRANCH  32  37
ATOM     37  O   UNL     1      10.096  -3.969  24.376  0.00  0.00    -0.383 OA
ATOM     38  H   UNL     1      10.547  -4.104  25.231  0.00  0.00    +0.210 HD
ENDBRANCH  32  37
BRANCH  29  39
ATOM     39  C   UNL     1       5.527  -5.045  25.693  0.00  0.00    +0.190 C 
BRANCH  39  40
ATOM     40  O   UNL     1       4.780  -4.598  24.563  0.00  0.00    -0.392 OA
ATOM     41  H   UNL     1       4.792  -3.626  24.558  0.00  0.00    +0.210 HD
ENDBRANCH  39  40
ENDBRANCH  29  39
ENDBRANCH  26  27
ENDBRANCH   5  26
TORSDOF 12
ENDMDL
MODEL 3
REMARK VINA RESULT:      -7.3      2.805     10.124
REMARK  Name = 
REMARK  12 active torsions:
REMARK  status: ('A' for Active; 'I' for Inactive)
REMARK    1  A    between atoms: C_3  and  O_22
REMARK    2  A    between atoms: C_4  and  O_21
REMARK    3  A    between atoms: C_6  and  C_7
REMARK    4  A    between atoms: C_8  and  O_20
REMARK    5  A    between atoms: C_12  and  O_19
REMARK    6  A    between atoms: C_14  and  O_18
REMARK    7  A    between atoms: O_22  and  C_23
REMARK    8  A    between atoms: C_25  and  O_38
REMARK    9  A    between atoms: C_27  and  O_37
REMARK   10  A    between atoms: C_29  and  O_36
REMARK   11  A    between atoms: C_31  and  C_34
REMARK   12  A    between atoms: C_34  and  O_35
REMARK                            x       y       z     vdW  Elec       q    Type
REMARK                         _______ _______ _______ _____ _____    ______ ____
ROOT
ATOM      1  C   UNL     1       5.554  -2.956  23.459  0.00  0.00    +0.015 A 
ATOM      2  C   UNL     1       6.035  -4.034  24.214  0.00  0.00    +0.025 A 
ATOM      3  C   UNL     1       7.430  -4.151  24.331  0.00  0.00    +0.060 A 
ATOM      4  C   UNL     1       8.290  -3.185  23.770  0.00  0.00    +0.159 A 
ATOM      5  C   UNL     1       7.797  -2.092  23.049  0.00  0.00    +0.165 A 
ATOM      6  C   UNL     1       6.416  -2.039  22.848  0.00  0.00    +0.050 A 
ENDROOT
BRANCH   2   7
ATOM      7  C   UNL     1       5.043  -5.022  24.743  0.00  0.00    +0.181 A 
ATOM      8  O   UNL     1       4.455  -4.573  25.931  0.00  0.00    -0.451 OA
ATOM      9  C   UNL     1       3.565  -5.368  26.599  0.00  0.00    +0.147 A 
ATOM     10  C   UNL     1       3.116  -6.576  26.090  0.00  0.00    +0.109 A 
ATOM     11  C   UNL     1       2.177  -7.337  26.804  0.00  0.00    +0.135 A 
ATOM     12  C   UNL     1       1.695  -6.888  28.035  0.00  0.00    +0.091 A 
ATOM     13  C   UNL     1       2.166  -5.681  28.538  0.00  0.00    +0.124 A 
ATOM     14  C   UNL     1       3.667  -7.040  24.811  0.00  0.00    +0.238 A 
ATOM     15  O   UNL     1       3.265  -8.095  24.329  0.00  0.00    -0.283 OA
ATOM     16  C   UNL     1       3.094  -4.918  27.835  0.00  0.00    +0.092 A 
ATOM     17  C   UNL     1       4.736  -6.210  24.179  0.00  0.00    +0.208 A 
BRANCH  11  18
ATOM     18  O   UNL     1       1.684  -8.529  26.353  0.00  0.00    -0.506 OA
ATOM     19  H   UNL     1       1.531  -8.453  25.380  0.00  0.00    +0.292 HD
ENDBRANCH  11  18
BRANCH  13  20
ATOM     20  O   UNL     1       1.734  -5.206  29.744  0.00  0.00    -0.507 OA
ATOM     21  H   UNL     1       2.460  -5.267  30.387  0.00  0.00    +0.292 HD
ENDBRANCH  13  20
BRANCH  17  22
ATOM     22  O   UNL     1       5.349  -6.748  23.063  0.00  0.00    -0.501 OA
ATOM     23  H   UNL     1       5.561  -6.032  22.444  0.00  0.00    +0.292 HD
ENDBRANCH  17  22
ENDBRANCH   2   7
BRANCH   4  24
ATOM     24  O   UNL     1       9.633  -3.359  23.964  0.00  0.00    -0.503 OA
ATOM     25  H   UNL     1       9.858  -2.865  24.773  0.00  0.00    +0.292 HD
ENDBRANCH   4  24
BRANCH   5  26
ATOM     26  O   UNL     1       8.680  -1.121  22.592  0.00  0.00    -0.457 OA
BRANCH  26  27
ATOM     27  C   UNL     1       9.011  -0.130  23.593  0.00  0.00    +0.339 C 
ATOM     28  O   UNL     1       7.903   0.694  23.969  0.00  0.00    -0.331 OA
ATOM     29  C   UNL     1       7.805   2.009  23.416  0.00  0.00    +0.179 C 
ATOM     30  C   UNL     1       9.118   2.778  23.599  0.00  0.00    +0.177 C 
ATOM     31  C   UNL     1      10.273   2.055  22.900  0.00  0.00    +0.180 C 
ATOM     32  C   UNL     1      10.365   0.596  23.363  0.00  0.00    +0.214 C 
BRANCH  30  33
ATOM     33  O   UNL     1       9.009   4.123  23.133  0.00  0.00    -0.386 OA
ATOM     34  H   UNL     1       8.780   4.070  22.183  0.00  0.00    +0.210 HD
ENDBRANCH  30  33
BRANCH  31  35
ATOM     35  O   UNL     1      10.121   2.223  21.487  0.00  0.00    -0.386 OA
ATOM     36  H   UNL     1       9.372   1.686  21.172  0.00  0.00    +0.210 HD
ENDBRANCH  31  35
BRANCH  32  37
ATOM     37  O   UNL     1      11.079   0.628  24.628  0.00  0.00    -0.383 OA
ATOM     38  H   UNL     1      10.974   1.515  25.023  0.00  0.00    +0.210 HD
ENDBRANCH  32  37
BRANCH  29  39
ATOM     39  C   UNL     1       7.234   2.044  21.984  0.00  0.00    +0.190 C 
BRANCH  39  40
ATOM     40  O   UNL     1       6.687   3.320  21.659  0.00  0.00    -0.392 OA
ATOM     41  H   UNL     1       5.723   3.276  21.781  0.00  0.00    +0.210 HD
ENDBRANCH  39  40
ENDBRANCH  29  39
ENDBRANCH  26  27
ENDBRANCH   5  26
TORSDOF 12
ENDMDL
MODEL 4
REMARK VINA RESULT:      -7.2      2.290      9.561
REMARK  Name = 
REMARK  12 active torsions:
REMARK  status: ('A' for Active; 'I' for Inactive)
REMARK    1  A    between atoms: C_3  and  O_22
REMARK    2  A    between atoms: C_4  and  O_21
REMARK    3  A    between atoms: C_6  and  C_7
REMARK    4  A    between atoms: C_8  and  O_20
REMARK    5  A    between atoms: C_12  and  O_19
REMARK    6  A    between atoms: C_14  and  O_18
REMARK    7  A    between atoms: O_22  and  C_23
REMARK    8  A    between atoms: C_25  and  O_38
REMARK    9  A    between atoms: C_27  and  O_37
REMARK   10  A    between atoms: C_29  and  O_36
REMARK   11  A    between atoms: C_31  and  C_34
REMARK   12  A    between atoms: C_34  and  O_35
REMARK                            x       y       z     vdW  Elec       q    Type
REMARK                         _______ _______ _______ _____ _____    ______ ____
ROOT
ATOM      1  C   UNL     1       8.551  -3.425  24.294  0.00  0.00    +0.015 A 
ATOM      2  C   UNL     1       7.521  -3.212  25.221  0.00  0.00    +0.025 A 
ATOM      3  C   UNL     1       7.596  -2.039  25.990  0.00  0.00    +0.060 A 
ATOM      4  C   UNL     1       8.625  -1.098  25.781  0.00  0.00    +0.159 A 
ATOM      5  C   UNL     1       9.628  -1.305  24.828  0.00  0.00    +0.165 A 
ATOM      6  C   UNL     1       9.606  -2.519  24.140  0.00  0.00    +0.050 A 
ENDROOT
BRANCH   2   7
ATOM      7  C   UNL     1       6.491  -4.285  25.389  0.00  0.00    +0.181 A 
ATOM      8  O   UNL     1       5.537  -4.246  24.367  0.00  0.00    -0.451 OA
ATOM      9  C   UNL     1       4.479  -5.113  24.382  0.00  0.00    +0.147 A 
ATOM     10  C   UNL     1       4.361  -6.128  25.317  0.00  0.00    +0.109 A 
ATOM     11  C   UNL     1       3.268  -7.009  25.267  0.00  0.00    +0.135 A 
ATOM     12  C   UNL     1       2.291  -6.865  24.282  0.00  0.00    +0.091 A 
ATOM     13  C   UNL     1       2.417  -5.832  23.360  0.00  0.00    +0.124 A 
ATOM     14  C   UNL     1       5.384  -6.234  26.364  0.00  0.00    +0.238 A 
ATOM     15  O   UNL     1       5.314  -7.142  27.187  0.00  0.00    -0.283 OA
ATOM     16  C   UNL     1       3.498  -4.956  23.400  0.00  0.00    +0.092 A 
ATOM     17  C   UNL     1       6.451  -5.188  26.394  0.00  0.00    +0.208 A 
BRANCH  11  18
ATOM     18  O   UNL     1       3.099  -8.038  26.150  0.00  0.00    -0.506 OA
ATOM     19  H   UNL     1       2.132  -8.153  26.311  0.00  0.00    +0.292 HD
ENDBRANCH  11  18
BRANCH  13  20
ATOM     20  O   UNL     1       1.479  -5.642  22.385  0.00  0.00    -0.507 OA
ATOM     21  H   UNL     1       1.579  -4.748  22.019  0.00  0.00    +0.292 HD
ENDBRANCH  13  20
BRANCH  17  22
ATOM     22  O   UNL     1       7.306  -5.217  27.479  0.00  0.00    -0.501 OA
ATOM     23  H   UNL     1       7.395  -4.318  27.833  0.00  0.00    +0.292 HD
ENDBRANCH  17  22
ENDBRANCH   2   7
BRANCH   4  24
ATOM     24  O   UNL     1       8.600   0.033  26.551  0.00  0.00    -0.503 OA
ATOM     25  H   UNL     1       7.782  -0.014  27.077  0.00  0.00    +0.292 HD
ENDBRANCH   4  24
BRANCH   5  26
ATOM     26  O   UNL     1      10.568  -0.307  24.599  0.00  0.00    -0.457 OA
BRANCH  26  27
ATOM     27  C   UNL     1      10.493   0.258  23.269  0.00  0.00    +0.339 C 
ATOM     28  O   UNL     1      10.812   1.652  23.220  0.00  0.00    -0.331 OA
ATOM     29  C   UNL     1       9.745   2.600  23.143  0.00  0.00    +0.179 C 
ATOM     30  C   UNL     1       8.778   2.243  22.008  0.00  0.00    +0.177 C 
ATOM     31  C   UNL     1       8.166   0.857  22.233  0.00  0.00    +0.180 C 
ATOM     32  C   UNL     1       9.259  -0.197  22.440  0.00  0.00    +0.214 C 
BRANCH  30  33
ATOM     33  O   UNL     1       7.756   3.227  21.860  0.00  0.00    -0.386 OA
ATOM     34  H   UNL     1       7.056   3.002  22.506  0.00  0.00    +0.210 HD
ENDBRANCH  30  33
BRANCH  31  35
ATOM     35  O   UNL     1       7.218   0.950  23.302  0.00  0.00    -0.386 OA
ATOM     36  H   UNL     1       7.384   1.759  23.818  0.00  0.00    +0.210 HD
ENDBRANCH  31  35
BRANCH  32  37
ATOM     37  O   UNL     1       9.719  -0.556  21.110  0.00  0.00    -0.383 OA
ATOM     38  H   UNL     1      10.015  -1.487  21.122  0.00  0.00    +0.210 HD
ENDBRANCH  32  37
BRANCH  29  39
ATOM     39  C   UNL     1       9.068   2.890  24.497  0.00  0.00    +0.190 C 
BRANCH  39  40
ATOM     40  O   UNL     1       8.471   4.185  24.528  0.00  0.00    -0.392 OA
ATOM     41  H   UNL     1       8.209   4.419  23.622  0.00  0.00    +0.210 HD
ENDBRANCH  39  40
ENDBRANCH  29  39
ENDBRANCH  26  27
ENDBRANCH   5  26
TORSDOF 12
ENDMDL
MODEL 5
REMARK VINA RESULT:      -7.2      0.793      2.340
REMARK  Name = 
REMARK  12 active torsions:
REMARK  status: ('A' for Active; 'I' for Inactive)
REMARK    1  A    between atoms: C_3  and  O_22
REMARK    2  A    between atoms: C_4  and  O_21
REMARK    3  A    between atoms: C_6  and  C_7
REMARK    4  A    between atoms: C_8  and  O_20
REMARK    5  A    between atoms: C_12  and  O_19
REMARK    6  A    between atoms: C_14  and  O_18
REMARK    7  A    between atoms: O_22  and  C_23
REMARK    8  A    between atoms: C_25  and  O_38
REMARK    9  A    between atoms: C_27  and  O_37
REMARK   10  A    between atoms: C_29  and  O_36
REMARK   11  A    between atoms: C_31  and  C_34
REMARK   12  A    between atoms: C_34  and  O_35
REMARK                            x       y       z     vdW  Elec       q    Type
REMARK                         _______ _______ _______ _____ _____    ______ ____
ROOT
ATOM      1  C   UNL     1       8.763  -0.315  22.461  0.00  0.00    +0.015 A 
ATOM      2  C   UNL     1       8.900   0.296  23.714  0.00  0.00    +0.025 A 
ATOM      3  C   UNL     1       8.732  -0.527  24.840  0.00  0.00    +0.060 A 
ATOM      4  C   UNL     1       8.507  -1.912  24.700  0.00  0.00    +0.159 A 
ATOM      5  C   UNL     1       8.408  -2.518  23.443  0.00  0.00    +0.165 A 
ATOM      6  C   UNL     1       8.472  -1.677  22.330  0.00  0.00    +0.050 A 
ENDROOT
BRANCH   2   7
ATOM      7  C   UNL     1       9.109   1.778  23.757  0.00  0.00    +0.181 A 
ATOM      8  O   UNL     1      10.436   2.117  23.475  0.00  0.00    -0.451 OA
ATOM      9  C   UNL     1      10.836   3.425  23.526  0.00  0.00    +0.147 A 
ATOM     10  C   UNL     1       9.948   4.467  23.735  0.00  0.00    +0.109 A 
ATOM     11  C   UNL     1      10.409   5.794  23.746  0.00  0.00    +0.135 A 
ATOM     12  C   UNL     1      11.763   6.071  23.556  0.00  0.00    +0.091 A 
ATOM     13  C   UNL     1      12.643   5.013  23.362  0.00  0.00    +0.124 A 
ATOM     14  C   UNL     1       8.536   4.144  23.968  0.00  0.00    +0.238 A 
ATOM     15  O   UNL     1       7.727   5.054  24.130  0.00  0.00    -0.283 OA
ATOM     16  C   UNL     1      12.194   3.695  23.345  0.00  0.00    +0.092 A 
ATOM     17  C   UNL     1       8.162   2.699  24.039  0.00  0.00    +0.208 A 
BRANCH  11  18
ATOM     18  O   UNL     1       9.586   6.868  23.934  0.00  0.00    -0.506 OA
ATOM     19  H   UNL     1       8.683   6.533  24.155  0.00  0.00    +0.292 HD
ENDBRANCH  11  18
BRANCH  13  20
ATOM     20  O   UNL     1      13.979   5.233  23.184  0.00  0.00    -0.507 OA
ATOM     21  H   UNL     1      14.479   4.530  23.633  0.00  0.00    +0.292 HD
ENDBRANCH  13  20
BRANCH  17  22
ATOM     22  O   UNL     1       6.862   2.421  24.417  0.00  0.00    -0.501 OA
ATOM     23  H   UNL     1       6.299   2.417  23.627  0.00  0.00    +0.292 HD
ENDBRANCH  17  22
ENDBRANCH   2   7
BRANCH   4  24
ATOM     24  O   UNL     1       8.391  -2.643  25.851  0.00  0.00    -0.503 OA
ATOM     25  H   UNL     1       8.732  -2.079  26.568  0.00  0.00    +0.292 HD
ENDBRANCH   4  24
BRANCH   5  26
ATOM     26  O   UNL     1       8.273  -3.898  23.360  0.00  0.00    -0.457 OA
BRANCH  26  27
ATOM     27  C   UNL     1       7.179  -4.317  22.510  0.00  0.00    +0.339 C 
ATOM     28  O   UNL     1       6.128  -3.351  22.413  0.00  0.00    -0.331 OA
ATOM     29  C   UNL     1       4.943  -3.543  23.188  0.00  0.00    +0.179 C 
ATOM     30  C   UNL     1       4.380  -4.955  22.985  0.00  0.00    +0.177 C 
ATOM     31  C   UNL     1       5.401  -6.013  23.410  0.00  0.00    +0.180 C 
ATOM     32  C   UNL     1       6.742  -5.797  22.698  0.00  0.00    +0.214 C 
BRANCH  30  33
ATOM     33  O   UNL     1       3.148  -5.134  23.682  0.00  0.00    -0.386 OA
ATOM     34  H   UNL     1       2.787  -5.996  23.393  0.00  0.00    +0.210 HD
ENDBRANCH  30  33
BRANCH  31  35
ATOM     35  O   UNL     1       5.480  -6.017  24.839  0.00  0.00    -0.386 OA
ATOM     36  H   UNL     1       6.396  -6.198  25.116  0.00  0.00    +0.210 HD
ENDBRANCH  31  35
BRANCH  32  37
ATOM     37  O   UNL     1       6.591  -6.392  21.382  0.00  0.00    -0.383 OA
ATOM     38  H   UNL     1       7.466  -6.704  21.079  0.00  0.00    +0.210 HD
ENDBRANCH  32  37
BRANCH  29  39
ATOM     39  C   UNL     1       5.085  -3.114  24.662  0.00  0.00    +0.190 C 
BRANCH  39  40
ATOM     40  O   UNL     1       3.851  -2.642  25.201  0.00  0.00    -0.392 OA
ATOM     41  H   UNL     1       3.950  -2.570  26.165  0.00  0.00    +0.210 HD
ENDBRANCH  39  40
ENDBRANCH  29  39
ENDBRANCH  26  27
ENDBRANCH   5  26
TORSDOF 12
ENDMDL
MODEL 6
REMARK VINA RESULT:      -7.2      1.818      9.501
REMARK  Name = 
REMARK  12 active torsions:
REMARK  status: ('A' for Active; 'I' for Inactive)
REMARK    1  A    between atoms: C_3  and  O_22
REMARK    2  A    between atoms: C_4  and  O_21
REMARK    3  A    between atoms: C_6  and  C_7
REMARK    4  A    between atoms: C_8  and  O_20
REMARK    5  A    between atoms: C_12  and  O_19
REMARK    6  A    between atoms: C_14  and  O_18
REMARK    7  A    between atoms: O_22  and  C_23
REMARK    8  A    between atoms: C_25  and  O_38
REMARK    9  A    between atoms: C_27  and  O_37
REMARK   10  A    between atoms: C_29  and  O_36
REMARK   11  A    between atoms: C_31  and  C_34
REMARK   12  A    between atoms: C_34  and  O_35
REMARK                            x       y       z     vdW  Elec       q    Type
REMARK                         _______ _______ _______ _____ _____    ______ ____
ROOT
ATOM      1  C   UNL     1       8.847  -1.902  23.702  0.00  0.00    +0.015 A 
ATOM      2  C   UNL     1       7.654  -1.959  24.436  0.00  0.00    +0.025 A 
ATOM      3  C   UNL     1       7.397  -0.886  25.306  0.00  0.00    +0.060 A 
ATOM      4  C   UNL     1       8.270   0.218  25.377  0.00  0.00    +0.159 A 
ATOM      5  C   UNL     1       9.440   0.280  24.612  0.00  0.00    +0.165 A 
ATOM      6  C   UNL     1       9.742  -0.834  23.828  0.00  0.00    +0.050 A 
ENDROOT
BRANCH   2   7
ATOM      7  C   UNL     1       6.809  -3.188  24.314  0.00  0.00    +0.181 A 
ATOM      8  O   UNL     1       6.630  -3.812  25.553  0.00  0.00    -0.451 OA
ATOM      9  C   UNL     1       5.934  -4.987  25.634  0.00  0.00    +0.147 A 
ATOM     10  C   UNL     1       5.285  -5.546  24.546  0.00  0.00    +0.109 A 
ATOM     11  C   UNL     1       4.559  -6.739  24.694  0.00  0.00    +0.135 A 
ATOM     12  C   UNL     1       4.493  -7.374  25.935  0.00  0.00    +0.091 A 
ATOM     13  C   UNL     1       5.162  -6.808  27.014  0.00  0.00    +0.124 A 
ATOM     14  C   UNL     1       5.402  -4.876  23.246  0.00  0.00    +0.238 A 
ATOM     15  O   UNL     1       4.814  -5.340  22.272  0.00  0.00    -0.283 OA
ATOM     16  C   UNL     1       5.880  -5.624  26.877  0.00  0.00    +0.092 A 
ATOM     17  C   UNL     1       6.280  -3.670  23.168  0.00  0.00    +0.208 A 
BRANCH  11  18
ATOM     18  O   UNL     1       3.886  -7.336  23.665  0.00  0.00    -0.506 OA
ATOM     19  H   UNL     1       3.030  -7.684  24.014  0.00  0.00    +0.292 HD
ENDBRANCH  11  18
BRANCH  13  20
ATOM     20  O   UNL     1       5.137  -7.400  28.245  0.00  0.00    -0.507 OA
ATOM     21  H   UNL     1       4.366  -7.072  28.738  0.00  0.00    +0.292 HD
ENDBRANCH  13  20
BRANCH  17  22
ATOM     22  O   UNL     1       6.500  -3.153  21.905  0.00  0.00    -0.501 OA
ATOM     23  H   UNL     1       7.426  -3.308  21.660  0.00  0.00    +0.292 HD
ENDBRANCH  17  22
ENDBRANCH   2   7
BRANCH   4  24
ATOM     24  O   UNL     1       7.922   1.234  26.226  0.00  0.00    -0.503 OA
ATOM     25  H   UNL     1       7.605   0.809  27.043  0.00  0.00    +0.292 HD
ENDBRANCH   4  24
BRANCH   5  26
ATOM     26  O   UNL     1      10.221   1.429  24.653  0.00  0.00    -0.457 OA
BRANCH  26  27
ATOM     27  C   UNL     1      10.040   2.286  23.500  0.00  0.00    +0.339 C 
ATOM     28  O   UNL     1      10.233   3.675  23.784  0.00  0.00    -0.331 OA
ATOM     29  C   UNL     1       9.085   4.508  23.960  0.00  0.00    +0.179 C 
ATOM     30  C   UNL     1       8.105   4.342  22.794  0.00  0.00    +0.177 C 
ATOM     31  C   UNL     1       7.627   2.891  22.689  0.00  0.00    +0.180 C 
ATOM     32  C   UNL     1       8.816   1.927  22.612  0.00  0.00    +0.214 C 
BRANCH  30  33
ATOM     33  O   UNL     1       6.995   5.231  22.909  0.00  0.00    -0.386 OA
ATOM     34  H   UNL     1       7.293   6.095  22.560  0.00  0.00    +0.210 HD
ENDBRANCH  30  33
BRANCH  31  35
ATOM     35  O   UNL     1       6.722   2.634  23.767  0.00  0.00    -0.386 OA
ATOM     36  H   UNL     1       7.221   2.346  24.552  0.00  0.00    +0.210 HD
ENDBRANCH  31  35
BRANCH  32  37
ATOM     37  O   UNL     1       9.248   1.942  21.225  0.00  0.00    -0.383 OA
ATOM     38  H   UNL     1       8.457   1.958  20.652  0.00  0.00    +0.210 HD
ENDBRANCH  32  37
BRANCH  29  39
ATOM     39  C   UNL     1       8.444   4.399  25.358  0.00  0.00    +0.190 C 
BRANCH  39  40
ATOM     40  O   UNL     1       7.711   5.574  25.701  0.00  0.00    -0.392 OA
ATOM     41  H   UNL     1       7.553   6.081  24.886  0.00  0.00    +0.210 HD
ENDBRANCH  39  40
ENDBRANCH  29  39
ENDBRANCH  26  27
ENDBRANCH   5  26
TORSDOF 12
ENDMDL
MODEL 7
REMARK VINA RESULT:      -7.1      2.466     10.278
REMARK  Name = 
REMARK  12 active torsions:
REMARK  status: ('A' for Active; 'I' for Inactive)
REMARK    1  A    between atoms: C_3  and  O_22
REMARK    2  A    between atoms: C_4  and  O_21
REMARK    3  A    between atoms: C_6  and  C_7
REMARK    4  A    between atoms: C_8  and  O_20
REMARK    5  A    between atoms: C_12  and  O_19
REMARK    6  A    between atoms: C_14  and  O_18
REMARK    7  A    between atoms: O_22  and  C_23
REMARK    8  A    between atoms: C_25  and  O_38
REMARK    9  A    between atoms: C_27  and  O_37
REMARK   10  A    between atoms: C_29  and  O_36
REMARK   11  A    between atoms: C_31  and  C_34
REMARK   12  A    between atoms: C_34  and  O_35
REMARK                            x       y       z     vdW  Elec       q    Type
REMARK                         _______ _______ _______ _____ _____    ______ ____
ROOT
ATOM      1  C   UNL     1       5.711  -2.833  23.467  0.00  0.00    +0.015 A 
ATOM      2  C   UNL     1       6.218  -3.959  24.130  0.00  0.00    +0.025 A 
ATOM      3  C   UNL     1       7.617  -4.066  24.212  0.00  0.00    +0.060 A 
ATOM      4  C   UNL     1       8.454  -3.050  23.709  0.00  0.00    +0.159 A 
ATOM      5  C   UNL     1       7.935  -1.913  23.081  0.00  0.00    +0.165 A 
ATOM      6  C   UNL     1       6.550  -1.862  22.910  0.00  0.00    +0.050 A 
ENDROOT
BRANCH   2   7
ATOM      7  C   UNL     1       5.248  -4.996  24.602  0.00  0.00    +0.181 A 
ATOM      8  O   UNL     1       4.416  -5.430  23.564  0.00  0.00    -0.451 OA
ATOM      9  C   UNL     1       3.422  -6.336  23.816  0.00  0.00    +0.147 A 
ATOM     10  C   UNL     1       3.263  -6.945  25.050  0.00  0.00    +0.109 A 
ATOM     11  C   UNL     1       2.243  -7.891  25.243  0.00  0.00    +0.135 A 
ATOM     12  C   UNL     1       1.377  -8.217  24.199  0.00  0.00    +0.091 A 
ATOM     13  C   UNL     1       1.541  -7.586  22.971  0.00  0.00    +0.124 A 
ATOM     14  C   UNL     1       4.165  -6.556  26.140  0.00  0.00    +0.238 A 
ATOM     15  O   UNL     1       4.060  -7.102  27.235  0.00  0.00    -0.283 OA
ATOM     16  C   UNL     1       2.551  -6.650  22.770  0.00  0.00    +0.092 A 
ATOM     17  C   UNL     1       5.151  -5.468  25.864  0.00  0.00    +0.208 A 
BRANCH  11  18
ATOM     18  O   UNL     1       2.041  -8.538  26.429  0.00  0.00    -0.506 OA
ATOM     19  H   UNL     1       2.025  -9.510  26.255  0.00  0.00    +0.292 HD
ENDBRANCH  11  18
BRANCH  13  20
ATOM     20  O   UNL     1       0.710  -7.863  21.923  0.00  0.00    -0.507 OA
ATOM     21  H   UNL     1       0.365  -8.765  22.022  0.00  0.00    +0.292 HD
ENDBRANCH  13  20
BRANCH  17  22
ATOM     22  O   UNL     1       5.876  -5.010  26.948  0.00  0.00    -0.501 OA
ATOM     23  H   UNL     1       6.624  -5.610  27.101  0.00  0.00    +0.292 HD
ENDBRANCH  17  22
ENDBRANCH   2   7
BRANCH   4  24
ATOM     24  O   UNL     1       9.803  -3.221  23.864  0.00  0.00    -0.503 OA
ATOM     25  H   UNL     1       9.942  -3.458  24.798  0.00  0.00    +0.292 HD
ENDBRANCH   4  24
BRANCH   5  26
ATOM     26  O   UNL     1       8.798  -0.900  22.681  0.00  0.00    -0.457 OA
BRANCH  26  27
ATOM     27  C   UNL     1       9.033   0.092  23.709  0.00  0.00    +0.339 C 
ATOM     28  O   UNL     1       7.905   0.938  23.955  0.00  0.00    -0.331 OA
ATOM     29  C   UNL     1       7.893   2.251  23.389  0.00  0.00    +0.179 C 
ATOM     30  C   UNL     1       9.191   2.998  23.715  0.00  0.00    +0.177 C 
ATOM     31  C   UNL     1      10.403   2.251  23.152  0.00  0.00    +0.180 C 
ATOM     32  C   UNL     1      10.417   0.793  23.628  0.00  0.00    +0.214 C 
BRANCH  30  33
ATOM     33  O   UNL     1       9.159   4.341  23.233  0.00  0.00    -0.386 OA
ATOM     34  H   UNL     1       9.201   4.920  24.021  0.00  0.00    +0.210 HD
ENDBRANCH  30  33
BRANCH  31  35
ATOM     35  O   UNL     1      10.414   2.412  21.730  0.00  0.00    -0.386 OA
ATOM     36  H   UNL     1      11.333   2.437  21.410  0.00  0.00    +0.210 HD
ENDBRANCH  31  35
BRANCH  32  37
ATOM     37  O   UNL     1      10.985   0.820  24.965  0.00  0.00    -0.383 OA
ATOM     38  H   UNL     1      10.513   1.494  25.492  0.00  0.00    +0.210 HD
ENDBRANCH  32  37
BRANCH  29  39
ATOM     39  C   UNL     1       7.487   2.287  21.902  0.00  0.00    +0.190 C 
BRANCH  39  40
ATOM     40  O   UNL     1       7.288   3.620  21.436  0.00  0.00    -0.392 OA
ATOM     41  H   UNL     1       7.051   3.579  20.494  0.00  0.00    +0.210 HD
ENDBRANCH  39  40
ENDBRANCH  29  39
ENDBRANCH  26  27
ENDBRANCH   5  26
TORSDOF 12
ENDMDL
MODEL 8
REMARK VINA RESULT:      -7.0      2.560      9.948
REMARK  Name = 
REMARK  12 active torsions:
REMARK  status: ('A' for Active; 'I' for Inactive)
REMARK    1  A    between atoms: C_3  and  O_22
REMARK    2  A    between atoms: C_4  and  O_21
REMARK    3  A    between atoms: C_6  and  C_7
REMARK    4  A    between atoms: C_8  and  O_20
REMARK    5  A    between atoms: C_12  and  O_19
REMARK    6  A    between atoms: C_14  and  O_18
REMARK    7  A    between atoms: O_22  and  C_23
REMARK    8  A    between atoms: C_25  and  O_38
REMARK    9  A    between atoms: C_27  and  O_37
REMARK   10  A    between atoms: C_29  and  O_36
REMARK   11  A    between atoms: C_31  and  C_34
REMARK   12  A    between atoms: C_34  and  O_35
REMARK                            x       y       z     vdW  Elec       q    Type
REMARK                         _______ _______ _______ _____ _____    ______ ____
ROOT
ATOM      1  C   UNL     1       6.144  -2.379  24.954  0.00  0.00    +0.015 A 
ATOM      2  C   UNL     1       6.242  -3.762  24.750  0.00  0.00    +0.025 A 
ATOM      3  C   UNL     1       7.534  -4.282  24.561  0.00  0.00    +0.060 A 
ATOM      4  C   UNL     1       8.670  -3.452  24.644  0.00  0.00    +0.159 A 
ATOM      5  C   UNL     1       8.562  -2.078  24.885  0.00  0.00    +0.165 A 
ATOM      6  C   UNL     1       7.272  -1.551  24.968  0.00  0.00    +0.050 A 
ENDROOT
BRANCH   2   7
ATOM      7  C   UNL     1       4.975  -4.551  24.648  0.00  0.00    +0.181 A 
ATOM      8  O   UNL     1       4.617  -5.108  25.880  0.00  0.00    -0.451 OA
ATOM      9  C   UNL     1       3.516  -5.916  25.974  0.00  0.00    +0.147 A 
ATOM     10  C   UNL     1       2.652  -6.125  24.911  0.00  0.00    +0.109 A 
ATOM     11  C   UNL     1       1.520  -6.940  25.073  0.00  0.00    +0.135 A 
ATOM     12  C   UNL     1       1.261  -7.552  26.300  0.00  0.00    +0.091 A 
ATOM     13  C   UNL     1       2.146  -7.344  27.352  0.00  0.00    +0.124 A 
ATOM     14  C   UNL     1       2.969  -5.498  23.623  0.00  0.00    +0.238 A 
ATOM     15  O   UNL     1       2.203  -5.648  22.674  0.00  0.00    -0.283 OA
ATOM     16  C   UNL     1       3.269  -6.534  27.202  0.00  0.00    +0.092 A 
ATOM     17  C   UNL     1       4.249  -4.734  23.523  0.00  0.00    +0.208 A 
BRANCH  11  18
ATOM     18  O   UNL     1       0.622  -7.176  24.071  0.00  0.00    -0.506 OA
ATOM     19  H   UNL     1      -0.257  -6.824  24.351  0.00  0.00    +0.292 HD
ENDBRANCH  11  18
BRANCH  13  20
ATOM     20  O   UNL     1       1.942  -7.931  28.568  0.00  0.00    -0.507 OA
ATOM     21  H   UNL     1       2.544  -8.689  28.659  0.00  0.00    +0.292 HD
ENDBRANCH  13  20
BRANCH  17  22
ATOM     22  O   UNL     1       4.601  -4.291  22.262  0.00  0.00    -0.501 OA
ATOM     23  H   UNL     1       4.935  -5.042  21.747  0.00  0.00    +0.292 HD
ENDBRANCH  17  22
ENDBRANCH   2   7
BRANCH   4  24
ATOM     24  O   UNL     1       9.891  -4.049  24.482  0.00  0.00    -0.503 OA
ATOM     25  H   UNL     1      10.547  -3.329  24.464  0.00  0.00    +0.292 HD
ENDBRANCH   4  24
BRANCH   5  26
ATOM     26  O   UNL     1       9.716  -1.320  25.045  0.00  0.00    -0.457 OA
BRANCH  26  27
ATOM     27  C   UNL     1      10.283  -0.867  23.793  0.00  0.00    +0.339 C 
ATOM     28  O   UNL     1      10.982   0.377  23.899  0.00  0.00    -0.331 OA
ATOM     29  C   UNL     1      10.331   1.572  23.462  0.00  0.00    +0.179 C 
ATOM     30  C   UNL     1       9.771   1.402  22.045  0.00  0.00    +0.177 C 
ATOM     31  C   UNL     1       8.751   0.261  21.997  0.00  0.00    +0.180 C 
ATOM     32  C   UNL     1       9.349  -1.032  22.561  0.00  0.00    +0.214 C 
BRANCH  30  33
ATOM     33  O   UNL     1       9.195   2.614  21.559  0.00  0.00    -0.386 OA
ATOM     34  H   UNL     1       8.233   2.549  21.721  0.00  0.00    +0.210 HD
ENDBRANCH  30  33
BRANCH  31  35
ATOM     35  O   UNL     1       7.554   0.698  22.650  0.00  0.00    -0.386 OA
ATOM     36  H   UNL     1       7.739   1.499  23.171  0.00  0.00    +0.210 HD
ENDBRANCH  31  35
BRANCH  32  37
ATOM     37  O   UNL     1      10.129  -1.611  21.481  0.00  0.00    -0.383 OA
ATOM     38  H   UNL     1       9.625  -1.520  20.649  0.00  0.00    +0.210 HD
ENDBRANCH  32  37
BRANCH  29  39
ATOM     39  C   UNL     1       9.330   2.146  24.484  0.00  0.00    +0.190 C 
BRANCH  39  40
ATOM     40  O   UNL     1       9.219   3.565  24.382  0.00  0.00    -0.392 OA
ATOM     41  H   UNL     1       8.343   3.774  24.017  0.00  0.00    +0.210 HD
ENDBRANCH  39  40
ENDBRANCH  29  39
ENDBRANCH  26  27
ENDBRANCH   5  26
TORSDOF 12
ENDMDL
MODEL 9
REMARK VINA RESULT:      -7.0      1.412      2.752
REMARK  Name = 
REMARK  12 active torsions:
REMARK  status: ('A' for Active; 'I' for Inactive)
REMARK    1  A    between atoms: C_3  and  O_22
REMARK    2  A    between atoms: C_4  and  O_21
REMARK    3  A    between atoms: C_6  and  C_7
REMARK    4  A    between atoms: C_8  and  O_20
REMARK    5  A    between atoms: C_12  and  O_19
REMARK    6  A    between atoms: C_14  and  O_18
REMARK    7  A    between atoms: O_22  and  C_23
REMARK    8  A    between atoms: C_25  and  O_38
REMARK    9  A    between atoms: C_27  and  O_37
REMARK   10  A    between atoms: C_29  and  O_36
REMARK   11  A    between atoms: C_31  and  C_34
REMARK   12  A    between atoms: C_34  and  O_35
REMARK                            x       y       z     vdW  Elec       q    Type
REMARK                         _______ _______ _______ _____ _____    ______ ____
ROOT
ATOM      1  C   UNL     1       8.634  -0.610  25.236  0.00  0.00    +0.015 A 
ATOM      2  C   UNL     1       8.526  -0.085  23.941  0.00  0.00    +0.025 A 
ATOM      3  C   UNL     1       8.308  -1.006  22.903  0.00  0.00    +0.060 A 
ATOM      4  C   UNL     1       8.138  -2.379  23.174  0.00  0.00    +0.159 A 
ATOM      5  C   UNL     1       8.212  -2.887  24.475  0.00  0.00    +0.165 A 
ATOM      6  C   UNL     1       8.533  -1.982  25.489  0.00  0.00    +0.050 A 
ENDROOT
BRANCH   2   7
ATOM      7  C   UNL     1       8.752   1.383  23.754  0.00  0.00    +0.181 A 
ATOM      8  O   UNL     1       7.557   2.054  23.474  0.00  0.00    -0.451 OA
ATOM      9  C   UNL     1       7.570   3.397  23.212  0.00  0.00    +0.147 A 
ATOM     10  C   UNL     1       8.715   4.167  23.324  0.00  0.00    +0.109 A 
ATOM     11  C   UNL     1       8.663   5.548  23.073  0.00  0.00    +0.135 A 
ATOM     12  C   UNL     1       7.462   6.152  22.701  0.00  0.00    +0.091 A 
ATOM     13  C   UNL     1       6.325   5.362  22.579  0.00  0.00    +0.124 A 
ATOM     14  C   UNL     1       9.972   3.499  23.681  0.00  0.00    +0.238 A 
ATOM     15  O   UNL     1      10.995   4.167  23.812  0.00  0.00    -0.283 OA
ATOM     16  C   UNL     1       6.366   3.994  22.830  0.00  0.00    +0.092 A 
ATOM     17  C   UNL     1       9.945   2.012  23.828  0.00  0.00    +0.208 A 
BRANCH  11  18
ATOM     18  O   UNL     1       9.752   6.366  23.178  0.00  0.00    -0.506 OA
ATOM     19  H   UNL     1       9.500   7.263  22.850  0.00  0.00    +0.292 HD
ENDBRANCH  11  18
BRANCH  13  20
ATOM     20  O   UNL     1       5.129   5.906  22.205  0.00  0.00    -0.507 OA
ATOM     21  H   UNL     1       5.190   6.202  21.282  0.00  0.00    +0.292 HD
ENDBRANCH  13  20
BRANCH  17  22
ATOM     22  O   UNL     1      11.167   1.393  24.006  0.00  0.00    -0.501 OA
ATOM     23  H   UNL     1      11.833   2.066  24.220  0.00  0.00    +0.292 HD
ENDBRANCH  17  22
ENDBRANCH   2   7
BRANCH   4  24
ATOM     24  O   UNL     1       7.894  -3.199  22.105  0.00  0.00    -0.503 OA
ATOM     25  H   UNL     1       8.364  -4.032  22.288  0.00  0.00    +0.292 HD
ENDBRANCH   4  24
BRANCH   5  26
ATOM     26  O   UNL     1       7.950  -4.233  24.698  0.00  0.00    -0.457 OA
BRANCH  26  27
ATOM     27  C   UNL     1       6.603  -4.486  25.163  0.00  0.00    +0.339 C 
ATOM     28  O   UNL     1       6.156  -5.824  24.921  0.00  0.00    -0.331 OA
ATOM     29  C   UNL     1       5.287  -6.069  23.813  0.00  0.00    +0.179 C 
ATOM     30  C   UNL     1       4.091  -5.112  23.834  0.00  0.00    +0.177 C 
ATOM     31  C   UNL     1       4.559  -3.656  23.756  0.00  0.00    +0.180 C 
ATOM     32  C   UNL     1       5.587  -3.352  24.852  0.00  0.00    +0.214 C 
BRANCH  30  33
ATOM     33  O   UNL     1       3.167  -5.401  22.785  0.00  0.00    -0.386 OA
ATOM     34  H   UNL     1       2.506  -4.680  22.790  0.00  0.00    +0.210 HD
ENDBRANCH  30  33
BRANCH  31  35
ATOM     35  O   UNL     1       5.016  -3.399  22.424  0.00  0.00    -0.386 OA
ATOM     36  H   UNL     1       4.423  -2.758  21.992  0.00  0.00    +0.210 HD
ENDBRANCH  31  35
BRANCH  32  37
ATOM     37  O   UNL     1       4.816  -3.096  26.056  0.00  0.00    -0.383 OA
ATOM     38  H   UNL     1       5.423  -2.784  26.755  0.00  0.00    +0.210 HD
ENDBRANCH  32  37
BRANCH  29  39
ATOM     39  C   UNL     1       6.015  -6.158  22.457  0.00  0.00    +0.190 C 
BRANCH  39  40
ATOM     40  O   UNL     1       7.428  -6.019  22.599  0.00  0.00    -0.392 OA
ATOM     41  H   UNL     1       7.808  -5.869  21.717  0.00  0.00    +0.210 HD
ENDBRANCH  39  40
ENDBRANCH  29  39
ENDBRANCH  26  27
ENDBRANCH   5  26
TORSDOF 12
ENDMDL
