MODEL 1
REMARK VINA RESULT:      -7.3      0.000      0.000
REMARK  Name = 
REMARK  5 active torsions:
REMARK  status: ('A' for Active; 'I' for Inactive)
REMARK    1  A    between atoms: C_3  and  O_22
REMARK    2  A    between atoms: C_4  and  O_21
REMARK    3  A    between atoms: C_6  and  C_7
REMARK    4  A    between atoms: C_12  and  O_19
REMARK    5  A    between atoms: C_14  and  O_18
REMARK                            x       y       z     vdW  Elec       q    Type
REMARK                         _______ _______ _______ _____ _____    ______ ____
ROOT
ATOM      1  C   UNL     1       6.825  -2.623  23.166  0.00  0.00    +0.132 A 
ATOM      2  O   UNL     1       7.166  -2.943  24.480  0.00  0.00    -0.455 OA
ATOM      3  C   UNL     1       6.642  -4.070  25.056  0.00  0.00    +0.146 A 
ATOM      4  C   UNL     1       5.680  -4.843  24.430  0.00  0.00    +0.105 A 
ATOM      5  C   UNL     1       5.151  -5.971  25.082  0.00  0.00    +0.135 A 
ATOM      6  C   UNL     1       5.590  -6.332  26.350  0.00  0.00    +0.091 A 
ATOM      7  C   UNL     1       6.566  -5.557  26.965  0.00  0.00    +0.124 A 
ATOM      8  C   UNL     1       5.236  -4.465  23.088  0.00  0.00    +0.189 A 
ATOM      9  O   UNL     1       4.308  -5.126  22.613  0.00  0.00    -0.288 OA
ATOM     10  C   UNL     1       7.094  -4.429  26.331  0.00  0.00    +0.092 A 
ATOM     11  C   UNL     1       5.943  -3.318  22.386  0.00  0.00    -0.015 A 
ATOM     12  O   UNL     1       5.611  -3.175  21.167  0.00  0.00    -0.869 OA
ENDROOT
BRANCH   1  14
ATOM     13  C   UNL     1       8.796  -1.569  21.943  0.00  0.00    +0.015 A 
ATOM     14  C   UNL     1       7.583  -1.424  22.654  0.00  0.00    +0.020 A 
ATOM     15  C   UNL     1       7.120  -0.113  22.871  0.00  0.00    +0.060 A 
ATOM     16  C   UNL     1       7.894   0.978  22.473  0.00  0.00    +0.159 A 
ATOM     17  C   UNL     1       9.126   0.800  21.848  0.00  0.00    +0.158 A 
ATOM     18  C   UNL     1       9.579  -0.475  21.562  0.00  0.00    +0.050 A 
BRANCH  16  19
ATOM     19  O   UNL     1       7.456   2.251  22.725  0.00  0.00    -0.503 OA
ATOM     20  H   UNL     1       8.178   2.814  22.383  0.00  0.00    +0.292 HD
ENDBRANCH  16  19
BRANCH  17  21
ATOM     21  O   UNL     1       9.869   1.908  21.544  0.00  0.00    -0.503 OA
ATOM     22  H   UNL     1      10.503   1.638  20.858  0.00  0.00    +0.292 HD
ENDBRANCH  17  21
ENDBRANCH   1  14
BRANCH   5  23
ATOM     23  O   UNL     1       4.184  -6.769  24.522  0.00  0.00    -0.506 OA
ATOM     24  H   UNL     1       4.648  -7.597  24.238  0.00  0.00    +0.292 HD
ENDBRANCH   5  23
BRANCH   7  25
ATOM     25  O   UNL     1       7.031  -5.879  28.208  0.00  0.00    -0.507 OA
ATOM     26  H   UNL     1       6.956  -5.088  28.770  0.00  0.00    +0.292 HD
ENDBRANCH   7  25
TORSDOF 5
ENDMDL
MODEL 2
REMARK VINA RESULT:      -7.1      2.572      7.251
REMARK  Name = 
REMARK  5 active torsions:
REMARK  status: ('A' for Active; 'I' for Inactive)
REMARK    1  A    between atoms: C_3  and  O_22
REMARK    2  A    between atoms: C_4  and  O_21
REMARK    3  A    between atoms: C_6  and  C_7
REMARK    4  A    between atoms: C_12  and  O_19
REMARK    5  A    between atoms: C_14  and  O_18
REMARK                            x       y       z     vdW  Elec       q    Type
REMARK                         _______ _______ _______ _____ _____    ______ ____
ROOT
ATOM      1  C   UNL     1       8.401  -1.475  24.409  0.00  0.00    +0.132 A 
ATOM      2  O   UNL     1       8.330  -0.340  25.217  0.00  0.00    -0.455 OA
ATOM      3  C   UNL     1       8.402   0.900  24.643  0.00  0.00    +0.146 A 
ATOM      4  C   UNL     1       8.674   1.080  23.298  0.00  0.00    +0.105 A 
ATOM      5  C   UNL     1       8.772   2.378  22.767  0.00  0.00    +0.135 A 
ATOM      6  C   UNL     1       8.586   3.494  23.574  0.00  0.00    +0.091 A 
ATOM      7  C   UNL     1       8.301   3.303  24.921  0.00  0.00    +0.124 A 
ATOM      8  C   UNL     1       8.851  -0.101  22.452  0.00  0.00    +0.189 A 
ATOM      9  O   UNL     1       9.189   0.110  21.283  0.00  0.00    -0.288 OA
ATOM     10  C   UNL     1       8.210   2.018  25.463  0.00  0.00    +0.092 A 
ATOM     11  C   UNL     1       8.599  -1.472  23.056  0.00  0.00    -0.015 A 
ATOM     12  O   UNL     1       8.607  -2.420  22.209  0.00  0.00    -0.869 OA
ENDROOT
BRANCH   1  14
ATOM     13  C   UNL     1       7.121  -2.871  26.113  0.00  0.00    +0.015 A 
ATOM     14  C   UNL     1       8.184  -2.747  25.189  0.00  0.00    +0.020 A 
ATOM     15  C   UNL     1       9.033  -3.859  25.036  0.00  0.00    +0.060 A 
ATOM     16  C   UNL     1       8.867  -4.984  25.845  0.00  0.00    +0.159 A 
ATOM     17  C   UNL     1       7.859  -5.040  26.805  0.00  0.00    +0.158 A 
ATOM     18  C   UNL     1       6.968  -3.991  26.935  0.00  0.00    +0.050 A 
BRANCH  16  19
ATOM     19  O   UNL     1       9.723  -6.045  25.719  0.00  0.00    -0.503 OA
ATOM     20  H   UNL     1      10.546  -5.726  26.140  0.00  0.00    +0.292 HD
ENDBRANCH  16  19
BRANCH  17  21
ATOM     21  O   UNL     1       7.790  -6.143  27.613  0.00  0.00    -0.503 OA
ATOM     22  H   UNL     1       8.675  -6.545  27.612  0.00  0.00    +0.292 HD
ENDBRANCH  17  21
ENDBRANCH   1  14
BRANCH   5  23
ATOM     23  O   UNL     1       9.054   2.623  21.445  0.00  0.00    -0.506 OA
ATOM     24  H   UNL     1       8.954   3.601  21.324  0.00  0.00    +0.292 HD
ENDBRANCH   5  23
BRANCH   7  25
ATOM     25  O   UNL     1       8.106   4.371  25.749  0.00  0.00    -0.507 OA
ATOM     26  H   UNL     1       8.611   4.213  26.566  0.00  0.00    +0.292 HD
ENDBRANCH   7  25
TORSDOF 5
ENDMDL
MODEL 3
REMARK VINA RESULT:      -7.1      1.118      1.751
REMARK  Name = 
REMARK  5 active torsions:
REMARK  status: ('A' for Active; 'I' for Inactive)
REMARK    1  A    between atoms: C_3  and  O_22
REMARK    2  A    between atoms: C_4  and  O_21
REMARK    3  A    between atoms: C_6  and  C_7
REMARK    4  A    between atoms: C_12  and  O_19
REMARK    5  A    between atoms: C_14  and  O_18
REMARK                            x       y       z     vdW  Elec       q    Type
REMARK                         _______ _______ _______ _____ _____    ______ ____
ROOT
ATOM      1  C   UNL     1       6.479  -3.379  23.283  0.00  0.00    +0.132 A 
ATOM      2  O   UNL     1       6.592  -3.722  24.631  0.00  0.00    -0.455 OA
ATOM      3  C   UNL     1       5.969  -4.851  25.092  0.00  0.00    +0.146 A 
ATOM      4  C   UNL     1       5.119  -5.604  24.302  0.00  0.00    +0.105 A 
ATOM      5  C   UNL     1       4.477  -6.734  24.836  0.00  0.00    +0.135 A 
ATOM      6  C   UNL     1       4.695  -7.120  26.154  0.00  0.00    +0.091 A 
ATOM      7  C   UNL     1       5.561  -6.365  26.937  0.00  0.00    +0.124 A 
ATOM      8  C   UNL     1       4.909  -5.200  22.910  0.00  0.00    +0.189 A 
ATOM      9  O   UNL     1       4.068  -5.843  22.276  0.00  0.00    -0.288 OA
ATOM     10  C   UNL     1       6.197  -5.234  26.419  0.00  0.00    +0.092 A 
ATOM     11  C   UNL     1       5.734  -4.051  22.355  0.00  0.00    -0.015 A 
ATOM     12  O   UNL     1       5.612  -3.887  21.100  0.00  0.00    -0.869 OA
ENDROOT
BRANCH   1  14
ATOM     13  C   UNL     1       6.826  -0.865  23.062  0.00  0.00    +0.015 A 
ATOM     14  C   UNL     1       7.323  -2.181  22.926  0.00  0.00    +0.020 A 
ATOM     15  C   UNL     1       8.633  -2.323  22.434  0.00  0.00    +0.060 A 
ATOM     16  C   UNL     1       9.351  -1.201  22.018  0.00  0.00    +0.159 A 
ATOM     17  C   UNL     1       8.800   0.076  22.089  0.00  0.00    +0.158 A 
ATOM     18  C   UNL     1       7.539   0.256  22.628  0.00  0.00    +0.050 A 
BRANCH  16  19
ATOM     19  O   UNL     1      10.611  -1.352  21.502  0.00  0.00    -0.503 OA
ATOM     20  H   UNL     1      11.011  -2.038  22.072  0.00  0.00    +0.292 HD
ENDBRANCH  16  19
BRANCH  17  21
ATOM     21  O   UNL     1       9.528   1.128  21.603  0.00  0.00    -0.503 OA
ATOM     22  H   UNL     1       9.565   1.792  22.312  0.00  0.00    +0.292 HD
ENDBRANCH  17  21
ENDBRANCH   1  14
BRANCH   5  23
ATOM     23  O   UNL     1       3.611  -7.513  24.109  0.00  0.00    -0.506 OA
ATOM     24  H   UNL     1       2.983  -6.884  23.672  0.00  0.00    +0.292 HD
ENDBRANCH   5  23
BRANCH   7  25
ATOM     25  O   UNL     1       5.807  -6.711  28.234  0.00  0.00    -0.507 OA
ATOM     26  H   UNL     1       6.690  -7.120  28.272  0.00  0.00    +0.292 HD
ENDBRANCH   7  25
TORSDOF 5
ENDMDL
MODEL 4
REMARK VINA RESULT:      -7.1      1.926      3.459
REMARK  Name = 
REMARK  5 active torsions:
REMARK  status: ('A' for Active; 'I' for Inactive)
REMARK    1  A    between atoms: C_3  and  O_22
REMARK    2  A    between atoms: C_4  and  O_21
REMARK    3  A    between atoms: C_6  and  C_7
REMARK    4  A    between atoms: C_12  and  O_19
REMARK    5  A    between atoms: C_14  and  O_18
REMARK                            x       y       z     vdW  Elec       q    Type
REMARK                         _______ _______ _______ _____ _____    ______ ____
ROOT
ATOM      1  C   UNL     1       8.403  -1.745  24.201  0.00  0.00    +0.132 A 
ATOM      2  O   UNL     1       8.006  -2.496  23.094  0.00  0.00    -0.455 OA
ATOM      3  C   UNL     1       7.252  -3.623  23.282  0.00  0.00    +0.146 A 
ATOM      4  C   UNL     1       6.971  -4.126  24.540  0.00  0.00    +0.105 A 
ATOM      5  C   UNL     1       6.221  -5.308  24.674  0.00  0.00    +0.135 A 
ATOM      6  C   UNL     1       5.741  -5.978  23.555  0.00  0.00    +0.091 A 
ATOM      7  C   UNL     1       6.017  -5.457  22.295  0.00  0.00    +0.124 A 
ATOM      8  C   UNL     1       7.465  -3.405  25.713  0.00  0.00    +0.189 A 
ATOM      9  O   UNL     1       7.274  -3.944  26.807  0.00  0.00    -0.288 OA
ATOM     10  C   UNL     1       6.769  -4.290  22.149  0.00  0.00    +0.092 A 
ATOM     11  C   UNL     1       8.152  -2.065  25.506  0.00  0.00    -0.015 A 
ATOM     12  O   UNL     1       8.390  -1.434  26.583  0.00  0.00    -0.869 OA
ENDROOT
BRANCH   1  14
ATOM     13  C   UNL     1      10.227  -0.000  24.541  0.00  0.00    +0.015 A 
ATOM     14  C   UNL     1       9.120  -0.479  23.805  0.00  0.00    +0.020 A 
ATOM     15  C   UNL     1       8.712   0.281  22.693  0.00  0.00    +0.060 A 
ATOM     16  C   UNL     1       9.333   1.500  22.412  0.00  0.00    +0.159 A 
ATOM     17  C   UNL     1      10.367   1.983  23.209  0.00  0.00    +0.158 A 
ATOM     18  C   UNL     1      10.835   1.229  24.269  0.00  0.00    +0.050 A 
BRANCH  16  19
ATOM     19  O   UNL     1       8.902   2.254  21.353  0.00  0.00    -0.503 OA
ATOM     20  H   UNL     1       9.596   2.119  20.679  0.00  0.00    +0.292 HD
ENDBRANCH  16  19
BRANCH  17  21
ATOM     21  O   UNL     1      10.889   3.216  22.922  0.00  0.00    -0.503 OA
ATOM     22  H   UNL     1      11.332   3.137  22.059  0.00  0.00    +0.292 HD
ENDBRANCH  17  21
ENDBRANCH   1  14
BRANCH   5  23
ATOM     23  O   UNL     1       5.921  -5.865  25.892  0.00  0.00    -0.506 OA
ATOM     24  H   UNL     1       5.580  -5.123  26.454  0.00  0.00    +0.292 HD
ENDBRANCH   5  23
BRANCH   7  25
ATOM     25  O   UNL     1       5.561  -6.081  21.169  0.00  0.00    -0.507 OA
ATOM     26  H   UNL     1       5.125  -5.411  20.612  0.00  0.00    +0.292 HD
ENDBRANCH   7  25
TORSDOF 5
ENDMDL
MODEL 5
REMARK VINA RESULT:      -7.0      1.782      7.140
REMARK  Name = 
REMARK  5 active torsions:
REMARK  status: ('A' for Active; 'I' for Inactive)
REMARK    1  A    between atoms: C_3  and  O_22
REMARK    2  A    between atoms: C_4  and  O_21
REMARK    3  A    between atoms: C_6  and  C_7
REMARK    4  A    between atoms: C_12  and  O_19
REMARK    5  A    between atoms: C_14  and  O_18
REMARK                            x       y       z     vdW  Elec       q    Type
REMARK                         _______ _______ _______ _____ _____    ______ ____
ROOT
ATOM      1  C   UNL     1       7.004  -4.164  24.313  0.00  0.00    +0.132 A 
ATOM      2  O   UNL     1       6.338  -2.954  24.118  0.00  0.00    -0.455 OA
ATOM      3  C   UNL     1       7.043  -1.857  23.699  0.00  0.00    +0.146 A 
ATOM      4  C   UNL     1       8.422  -1.863  23.583  0.00  0.00    +0.105 A 
ATOM      5  C   UNL     1       9.099  -0.698  23.182  0.00  0.00    +0.135 A 
ATOM      6  C   UNL     1       8.400   0.466  22.885  0.00  0.00    +0.091 A 
ATOM      7  C   UNL     1       7.013   0.458  22.992  0.00  0.00    +0.124 A 
ATOM      8  C   UNL     1       9.149  -3.098  23.881  0.00  0.00    +0.189 A 
ATOM      9  O   UNL     1      10.381  -3.025  23.859  0.00  0.00    -0.288 OA
ATOM     10  C   UNL     1       6.330  -0.691  23.398  0.00  0.00    +0.092 A 
ATOM     11  C   UNL     1       8.351  -4.357  24.177  0.00  0.00    -0.015 A 
ATOM     12  O   UNL     1       9.058  -5.411  24.251  0.00  0.00    -0.869 OA
ENDROOT
BRANCH   1  14
ATOM     13  C   UNL     1       5.189  -5.837  23.687  0.00  0.00    +0.015 A 
ATOM     14  C   UNL     1       6.059  -5.288  24.655  0.00  0.00    +0.020 A 
ATOM     15  C   UNL     1       5.999  -5.830  25.952  0.00  0.00    +0.060 A 
ATOM     16  C   UNL     1       5.045  -6.800  26.262  0.00  0.00    +0.159 A 
ATOM     17  C   UNL     1       4.145  -7.260  25.304  0.00  0.00    +0.158 A 
ATOM     18  C   UNL     1       4.221  -6.795  24.004  0.00  0.00    +0.050 A 
BRANCH  16  19
ATOM     19  O   UNL     1       4.965  -7.293  27.537  0.00  0.00    -0.503 OA
ATOM     20  H   UNL     1       4.048  -7.087  27.806  0.00  0.00    +0.292 HD
ENDBRANCH  16  19
BRANCH  17  21
ATOM     21  O   UNL     1       3.189  -8.162  25.686  0.00  0.00    -0.503 OA
ATOM     22  H   UNL     1       2.600  -7.698  26.305  0.00  0.00    +0.292 HD
ENDBRANCH  17  21
ENDBRANCH   1  14
BRANCH   5  23
ATOM     23  O   UNL     1      10.465  -0.635  23.063  0.00  0.00    -0.506 OA
ATOM     24  H   UNL     1      10.716   0.294  23.303  0.00  0.00    +0.292 HD
ENDBRANCH   5  23
BRANCH   7  25
ATOM     25  O   UNL     1       6.287   1.577  22.704  0.00  0.00    -0.507 OA
ATOM     26  H   UNL     1       5.354   1.314  22.617  0.00  0.00    +0.292 HD
ENDBRANCH   7  25
TORSDOF 5
ENDMDL
MODEL 6
REMARK VINA RESULT:      -7.0      2.184      7.302
REMARK  Name = 
REMARK  5 active torsions:
REMARK  status: ('A' for Active; 'I' for Inactive)
REMARK    1  A    between atoms: C_3  and  O_22
REMARK    2  A    between atoms: C_4  and  O_21
REMARK    3  A    between atoms: C_6  and  C_7
REMARK    4  A    between atoms: C_12  and  O_19
REMARK    5  A    between atoms: C_14  and  O_18
REMARK                            x       y       z     vdW  Elec       q    Type
REMARK                         _______ _______ _______ _____ _____    ______ ____
ROOT
ATOM      1  C   UNL     1       7.839  -1.671  23.246  0.00  0.00    +0.132 A 
ATOM      2  O   UNL     1       7.020  -0.601  22.882  0.00  0.00    -0.455 OA
ATOM      3  C   UNL     1       7.542   0.664  22.847  0.00  0.00    +0.146 A 
ATOM      4  C   UNL     1       8.823   0.950  23.284  0.00  0.00    +0.105 A 
ATOM      5  C   UNL     1       9.296   2.273  23.259  0.00  0.00    +0.135 A 
ATOM      6  C   UNL     1       8.497   3.307  22.785  0.00  0.00    +0.091 A 
ATOM      7  C   UNL     1       7.216   3.008  22.335  0.00  0.00    +0.124 A 
ATOM      8  C   UNL     1       9.664  -0.147  23.765  0.00  0.00    +0.189 A 
ATOM      9  O   UNL     1      10.760   0.171  24.237  0.00  0.00    -0.288 OA
ATOM     10  C   UNL     1       6.731   1.698  22.364  0.00  0.00    +0.092 A 
ATOM     11  C   UNL     1       9.144  -1.569  23.641  0.00  0.00    -0.015 A 
ATOM     12  O   UNL     1      10.006  -2.461  23.921  0.00  0.00    -0.869 OA
ENDROOT
BRANCH   1  14
ATOM     13  C   UNL     1       6.813  -3.775  24.251  0.00  0.00    +0.015 A 
ATOM     14  C   UNL     1       7.137  -2.999  23.115  0.00  0.00    +0.020 A 
ATOM     15  C   UNL     1       6.784  -3.524  21.858  0.00  0.00    +0.060 A 
ATOM     16  C   UNL     1       6.226  -4.800  21.764  0.00  0.00    +0.159 A 
ATOM     17  C   UNL     1       5.997  -5.573  22.899  0.00  0.00    +0.158 A 
ATOM     18  C   UNL     1       6.272  -5.060  24.153  0.00  0.00    +0.050 A 
BRANCH  16  19
ATOM     19  O   UNL     1       5.923  -5.320  20.534  0.00  0.00    -0.503 OA
ATOM     20  H   UNL     1       5.295  -6.041  20.738  0.00  0.00    +0.292 HD
ENDBRANCH  16  19
BRANCH  17  21
ATOM     21  O   UNL     1       5.511  -6.842  22.735  0.00  0.00    -0.503 OA
ATOM     22  H   UNL     1       5.878  -7.377  23.461  0.00  0.00    +0.292 HD
ENDBRANCH  17  21
ENDBRANCH   1  14
BRANCH   5  23
ATOM     23  O   UNL     1      10.551   2.624  23.693  0.00  0.00    -0.506 OA
ATOM     24  H   UNL     1      11.177   2.314  22.991  0.00  0.00    +0.292 HD
ENDBRANCH   5  23
BRANCH   7  25
ATOM     25  O   UNL     1       6.399   3.992  21.856  0.00  0.00    -0.507 OA
ATOM     26  H   UNL     1       5.503   3.621  21.770  0.00  0.00    +0.292 HD
ENDBRANCH   7  25
TORSDOF 5
ENDMDL
MODEL 7
REMARK VINA RESULT:      -6.9      1.811      7.237
REMARK  Name = 
REMARK  5 active torsions:
REMARK  status: ('A' for Active; 'I' for Inactive)
REMARK    1  A    between atoms: C_3  and  O_22
REMARK    2  A    between atoms: C_4  and  O_21
REMARK    3  A    between atoms: C_6  and  C_7
REMARK    4  A    between atoms: C_12  and  O_19
REMARK    5  A    between atoms: C_14  and  O_18
REMARK                            x       y       z     vdW  Elec       q    Type
REMARK                         _______ _______ _______ _____ _____    ______ ____
ROOT
ATOM      1  C   UNL     1       7.935  -2.086  23.909  0.00  0.00    +0.132 A 
ATOM      2  O   UNL     1       6.989  -1.060  23.888  0.00  0.00    -0.455 OA
ATOM      3  C   UNL     1       7.283   0.112  23.244  0.00  0.00    +0.146 A 
ATOM      4  C   UNL     1       8.536   0.377  22.720  0.00  0.00    +0.105 A 
ATOM      5  C   UNL     1       8.793   1.612  22.100  0.00  0.00    +0.135 A 
ATOM      6  C   UNL     1       7.797   2.576  21.993  0.00  0.00    +0.091 A 
ATOM      7  C   UNL     1       6.538   2.296  22.511  0.00  0.00    +0.124 A 
ATOM      8  C   UNL     1       9.573  -0.651  22.822  0.00  0.00    +0.189 A 
ATOM      9  O   UNL     1      10.699  -0.332  22.429  0.00  0.00    -0.288 OA
ATOM     10  C   UNL     1       6.273   1.076  23.138  0.00  0.00    +0.092 A 
ATOM     11  C   UNL     1       9.194  -2.012  23.381  0.00  0.00    -0.015 A 
ATOM     12  O   UNL     1      10.108  -2.889  23.270  0.00  0.00    -0.869 OA
ENDROOT
BRANCH   1  14
ATOM     13  C   UNL     1       6.205  -3.944  24.107  0.00  0.00    +0.015 A 
ATOM     14  C   UNL     1       7.403  -3.341  24.552  0.00  0.00    +0.020 A 
ATOM     15  C   UNL     1       8.070  -3.959  25.626  0.00  0.00    +0.060 A 
ATOM     16  C   UNL     1       7.500  -5.062  26.264  0.00  0.00    +0.159 A 
ATOM     17  C   UNL     1       6.275  -5.580  25.852  0.00  0.00    +0.158 A 
ATOM     18  C   UNL     1       5.626  -5.037  24.759  0.00  0.00    +0.050 A 
BRANCH  16  19
ATOM     19  O   UNL     1       8.136  -5.632  27.335  0.00  0.00    -0.503 OA
ATOM     20  H   UNL     1       7.891  -6.576  27.271  0.00  0.00    +0.292 HD
ENDBRANCH  16  19
BRANCH  17  21
ATOM     21  O   UNL     1       5.736  -6.620  26.561  0.00  0.00    -0.503 OA
ATOM     22  H   UNL     1       5.870  -7.421  26.026  0.00  0.00    +0.292 HD
ENDBRANCH  17  21
ENDBRANCH   1  14
BRANCH   5  23
ATOM     23  O   UNL     1      10.018   1.940  21.574  0.00  0.00    -0.506 OA
ATOM     24  H   UNL     1       9.889   2.805  21.108  0.00  0.00    +0.292 HD
ENDBRANCH   5  23
BRANCH   7  25
ATOM     25  O   UNL     1       5.529   3.212  22.423  0.00  0.00    -0.507 OA
ATOM     26  H   UNL     1       5.876   4.069  22.728  0.00  0.00    +0.292 HD
ENDBRANCH   7  25
TORSDOF 5
ENDMDL
MODEL 8
REMARK VINA RESULT:      -6.8      2.332      4.019
REMARK  Name = 
REMARK  5 active torsions:
REMARK  status: ('A' for Active; 'I' for Inactive)
REMARK    1  A    between atoms: C_3  and  O_22
REMARK    2  A    between atoms: C_4  and  O_21
REMARK    3  A    between atoms: C_6  and  C_7
REMARK    4  A    between atoms: C_12  and  O_19
REMARK    5  A    between atoms: C_14  and  O_18
REMARK                            x       y       z     vdW  Elec       q    Type
REMARK                         _______ _______ _______ _____ _____    ______ ____
ROOT
ATOM      1  C   UNL     1       8.178  -0.467  23.242  0.00  0.00    +0.132 A 
ATOM      2  O   UNL     1       7.017  -1.133  22.850  0.00  0.00    -0.455 OA
ATOM      3  C   UNL     1       6.921  -2.486  23.040  0.00  0.00    +0.146 A 
ATOM      4  C   UNL     1       7.985  -3.249  23.489  0.00  0.00    +0.105 A 
ATOM      5  C   UNL     1       7.842  -4.640  23.632  0.00  0.00    +0.135 A 
ATOM      6  C   UNL     1       6.636  -5.266  23.341  0.00  0.00    +0.091 A 
ATOM      7  C   UNL     1       5.569  -4.490  22.902  0.00  0.00    +0.124 A 
ATOM      8  C   UNL     1       9.245  -2.579  23.810  0.00  0.00    +0.189 A 
ATOM      9  O   UNL     1      10.193  -3.311  24.111  0.00  0.00    -0.288 OA
ATOM     10  C   UNL     1       5.701  -3.108  22.747  0.00  0.00    +0.092 A 
ATOM     11  C   UNL     1       9.294  -1.061  23.764  0.00  0.00    -0.015 A 
ATOM     12  O   UNL     1      10.369  -0.563  24.223  0.00  0.00    -0.869 OA
ENDROOT
BRANCH   1  14
ATOM     13  C   UNL     1       7.087   1.599  22.227  0.00  0.00    +0.015 A 
ATOM     14  C   UNL     1       8.065   1.027  23.072  0.00  0.00    +0.020 A 
ATOM     15  C   UNL     1       8.931   1.912  23.739  0.00  0.00    +0.060 A 
ATOM     16  C   UNL     1       8.866   3.283  23.484  0.00  0.00    +0.159 A 
ATOM     17  C   UNL     1       7.944   3.805  22.581  0.00  0.00    +0.158 A 
ATOM     18  C   UNL     1       7.035   2.970  21.958  0.00  0.00    +0.050 A 
BRANCH  16  19
ATOM     19  O   UNL     1       9.741   4.133  24.106  0.00  0.00    -0.503 OA
ATOM     20  H   UNL     1       9.568   3.985  25.056  0.00  0.00    +0.292 HD
ENDBRANCH  16  19
BRANCH  17  21
ATOM     21  O   UNL     1       7.974   5.149  22.322  0.00  0.00    -0.503 OA
ATOM     22  H   UNL     1       7.246   5.330  21.703  0.00  0.00    +0.292 HD
ENDBRANCH  17  21
ENDBRANCH   1  14
BRANCH   5  23
ATOM     23  O   UNL     1       8.863  -5.453  24.058  0.00  0.00    -0.506 OA
ATOM     24  H   UNL     1       9.700  -5.017  23.758  0.00  0.00    +0.292 HD
ENDBRANCH   5  23
BRANCH   7  25
ATOM     25  O   UNL     1       4.365  -5.063  22.610  0.00  0.00    -0.507 OA
ATOM     26  H   UNL     1       4.484  -5.625  21.823  0.00  0.00    +0.292 HD
ENDBRANCH   7  25
TORSDOF 5
ENDMDL
MODEL 9
REMARK VINA RESULT:      -6.8      2.557      3.117
REMARK  Name = 
REMARK  5 active torsions:
REMARK  status: ('A' for Active; 'I' for Inactive)
REMARK    1  A    between atoms: C_3  and  O_22
REMARK    2  A    between atoms: C_4  and  O_21
REMARK    3  A    between atoms: C_6  and  C_7
REMARK    4  A    between atoms: C_12  and  O_19
REMARK    5  A    between atoms: C_14  and  O_18
REMARK                            x       y       z     vdW  Elec       q    Type
REMARK                         _______ _______ _______ _____ _____    ______ ____
ROOT
ATOM      1  C   UNL     1       8.563  -1.973  24.649  0.00  0.00    +0.132 A 
ATOM      2  O   UNL     1       7.399  -1.626  25.336  0.00  0.00    -0.455 OA
ATOM      3  C   UNL     1       6.811  -2.541  26.168  0.00  0.00    +0.146 A 
ATOM      4  C   UNL     1       7.252  -3.849  26.261  0.00  0.00    +0.105 A 
ATOM      5  C   UNL     1       6.589  -4.756  27.106  0.00  0.00    +0.135 A 
ATOM      6  C   UNL     1       5.497  -4.354  27.867  0.00  0.00    +0.091 A 
ATOM      7  C   UNL     1       5.070  -3.035  27.776  0.00  0.00    +0.124 A 
ATOM      8  C   UNL     1       8.413  -4.259  25.470  0.00  0.00    +0.189 A 
ATOM      9  O   UNL     1       8.707  -5.457  25.511  0.00  0.00    -0.288 OA
ATOM     10  C   UNL     1       5.715  -2.126  26.933  0.00  0.00    +0.092 A 
ATOM     11  C   UNL     1       9.166  -3.200  24.682  0.00  0.00    -0.015 A 
ATOM     12  O   UNL     1      10.254  -3.612  24.170  0.00  0.00    -0.869 OA
ENDROOT
BRANCH   1  14
ATOM     13  C   UNL     1      10.133   0.022  24.435  0.00  0.00    +0.015 A 
ATOM     14  C   UNL     1       9.138  -0.813  23.876  0.00  0.00    +0.020 A 
ATOM     15  C   UNL     1       8.703  -0.508  22.573  0.00  0.00    +0.060 A 
ATOM     16  C   UNL     1       9.182   0.631  21.923  0.00  0.00    +0.159 A 
ATOM     17  C   UNL     1      10.101   1.479  22.536  0.00  0.00    +0.158 A 
ATOM     18  C   UNL     1      10.597   1.172  23.790  0.00  0.00    +0.050 A 
BRANCH  16  19
ATOM     19  O   UNL     1       8.723   0.943  20.672  0.00  0.00    -0.503 OA
ATOM     20  H   UNL     1       7.768   1.101  20.811  0.00  0.00    +0.292 HD
ENDBRANCH  16  19
BRANCH  17  21
ATOM     21  O   UNL     1      10.480   2.616  21.875  0.00  0.00    -0.503 OA
ATOM     22  H   UNL     1       9.669   3.012  21.514  0.00  0.00    +0.292 HD
ENDBRANCH  17  21
ENDBRANCH   1  14
BRANCH   5  23
ATOM     23  O   UNL     1       6.968  -6.070  27.231  0.00  0.00    -0.506 OA
ATOM     24  H   UNL     1       6.881  -6.464  26.326  0.00  0.00    +0.292 HD
ENDBRANCH   5  23
BRANCH   7  25
ATOM     25  O   UNL     1       4.005  -2.596  28.509  0.00  0.00    -0.507 OA
ATOM     26  H   UNL     1       4.214  -1.703  28.835  0.00  0.00    +0.292 HD
ENDBRANCH   7  25
TORSDOF 5
ENDMDL
