MODEL 1
REMARK VINA RESULT:      -7.6      0.000      0.000
REMARK  Name = 
REMARK  17 active torsions:
REMARK  status: ('A' for Active; 'I' for Inactive)
REMARK    1  A    between atoms: C_3  and  O_49
REMARK    2  A    between atoms: C_4  and  O_48
REMARK    3  A    between atoms: C_6  and  C_7
REMARK    4  A    between atoms: C_8  and  O_20
REMARK    5  A    between atoms: C_12  and  O_19
REMARK    6  A    between atoms: C_14  and  O_18
REMARK    7  A    between atoms: O_20  and  C_21
REMARK    8  A    between atoms: C_23  and  O_36
REMARK    9  A    between atoms: C_25  and  O_35
REMARK   10  A    between atoms: C_27  and  O_34
REMARK   11  A    between atoms: C_29  and  C_32
REMARK   12  A    between atoms: C_32  and  O_33
REMARK   13  A    between atoms: O_36  and  C_37
REMARK   14  A    between atoms: C_37  and  C_39
REMARK   15  A    between atoms: C_41  and  O_47
REMARK   16  A    between atoms: C_42  and  O_46
REMARK   17  A    between atoms: C_43  and  O_45
REMARK                            x       y       z     vdW  Elec       q    Type
REMARK                         _______ _______ _______ _____ _____    ______ ____
ROOT
ATOM      1  C   UNL     1       5.936   1.221  24.581  0.00  0.00    +0.352 C 
ATOM      2  O   UNL     1       4.899   2.191  24.329  0.00  0.00    -0.330 OA
ATOM      3  C   UNL     1       4.123   2.776  25.391  0.00  0.00    +0.179 C 
ATOM      4  C   UNL     1       3.820   1.827  26.569  0.00  0.00    +0.178 C 
ATOM      5  C   UNL     1       4.920   0.792  26.845  0.00  0.00    +0.192 C 
ATOM      6  C   UNL     1       5.524   0.081  25.580  0.00  0.00    +0.276 C 
ENDROOT
BRANCH   5   7
ATOM      7  O   UNL     1       5.933   1.515  27.581  0.00  0.00    -0.385 OA
ATOM      8  H   UNL     1       6.437   0.875  28.123  0.00  0.00    +0.210 HD
ENDBRANCH   5   7
BRANCH   4   9
ATOM      9  O   UNL     1       2.583   1.147  26.338  0.00  0.00    -0.386 OA
ATOM     10  H   UNL     1       1.977   1.412  27.056  0.00  0.00    +0.210 HD
ENDBRANCH   4   9
BRANCH   6  11
ATOM     11  O   UNL     1       4.910  -1.272  25.267  0.00  0.00    -0.449 OA
BRANCH  11  12
ATOM     12  C   UNL     1       5.324  -2.534  25.616  0.00  0.00    +0.340 C 
ATOM     13  O   UNL     1       5.626  -2.853  26.757  0.00  0.00    -0.245 OA
BRANCH  12  14
ATOM     14  C   UNL     1       5.364  -3.598  24.455  0.00  0.00    +0.066 A 
ATOM     15  C   UNL     1       5.570  -3.230  23.115  0.00  0.00    +0.064 A 
ATOM     16  C   UNL     1       5.537  -4.200  22.072  0.00  0.00    +0.163 A 
ATOM     17  C   UNL     1       5.307  -5.536  22.339  0.00  0.00    +0.201 A 
ATOM     18  C   UNL     1       5.099  -5.931  23.651  0.00  0.00    +0.163 A 
ATOM     19  C   UNL     1       5.106  -4.991  24.696  0.00  0.00    +0.064 A 
BRANCH  18  20
ATOM     20  O   UNL     1       4.878  -7.285  23.806  0.00  0.00    -0.503 OA
ATOM     21  H   UNL     1       5.692  -7.712  24.123  0.00  0.00    +0.292 HD
ENDBRANCH  18  20
BRANCH  17  22
ATOM     22  O   UNL     1       5.305  -6.422  21.301  0.00  0.00    -0.501 OA
ATOM     23  H   UNL     1       5.014  -5.915  20.504  0.00  0.00    +0.292 HD
ENDBRANCH  17  22
BRANCH  16  24
ATOM     24  O   UNL     1       5.713  -3.815  20.777  0.00  0.00    -0.503 OA
ATOM     25  H   UNL     1       5.971  -4.642  20.315  0.00  0.00    +0.292 HD
ENDBRANCH  16  24
ENDBRANCH  12  14
ENDBRANCH  11  12
ENDBRANCH   6  11
BRANCH   3  26
ATOM     26  C   UNL     1       4.614   4.184  25.861  0.00  0.00    +0.190 C 
BRANCH  26  27
ATOM     27  O   UNL     1       5.763   4.132  26.711  0.00  0.00    -0.392 OA
ATOM     28  H   UNL     1       5.497   4.389  27.611  0.00  0.00    +0.210 HD
ENDBRANCH  26  27
ENDBRANCH   3  26
BRANCH   1  29
ATOM     29  O   UNL     1       7.084   1.847  25.255  0.00  0.00    -0.452 OA
BRANCH  29  40
ATOM     30  C   UNL     1       9.279   1.489  24.278  0.00  0.00    +0.181 A 
ATOM     31  O   UNL     1      10.514   1.977  23.838  0.00  0.00    -0.451 OA
ATOM     32  C   UNL     1      10.723   3.326  23.752  0.00  0.00    +0.147 A 
ATOM     33  C   UNL     1       9.705   4.244  23.972  0.00  0.00    +0.109 A 
ATOM     34  C   UNL     1       9.962   5.612  23.815  0.00  0.00    +0.135 A 
ATOM     35  C   UNL     1      11.225   6.059  23.430  0.00  0.00    +0.091 A 
ATOM     36  C   UNL     1      12.241   5.132  23.229  0.00  0.00    +0.124 A 
ATOM     37  C   UNL     1       8.382   3.738  24.377  0.00  0.00    +0.238 A 
ATOM     38  O   UNL     1       7.466   4.543  24.535  0.00  0.00    -0.283 OA
ATOM     39  C   UNL     1      12.006   3.768  23.399  0.00  0.00    +0.092 A 
ATOM     40  C   UNL     1       8.210   2.280  24.576  0.00  0.00    +0.214 A 
BRANCH  30  42
ATOM     41  C   UNL     1       9.521  -0.678  23.055  0.00  0.00    +0.015 A 
ATOM     42  C   UNL     1       9.282  -0.006  24.278  0.00  0.00    +0.025 A 
ATOM     43  C   UNL     1       9.058  -0.794  25.411  0.00  0.00    +0.060 A 
ATOM     44  C   UNL     1       8.945  -2.181  25.287  0.00  0.00    +0.159 A 
ATOM     45  C   UNL     1       9.086  -2.813  24.056  0.00  0.00    +0.158 A 
ATOM     46  C   UNL     1       9.415  -2.072  22.936  0.00  0.00    +0.050 A 
BRANCH  45  47
ATOM     47  O   UNL     1       8.886  -4.165  23.998  0.00  0.00    -0.503 OA
ATOM     48  H   UNL     1       9.624  -4.604  24.458  0.00  0.00    +0.292 HD
ENDBRANCH  45  47
BRANCH  44  49
ATOM     49  O   UNL     1       8.666  -2.930  26.396  0.00  0.00    -0.503 OA
ATOM     50  H   UNL     1       8.033  -2.388  26.910  0.00  0.00    +0.292 HD
ENDBRANCH  44  49
ENDBRANCH  30  42
BRANCH  36  51
ATOM     51  O   UNL     1      13.492   5.528  22.854  0.00  0.00    -0.507 OA
ATOM     52  H   UNL     1      13.576   6.485  23.001  0.00  0.00    +0.292 HD
ENDBRANCH  36  51
BRANCH  34  53
ATOM     53  O   UNL     1       9.012   6.575  24.021  0.00  0.00    -0.506 OA
ATOM     54  H   UNL     1       9.099   7.252  23.309  0.00  0.00    +0.292 HD
ENDBRANCH  34  53
ENDBRANCH  29  40
ENDBRANCH   1  29
TORSDOF 17
ENDMDL
MODEL 2
REMARK VINA RESULT:      -7.5      1.686      2.633
REMARK  Name = 
REMARK  17 active torsions:
REMARK  status: ('A' for Active; 'I' for Inactive)
REMARK    1  A    between atoms: C_3  and  O_49
REMARK    2  A    between atoms: C_4  and  O_48
REMARK    3  A    between atoms: C_6  and  C_7
REMARK    4  A    between atoms: C_8  and  O_20
REMARK    5  A    between atoms: C_12  and  O_19
REMARK    6  A    between atoms: C_14  and  O_18
REMARK    7  A    between atoms: O_20  and  C_21
REMARK    8  A    between atoms: C_23  and  O_36
REMARK    9  A    between atoms: C_25  and  O_35
REMARK   10  A    between atoms: C_27  and  O_34
REMARK   11  A    between atoms: C_29  and  C_32
REMARK   12  A    between atoms: C_32  and  O_33
REMARK   13  A    between atoms: O_36  and  C_37
REMARK   14  A    between atoms: C_37  and  C_39
REMARK   15  A    between atoms: C_41  and  O_47
REMARK   16  A    between atoms: C_42  and  O_46
REMARK   17  A    between atoms: C_43  and  O_45
REMARK                            x       y       z     vdW  Elec       q    Type
REMARK                         _______ _______ _______ _____ _____    ______ ____
ROOT
ATOM      1  C   UNL     1       5.725   0.936  24.658  0.00  0.00    +0.352 C 
ATOM      2  O   UNL     1       4.574   1.798  24.763  0.00  0.00    -0.330 OA
ATOM      3  C   UNL     1       3.908   2.039  26.016  0.00  0.00    +0.179 C 
ATOM      4  C   UNL     1       3.873   0.828  26.973  0.00  0.00    +0.178 C 
ATOM      5  C   UNL     1       5.097  -0.094  26.869  0.00  0.00    +0.192 C 
ATOM      6  C   UNL     1       5.575  -0.434  25.411  0.00  0.00    +0.276 C 
ENDROOT
BRANCH   5   7
ATOM      7  O   UNL     1       6.131   0.577  27.623  0.00  0.00    -0.385 OA
ATOM      8  H   UNL     1       5.705   1.195  28.250  0.00  0.00    +0.210 HD
ENDBRANCH   5   7
BRANCH   4   9
ATOM      9  O   UNL     1       2.687   0.063  26.743  0.00  0.00    -0.386 OA
ATOM     10  H   UNL     1       1.955   0.700  26.646  0.00  0.00    +0.210 HD
ENDBRANCH   4   9
BRANCH   6  11
ATOM     11  O   UNL     1       5.055  -1.756  24.873  0.00  0.00    -0.449 OA
BRANCH  11  12
ATOM     12  C   UNL     1       4.280  -2.715  25.477  0.00  0.00    +0.340 C 
ATOM     13  O   UNL     1       3.064  -2.765  25.366  0.00  0.00    -0.245 OA
BRANCH  12  14
ATOM     14  C   UNL     1       5.049  -3.803  26.317  0.00  0.00    +0.066 A 
ATOM     15  C   UNL     1       4.575  -4.255  27.561  0.00  0.00    +0.064 A 
ATOM     16  C   UNL     1       5.318  -5.191  28.335  0.00  0.00    +0.163 A 
ATOM     17  C   UNL     1       6.527  -5.693  27.891  0.00  0.00    +0.201 A 
ATOM     18  C   UNL     1       7.022  -5.267  26.669  0.00  0.00    +0.163 A 
ATOM     19  C   UNL     1       6.318  -4.328  25.895  0.00  0.00    +0.064 A 
BRANCH  18  20
ATOM     20  O   UNL     1       8.234  -5.829  26.323  0.00  0.00    -0.503 OA
ATOM     21  H   UNL     1       8.161  -6.243  25.446  0.00  0.00    +0.292 HD
ENDBRANCH  18  20
BRANCH  17  22
ATOM     22  O   UNL     1       7.184  -6.602  28.669  0.00  0.00    -0.501 OA
ATOM     23  H   UNL     1       7.891  -6.101  29.144  0.00  0.00    +0.292 HD
ENDBRANCH  17  22
BRANCH  16  24
ATOM     24  O   UNL     1       4.852  -5.593  29.550  0.00  0.00    -0.503 OA
ATOM     25  H   UNL     1       5.580  -5.373  30.171  0.00  0.00    +0.292 HD
ENDBRANCH  16  24
ENDBRANCH  12  14
ENDBRANCH  11  12
ENDBRANCH   6  11
BRANCH   3  26
ATOM     26  C   UNL     1       4.324   3.364  26.733  0.00  0.00    +0.190 C 
BRANCH  26  27
ATOM     27  O   UNL     1       5.657   3.337  27.252  0.00  0.00    -0.392 OA
ATOM     28  H   UNL     1       6.277   3.210  26.512  0.00  0.00    +0.210 HD
ENDBRANCH  26  27
ENDBRANCH   3  26
BRANCH   1  29
ATOM     29  O   UNL     1       6.894   1.543  25.314  0.00  0.00    -0.452 OA
BRANCH  29  40
ATOM     30  C   UNL     1       8.964   1.353  24.058  0.00  0.00    +0.181 A 
ATOM     31  O   UNL     1      10.160   1.903  23.585  0.00  0.00    -0.451 OA
ATOM     32  C   UNL     1      10.397   3.243  23.726  0.00  0.00    +0.147 A 
ATOM     33  C   UNL     1       9.435   4.113  24.219  0.00  0.00    +0.109 A 
ATOM     34  C   UNL     1       9.713   5.484  24.290  0.00  0.00    +0.135 A 
ATOM     35  C   UNL     1      10.942   5.984  23.861  0.00  0.00    +0.091 A 
ATOM     36  C   UNL     1      11.905   5.100  23.384  0.00  0.00    +0.124 A 
ATOM     37  C   UNL     1       8.147   3.553  24.665  0.00  0.00    +0.238 A 
ATOM     38  O   UNL     1       7.276   4.322  25.065  0.00  0.00    -0.283 OA
ATOM     39  C   UNL     1      11.648   3.731  23.325  0.00  0.00    +0.092 A 
ATOM     40  C   UNL     1       7.954   2.084  24.610  0.00  0.00    +0.214 A 
BRANCH  30  42
ATOM     41  C   UNL     1       8.372  -0.554  22.554  0.00  0.00    +0.015 A 
ATOM     42  C   UNL     1       8.924  -0.115  23.783  0.00  0.00    +0.025 A 
ATOM     43  C   UNL     1       9.392  -1.095  24.663  0.00  0.00    +0.060 A 
ATOM     44  C   UNL     1       9.189  -2.447  24.378  0.00  0.00    +0.159 A 
ATOM     45  C   UNL     1       8.554  -2.855  23.209  0.00  0.00    +0.158 A 
ATOM     46  C   UNL     1       8.177  -1.914  22.268  0.00  0.00    +0.050 A 
BRANCH  45  47
ATOM     47  O   UNL     1       8.320  -4.190  23.033  0.00  0.00    -0.503 OA
ATOM     48  H   UNL     1       9.121  -4.595  22.656  0.00  0.00    +0.292 HD
ENDBRANCH  45  47
BRANCH  44  49
ATOM     49  O   UNL     1       9.600  -3.389  25.279  0.00  0.00    -0.503 OA
ATOM     50  H   UNL     1       9.253  -4.235  24.931  0.00  0.00    +0.292 HD
ENDBRANCH  44  49
ENDBRANCH  30  42
BRANCH  36  51
ATOM     51  O   UNL     1      13.120   5.548  22.956  0.00  0.00    -0.507 OA
ATOM     52  H   UNL     1      13.415   4.995  22.213  0.00  0.00    +0.292 HD
ENDBRANCH  36  51
BRANCH  34  53
ATOM     53  O   UNL     1       8.818   6.401  24.771  0.00  0.00    -0.506 OA
ATOM     54  H   UNL     1       8.187   5.932  25.367  0.00  0.00    +0.292 HD
ENDBRANCH  34  53
ENDBRANCH  29  40
ENDBRANCH   1  29
TORSDOF 17
ENDMDL
MODEL 3
REMARK VINA RESULT:      -7.4      1.875      6.639
REMARK  Name = 
REMARK  17 active torsions:
REMARK  status: ('A' for Active; 'I' for Inactive)
REMARK    1  A    between atoms: C_3  and  O_49
REMARK    2  A    between atoms: C_4  and  O_48
REMARK    3  A    between atoms: C_6  and  C_7
REMARK    4  A    between atoms: C_8  and  O_20
REMARK    5  A    between atoms: C_12  and  O_19
REMARK    6  A    between atoms: C_14  and  O_18
REMARK    7  A    between atoms: O_20  and  C_21
REMARK    8  A    between atoms: C_23  and  O_36
REMARK    9  A    between atoms: C_25  and  O_35
REMARK   10  A    between atoms: C_27  and  O_34
REMARK   11  A    between atoms: C_29  and  C_32
REMARK   12  A    between atoms: C_32  and  O_33
REMARK   13  A    between atoms: O_36  and  C_37
REMARK   14  A    between atoms: C_37  and  C_39
REMARK   15  A    between atoms: C_41  and  O_47
REMARK   16  A    between atoms: C_42  and  O_46
REMARK   17  A    between atoms: C_43  and  O_45
REMARK                            x       y       z     vdW  Elec       q    Type
REMARK                         _______ _______ _______ _____ _____    ______ ____
ROOT
ATOM      1  C   UNL     1       8.386  -0.290  24.694  0.00  0.00    +0.352 C 
ATOM      2  O   UNL     1       9.513   0.408  24.128  0.00  0.00    -0.330 OA
ATOM      3  C   UNL     1       9.904   0.243  22.753  0.00  0.00    +0.179 C 
ATOM      4  C   UNL     1       9.701  -1.180  22.188  0.00  0.00    +0.178 C 
ATOM      5  C   UNL     1       8.501  -1.929  22.786  0.00  0.00    +0.192 C 
ATOM      6  C   UNL     1       8.333  -1.821  24.344  0.00  0.00    +0.276 C 
ENDROOT
BRANCH   5   7
ATOM      7  O   UNL     1       7.350  -1.400  22.090  0.00  0.00    -0.385 OA
ATOM      8  H   UNL     1       7.011  -0.632  22.594  0.00  0.00    +0.210 HD
ENDBRANCH   5   7
BRANCH   4   9
ATOM      9  O   UNL     1      10.886  -1.955  22.388  0.00  0.00    -0.386 OA
ATOM     10  H   UNL     1      11.565  -1.346  22.735  0.00  0.00    +0.210 HD
ENDBRANCH   4   9
BRANCH   6  11
ATOM     11  O   UNL     1       8.917  -2.988  25.121  0.00  0.00    -0.449 OA
BRANCH  11  12
ATOM     12  C   UNL     1       8.949  -4.327  24.816  0.00  0.00    +0.340 C 
ATOM     13  O   UNL     1       9.968  -5.002  24.858  0.00  0.00    -0.245 OA
BRANCH  12  14
ATOM     14  C   UNL     1       7.572  -4.986  24.432  0.00  0.00    +0.066 A 
ATOM     15  C   UNL     1       6.612  -5.324  25.402  0.00  0.00    +0.064 A 
ATOM     16  C   UNL     1       5.401  -5.980  25.041  0.00  0.00    +0.163 A 
ATOM     17  C   UNL     1       5.121  -6.303  23.727  0.00  0.00    +0.201 A 
ATOM     18  C   UNL     1       6.048  -5.984  22.747  0.00  0.00    +0.163 A 
ATOM     19  C   UNL     1       7.260  -5.355  23.079  0.00  0.00    +0.064 A 
BRANCH  18  20
ATOM     20  O   UNL     1       5.669  -6.351  21.471  0.00  0.00    -0.503 OA
ATOM     21  H   UNL     1       5.491  -5.554  20.944  0.00  0.00    +0.292 HD
ENDBRANCH  18  20
BRANCH  17  22
ATOM     22  O   UNL     1       3.935  -6.915  23.440  0.00  0.00    -0.501 OA
ATOM     23  H   UNL     1       3.473  -7.042  24.304  0.00  0.00    +0.292 HD
ENDBRANCH  17  22
BRANCH  16  24
ATOM     24  O   UNL     1       4.498  -6.322  26.003  0.00  0.00    -0.503 OA
ATOM     25  H   UNL     1       4.796  -5.830  26.797  0.00  0.00    +0.292 HD
ENDBRANCH  16  24
ENDBRANCH  12  14
ENDBRANCH  11  12
ENDBRANCH   6  11
BRANCH   3  26
ATOM     26  C   UNL     1       9.384   1.356  21.787  0.00  0.00    +0.190 C 
BRANCH  26  27
ATOM     27  O   UNL     1      10.260   2.483  21.691  0.00  0.00    -0.392 OA
ATOM     28  H   UNL     1       9.851   3.146  21.108  0.00  0.00    +0.210 HD
ENDBRANCH  26  27
ENDBRANCH   3  26
BRANCH   1  29
ATOM     29  O   UNL     1       7.123   0.217  24.135  0.00  0.00    -0.452 OA
BRANCH  29  40
ATOM     30  C   UNL     1       6.295   2.238  25.198  0.00  0.00    +0.181 A 
ATOM     31  O   UNL     1       5.513   2.875  26.167  0.00  0.00    -0.451 OA
ATOM     32  C   UNL     1       4.629   2.148  26.916  0.00  0.00    +0.147 A 
ATOM     33  C   UNL     1       4.386   0.805  26.669  0.00  0.00    +0.109 A 
ATOM     34  C   UNL     1       3.428   0.123  27.433  0.00  0.00    +0.135 A 
ATOM     35  C   UNL     1       2.711   0.784  28.429  0.00  0.00    +0.091 A 
ATOM     36  C   UNL     1       2.976   2.126  28.679  0.00  0.00    +0.124 A 
ATOM     37  C   UNL     1       5.160   0.136  25.610  0.00  0.00    +0.238 A 
ATOM     38  O   UNL     1       4.922  -1.044  25.359  0.00  0.00    -0.283 OA
ATOM     39  C   UNL     1       3.938   2.813  27.939  0.00  0.00    +0.092 A 
ATOM     40  C   UNL     1       6.195   0.914  24.888  0.00  0.00    +0.214 A 
BRANCH  30  42
ATOM     41  C   UNL     1       8.383   3.610  25.127  0.00  0.00    +0.015 A 
ATOM     42  C   UNL     1       7.170   3.230  24.503  0.00  0.00    +0.025 A 
ATOM     43  C   UNL     1       6.870   3.819  23.271  0.00  0.00    +0.060 A 
ATOM     44  C   UNL     1       7.682   4.836  22.764  0.00  0.00    +0.159 A 
ATOM     45  C   UNL     1       8.819   5.262  23.444  0.00  0.00    +0.158 A 
ATOM     46  C   UNL     1       9.201   4.626  24.610  0.00  0.00    +0.050 A 
BRANCH  45  47
ATOM     47  O   UNL     1       9.522   6.315  22.927  0.00  0.00    -0.503 OA
ATOM     48  H   UNL     1       8.907   7.057  22.791  0.00  0.00    +0.292 HD
ENDBRANCH  45  47
BRANCH  44  49
ATOM     49  O   UNL     1       7.339   5.442  21.588  0.00  0.00    -0.503 OA
ATOM     50  H   UNL     1       6.424   5.143  21.411  0.00  0.00    +0.292 HD
ENDBRANCH  44  49
ENDBRANCH  30  42
BRANCH  36  51
ATOM     51  O   UNL     1       2.298   2.809  29.646  0.00  0.00    -0.507 OA
ATOM     52  H   UNL     1       1.758   3.499  29.224  0.00  0.00    +0.292 HD
ENDBRANCH  36  51
BRANCH  34  53
ATOM     53  O   UNL     1       3.140  -1.202  27.252  0.00  0.00    -0.506 OA
ATOM     54  H   UNL     1       3.465  -1.699  28.039  0.00  0.00    +0.292 HD
ENDBRANCH  34  53
ENDBRANCH  29  40
ENDBRANCH   1  29
TORSDOF 17
ENDMDL
MODEL 4
REMARK VINA RESULT:      -7.3      2.020      7.920
REMARK  Name = 
REMARK  17 active torsions:
REMARK  status: ('A' for Active; 'I' for Inactive)
REMARK    1  A    between atoms: C_3  and  O_49
REMARK    2  A    between atoms: C_4  and  O_48
REMARK    3  A    between atoms: C_6  and  C_7
REMARK    4  A    between atoms: C_8  and  O_20
REMARK    5  A    between atoms: C_12  and  O_19
REMARK    6  A    between atoms: C_14  and  O_18
REMARK    7  A    between atoms: O_20  and  C_21
REMARK    8  A    between atoms: C_23  and  O_36
REMARK    9  A    between atoms: C_25  and  O_35
REMARK   10  A    between atoms: C_27  and  O_34
REMARK   11  A    between atoms: C_29  and  C_32
REMARK   12  A    between atoms: C_32  and  O_33
REMARK   13  A    between atoms: O_36  and  C_37
REMARK   14  A    between atoms: C_37  and  C_39
REMARK   15  A    between atoms: C_41  and  O_47
REMARK   16  A    between atoms: C_42  and  O_46
REMARK   17  A    between atoms: C_43  and  O_45
REMARK                            x       y       z     vdW  Elec       q    Type
REMARK                         _______ _______ _______ _____ _____    ______ ____
ROOT
ATOM      1  C   UNL     1       6.183   0.215  26.688  0.00  0.00    +0.352 C 
ATOM      2  O   UNL     1       5.545  -0.216  27.908  0.00  0.00    -0.330 OA
ATOM      3  C   UNL     1       4.282   0.319  28.344  0.00  0.00    +0.179 C 
ATOM      4  C   UNL     1       4.067   1.813  28.019  0.00  0.00    +0.178 C 
ATOM      5  C   UNL     1       4.741   2.280  26.720  0.00  0.00    +0.192 C 
ATOM      6  C   UNL     1       6.210   1.774  26.492  0.00  0.00    +0.276 C 
ENDROOT
BRANCH   5   7
ATOM      7  O   UNL     1       3.857   1.838  25.665  0.00  0.00    -0.385 OA
ATOM      8  H   UNL     1       2.959   2.179  25.851  0.00  0.00    +0.210 HD
ENDBRANCH   5   7
BRANCH   4   9
ATOM      9  O   UNL     1       4.532   2.618  29.105  0.00  0.00    -0.386 OA
ATOM     10  H   UNL     1       5.370   2.222  29.410  0.00  0.00    +0.210 HD
ENDBRANCH   4   9
BRANCH   6  11
ATOM     11  O   UNL     1       7.286   2.759  26.913  0.00  0.00    -0.449 OA
BRANCH  11  12
ATOM     12  C   UNL     1       7.357   4.120  26.741  0.00  0.00    +0.340 C 
ATOM     13  O   UNL     1       7.401   4.914  27.669  0.00  0.00    -0.245 OA
BRANCH  12  14
ATOM     14  C   UNL     1       7.416   4.631  25.253  0.00  0.00    +0.066 A 
ATOM     15  C   UNL     1       8.609   5.098  24.673  0.00  0.00    +0.064 A 
ATOM     16  C   UNL     1       8.628   5.617  23.347  0.00  0.00    +0.163 A 
ATOM     17  C   UNL     1       7.480   5.676  22.581  0.00  0.00    +0.201 A 
ATOM     18  C   UNL     1       6.287   5.224  23.123  0.00  0.00    +0.163 A 
ATOM     19  C   UNL     1       6.237   4.726  24.437  0.00  0.00    +0.064 A 
BRANCH  18  20
ATOM     20  O   UNL     1       5.204   5.329  22.274  0.00  0.00    -0.503 OA
ATOM     21  H   UNL     1       5.501   5.213  21.355  0.00  0.00    +0.292 HD
ENDBRANCH  18  20
BRANCH  17  22
ATOM     22  O   UNL     1       7.564   6.167  21.310  0.00  0.00    -0.501 OA
ATOM     23  H   UNL     1       7.573   5.383  20.709  0.00  0.00    +0.292 HD
ENDBRANCH  17  22
BRANCH  16  24
ATOM     24  O   UNL     1       9.791   6.090  22.816  0.00  0.00    -0.503 OA
ATOM     25  H   UNL     1       9.740   5.839  21.869  0.00  0.00    +0.292 HD
ENDBRANCH  16  24
ENDBRANCH  12  14
ENDBRANCH  11  12
ENDBRANCH   6  11
BRANCH   3  26
ATOM     26  C   UNL     1       3.041  -0.561  27.989  0.00  0.00    +0.190 C 
BRANCH  26  27
ATOM     27  O   UNL     1       2.706  -0.541  26.598  0.00  0.00    -0.392 OA
ATOM     28  H   UNL     1       2.171   0.252  26.419  0.00  0.00    +0.210 HD
ENDBRANCH  26  27
ENDBRANCH   3  26
BRANCH   1  29
ATOM     29  O   UNL     1       5.429  -0.249  25.513  0.00  0.00    -0.452 OA
BRANCH  29  40
ATOM     30  C   UNL     1       6.732  -1.202  23.698  0.00  0.00    +0.181 A 
ATOM     31  O   UNL     1       6.945  -2.200  22.742  0.00  0.00    -0.451 OA
ATOM     32  C   UNL     1       6.190  -3.341  22.767  0.00  0.00    +0.147 A 
ATOM     33  C   UNL     1       5.289  -3.605  23.788  0.00  0.00    +0.109 A 
ATOM     34  C   UNL     1       4.582  -4.815  23.792  0.00  0.00    +0.135 A 
ATOM     35  C   UNL     1       4.784  -5.760  22.786  0.00  0.00    +0.091 A 
ATOM     36  C   UNL     1       5.678  -5.477  21.759  0.00  0.00    +0.124 A 
ATOM     37  C   UNL     1       5.098  -2.586  24.835  0.00  0.00    +0.238 A 
ATOM     38  O   UNL     1       4.331  -2.830  25.763  0.00  0.00    -0.283 OA
ATOM     39  C   UNL     1       6.375  -4.269  21.732  0.00  0.00    +0.092 A 
ATOM     40  C   UNL     1       5.843  -1.309  24.726  0.00  0.00    +0.214 A 
BRANCH  30  42
ATOM     41  C   UNL     1       7.308   0.949  22.562  0.00  0.00    +0.015 A 
ATOM     42  C   UNL     1       7.677  -0.065  23.480  0.00  0.00    +0.025 A 
ATOM     43  C   UNL     1       8.912   0.067  24.121  0.00  0.00    +0.060 A 
ATOM     44  C   UNL     1       9.786   1.093  23.753  0.00  0.00    +0.159 A 
ATOM     45  C   UNL     1       9.443   2.022  22.776  0.00  0.00    +0.158 A 
ATOM     46  C   UNL     1       8.186   1.982  22.201  0.00  0.00    +0.050 A 
BRANCH  45  47
ATOM     47  O   UNL     1      10.378   2.951  22.412  0.00  0.00    -0.503 OA
ATOM     48  H   UNL     1      10.422   2.977  21.440  0.00  0.00    +0.292 HD
ENDBRANCH  45  47
BRANCH  44  49
ATOM     49  O   UNL     1      11.014   1.170  24.347  0.00  0.00    -0.503 OA
ATOM     50  H   UNL     1      11.640   0.841  23.671  0.00  0.00    +0.292 HD
ENDBRANCH  44  49
ENDBRANCH  30  42
BRANCH  36  51
ATOM     51  O   UNL     1       5.903  -6.373  20.756  0.00  0.00    -0.507 OA
ATOM     52  H   UNL     1       6.843  -6.340  20.508  0.00  0.00    +0.292 HD
ENDBRANCH  36  51
BRANCH  34  53
ATOM     53  O   UNL     1       3.673  -5.142  24.761  0.00  0.00    -0.506 OA
ATOM     54  H   UNL     1       3.320  -6.042  24.563  0.00  0.00    +0.292 HD
ENDBRANCH  34  53
ENDBRANCH  29  40
ENDBRANCH   1  29
TORSDOF 17
ENDMDL
MODEL 5
REMARK VINA RESULT:      -7.3      2.267      8.420
REMARK  Name = 
REMARK  17 active torsions:
REMARK  status: ('A' for Active; 'I' for Inactive)
REMARK    1  A    between atoms: C_3  and  O_49
REMARK    2  A    between atoms: C_4  and  O_48
REMARK    3  A    between atoms: C_6  and  C_7
REMARK    4  A    between atoms: C_8  and  O_20
REMARK    5  A    between atoms: C_12  and  O_19
REMARK    6  A    between atoms: C_14  and  O_18
REMARK    7  A    between atoms: O_20  and  C_21
REMARK    8  A    between atoms: C_23  and  O_36
REMARK    9  A    between atoms: C_25  and  O_35
REMARK   10  A    between atoms: C_27  and  O_34
REMARK   11  A    between atoms: C_29  and  C_32
REMARK   12  A    between atoms: C_32  and  O_33
REMARK   13  A    between atoms: O_36  and  C_37
REMARK   14  A    between atoms: C_37  and  C_39
REMARK   15  A    between atoms: C_41  and  O_47
REMARK   16  A    between atoms: C_42  and  O_46
REMARK   17  A    between atoms: C_43  and  O_45
REMARK                            x       y       z     vdW  Elec       q    Type
REMARK                         _______ _______ _______ _____ _____    ______ ____
ROOT
ATOM      1  C   UNL     1       7.774   0.581  23.775  0.00  0.00    +0.352 C 
ATOM      2  O   UNL     1       7.852   0.784  22.349  0.00  0.00    -0.330 OA
ATOM      3  C   UNL     1       9.103   0.758  21.638  0.00  0.00    +0.179 C 
ATOM      4  C   UNL     1      10.302   1.337  22.419  0.00  0.00    +0.178 C 
ATOM      5  C   UNL     1      10.228   1.124  23.938  0.00  0.00    +0.192 C 
ATOM      6  C   UNL     1       8.831   1.400  24.601  0.00  0.00    +0.276 C 
ENDROOT
BRANCH   5   7
ATOM      7  O   UNL     1      10.650  -0.244  24.141  0.00  0.00    -0.385 OA
ATOM      8  H   UNL     1       9.937  -0.721  24.611  0.00  0.00    +0.210 HD
ENDBRANCH   5   7
BRANCH   4   9
ATOM      9  O   UNL     1      10.429   2.735  22.147  0.00  0.00    -0.386 OA
ATOM     10  H   UNL     1      10.982   2.817  21.347  0.00  0.00    +0.210 HD
ENDBRANCH   4   9
BRANCH   6  11
ATOM     11  O   UNL     1       8.687   2.784  25.209  0.00  0.00    -0.449 OA
BRANCH  11  12
ATOM     12  C   UNL     1       7.582   3.412  25.729  0.00  0.00    +0.340 C 
ATOM     13  O   UNL     1       7.460   3.687  26.914  0.00  0.00    -0.245 OA
BRANCH  12  14
ATOM     14  C   UNL     1       6.458   3.809  24.700  0.00  0.00    +0.066 A 
ATOM     15  C   UNL     1       5.270   3.069  24.574  0.00  0.00    +0.064 A 
ATOM     16  C   UNL     1       4.294   3.405  23.593  0.00  0.00    +0.163 A 
ATOM     17  C   UNL     1       4.477   4.471  22.732  0.00  0.00    +0.201 A 
ATOM     18  C   UNL     1       5.639   5.220  22.830  0.00  0.00    +0.163 A 
ATOM     19  C   UNL     1       6.627   4.897  23.777  0.00  0.00    +0.064 A 
BRANCH  18  20
ATOM     20  O   UNL     1       5.720   6.259  21.924  0.00  0.00    -0.503 OA
ATOM     21  H   UNL     1       6.069   5.926  21.080  0.00  0.00    +0.292 HD
ENDBRANCH  18  20
BRANCH  17  22
ATOM     22  O   UNL     1       3.498   4.756  21.824  0.00  0.00    -0.501 OA
ATOM     23  H   UNL     1       2.660   4.390  22.196  0.00  0.00    +0.292 HD
ENDBRANCH  17  22
BRANCH  16  24
ATOM     24  O   UNL     1       3.162   2.657  23.471  0.00  0.00    -0.503 OA
ATOM     25  H   UNL     1       2.728   2.735  24.348  0.00  0.00    +0.292 HD
ENDBRANCH  16  24
ENDBRANCH  12  14
ENDBRANCH  11  12
ENDBRANCH   6  11
BRANCH   3  26
ATOM     26  C   UNL     1       9.433  -0.603  20.945  0.00  0.00    +0.190 C 
BRANCH  26  27
ATOM     27  O   UNL     1      10.174  -1.501  21.776  0.00  0.00    -0.392 OA
ATOM     28  H   UNL     1      11.073  -1.146  21.895  0.00  0.00    +0.210 HD
ENDBRANCH  26  27
ENDBRANCH   3  26
BRANCH   1  29
ATOM     29  O   UNL     1       8.096  -0.812  24.123  0.00  0.00    -0.452 OA
BRANCH  29  40
ATOM     30  C   UNL     1       6.329  -1.928  25.361  0.00  0.00    +0.181 A 
ATOM     31  O   UNL     1       5.551  -3.059  25.625  0.00  0.00    -0.451 OA
ATOM     32  C   UNL     1       5.619  -4.143  24.793  0.00  0.00    +0.147 A 
ATOM     33  C   UNL     1       6.351  -4.122  23.614  0.00  0.00    +0.109 A 
ATOM     34  C   UNL     1       6.340  -5.242  22.773  0.00  0.00    +0.135 A 
ATOM     35  C   UNL     1       5.595  -6.373  23.103  0.00  0.00    +0.091 A 
ATOM     36  C   UNL     1       4.879  -6.389  24.295  0.00  0.00    +0.124 A 
ATOM     37  C   UNL     1       7.128  -2.911  23.295  0.00  0.00    +0.238 A 
ATOM     38  O   UNL     1       7.746  -2.870  22.233  0.00  0.00    -0.283 OA
ATOM     39  C   UNL     1       4.894  -5.289  25.151  0.00  0.00    +0.092 A 
ATOM     40  C   UNL     1       7.130  -1.792  24.267  0.00  0.00    +0.214 A 
BRANCH  30  42
ATOM     41  C   UNL     1       4.771  -0.340  26.502  0.00  0.00    +0.015 A 
ATOM     42  C   UNL     1       6.078  -0.874  26.391  0.00  0.00    +0.025 A 
ATOM     43  C   UNL     1       7.054  -0.370  27.256  0.00  0.00    +0.060 A 
ATOM     44  C   UNL     1       6.759   0.709  28.093  0.00  0.00    +0.159 A 
ATOM     45  C   UNL     1       5.492   1.284  28.114  0.00  0.00    +0.158 A 
ATOM     46  C   UNL     1       4.477   0.739  27.350  0.00  0.00    +0.050 A 
BRANCH  45  47
ATOM     47  O   UNL     1       5.297   2.386  28.900  0.00  0.00    -0.503 OA
ATOM     48  H   UNL     1       5.522   3.177  28.379  0.00  0.00    +0.292 HD
ENDBRANCH  45  47
BRANCH  44  49
ATOM     49  O   UNL     1       7.742   1.227  28.887  0.00  0.00    -0.503 OA
ATOM     50  H   UNL     1       8.078   0.463  29.398  0.00  0.00    +0.292 HD
ENDBRANCH  44  49
ENDBRANCH  30  42
BRANCH  36  51
ATOM     51  O   UNL     1       4.139  -7.476  24.656  0.00  0.00    -0.507 OA
ATOM     52  H   UNL     1       4.710  -8.102  25.134  0.00  0.00    +0.292 HD
ENDBRANCH  36  51
BRANCH  34  53
ATOM     53  O   UNL     1       7.042  -5.296  21.599  0.00  0.00    -0.506 OA
ATOM     54  H   UNL     1       7.965  -5.578  21.804  0.00  0.00    +0.292 HD
ENDBRANCH  34  53
ENDBRANCH  29  40
ENDBRANCH   1  29
TORSDOF 17
ENDMDL
MODEL 6
REMARK VINA RESULT:      -6.9      2.081      7.723
REMARK  Name = 
REMARK  17 active torsions:
REMARK  status: ('A' for Active; 'I' for Inactive)
REMARK    1  A    between atoms: C_3  and  O_49
REMARK    2  A    between atoms: C_4  and  O_48
REMARK    3  A    between atoms: C_6  and  C_7
REMARK    4  A    between atoms: C_8  and  O_20
REMARK    5  A    between atoms: C_12  and  O_19
REMARK    6  A    between atoms: C_14  and  O_18
REMARK    7  A    between atoms: O_20  and  C_21
REMARK    8  A    between atoms: C_23  and  O_36
REMARK    9  A    between atoms: C_25  and  O_35
REMARK   10  A    between atoms: C_27  and  O_34
REMARK   11  A    between atoms: C_29  and  C_32
REMARK   12  A    between atoms: C_32  and  O_33
REMARK   13  A    between atoms: O_36  and  C_37
REMARK   14  A    between atoms: C_37  and  C_39
REMARK   15  A    between atoms: C_41  and  O_47
REMARK   16  A    between atoms: C_42  and  O_46
REMARK   17  A    between atoms: C_43  and  O_45
REMARK                            x       y       z     vdW  Elec       q    Type
REMARK                         _______ _______ _______ _____ _____    ______ ____
ROOT
ATOM      1  C   UNL     1       6.837   0.975  25.953  0.00  0.00    +0.352 C 
ATOM      2  O   UNL     1       7.288   1.959  26.906  0.00  0.00    -0.330 OA
ATOM      3  C   UNL     1       6.620   2.171  28.163  0.00  0.00    +0.179 C 
ATOM      4  C   UNL     1       5.086   2.000  28.117  0.00  0.00    +0.178 C 
ATOM      5  C   UNL     1       4.599   0.952  27.106  0.00  0.00    +0.192 C 
ATOM      6  C   UNL     1       5.288   0.990  25.695  0.00  0.00    +0.276 C 
ENDROOT
BRANCH   5   7
ATOM      7  O   UNL     1       4.804  -0.320  27.763  0.00  0.00    -0.385 OA
ATOM      8  H   UNL     1       5.752  -0.551  27.698  0.00  0.00    +0.210 HD
ENDBRANCH   5   7
BRANCH   4   9
ATOM      9  O   UNL     1       4.466   3.255  27.828  0.00  0.00    -0.386 OA
ATOM     10  H   UNL     1       3.503   3.114  27.884  0.00  0.00    +0.210 HD
ENDBRANCH   4   9
BRANCH   6  11
ATOM     11  O   UNL     1       4.514   1.759  24.639  0.00  0.00    -0.449 OA
BRANCH  11  12
ATOM     12  C   UNL     1       4.094   3.066  24.626  0.00  0.00    +0.340 C 
ATOM     13  O   UNL     1       3.087   3.455  25.199  0.00  0.00    -0.245 OA
BRANCH  12  14
ATOM     14  C   UNL     1       5.010   4.084  23.847  0.00  0.00    +0.066 A 
ATOM     15  C   UNL     1       4.473   5.144  23.097  0.00  0.00    +0.064 A 
ATOM     16  C   UNL     1       5.315   6.014  22.347  0.00  0.00    +0.163 A 
ATOM     17  C   UNL     1       6.687   5.852  22.332  0.00  0.00    +0.201 A 
ATOM     18  C   UNL     1       7.247   4.815  23.061  0.00  0.00    +0.163 A 
ATOM     19  C   UNL     1       6.437   3.930  23.794  0.00  0.00    +0.064 A 
BRANCH  18  20
ATOM     20  O   UNL     1       8.623   4.743  22.977  0.00  0.00    -0.503 OA
ATOM     21  H   UNL     1       8.873   4.122  22.272  0.00  0.00    +0.292 HD
ENDBRANCH  18  20
BRANCH  17  22
ATOM     22  O   UNL     1       7.443   6.728  21.609  0.00  0.00    -0.501 OA
ATOM     23  H   UNL     1       6.825   7.177  20.983  0.00  0.00    +0.292 HD
ENDBRANCH  17  22
BRANCH  16  24
ATOM     24  O   UNL     1       4.770   7.019  21.605  0.00  0.00    -0.503 OA
ATOM     25  H   UNL     1       5.541   7.436  21.163  0.00  0.00    +0.292 HD
ENDBRANCH  16  24
ENDBRANCH  12  14
ENDBRANCH  11  12
ENDBRANCH   6  11
BRANCH   3  26
ATOM     26  C   UNL     1       7.273   1.443  29.381  0.00  0.00    +0.190 C 
BRANCH  26  27
ATOM     27  O   UNL     1       8.382   0.614  29.023  0.00  0.00    -0.392 OA
ATOM     28  H   UNL     1       8.881   0.394  29.829  0.00  0.00    +0.210 HD
ENDBRANCH  26  27
ENDBRANCH   3  26
BRANCH   1  29
ATOM     29  O   UNL     1       7.071  -0.387  26.459  0.00  0.00    -0.452 OA
BRANCH  29  40
ATOM     30  C   UNL     1       7.880  -1.426  24.417  0.00  0.00    +0.181 A 
ATOM     31  O   UNL     1       7.828  -2.450  23.466  0.00  0.00    -0.451 OA
ATOM     32  C   UNL     1       7.059  -3.558  23.697  0.00  0.00    +0.147 A 
ATOM     33  C   UNL     1       6.413  -3.765  24.906  0.00  0.00    +0.109 A 
ATOM     34  C   UNL     1       5.684  -4.945  25.108  0.00  0.00    +0.135 A 
ATOM     35  C   UNL     1       5.612  -5.916  24.109  0.00  0.00    +0.091 A 
ATOM     36  C   UNL     1       6.250  -5.689  22.895  0.00  0.00    +0.124 A 
ATOM     37  C   UNL     1       6.509  -2.720  25.940  0.00  0.00    +0.238 A 
ATOM     38  O   UNL     1       5.971  -2.915  27.029  0.00  0.00    -0.283 OA
ATOM     39  C   UNL     1       6.964  -4.512  22.674  0.00  0.00    +0.092 A 
ATOM     40  C   UNL     1       7.252  -1.477  25.626  0.00  0.00    +0.214 A 
BRANCH  30  42
ATOM     41  C   UNL     1       9.939  -0.043  24.726  0.00  0.00    +0.015 A 
ATOM     42  C   UNL     1       8.787  -0.333  23.955  0.00  0.00    +0.025 A 
ATOM     43  C   UNL     1       8.574   0.435  22.806  0.00  0.00    +0.060 A 
ATOM     44  C   UNL     1       9.404   1.524  22.528  0.00  0.00    +0.159 A 
ATOM     45  C   UNL     1      10.474   1.851  23.355  0.00  0.00    +0.158 A 
ATOM     46  C   UNL     1      10.775   1.046  24.439  0.00  0.00    +0.050 A 
BRANCH  45  47
ATOM     47  O   UNL     1      11.195   2.975  23.064  0.00  0.00    -0.503 OA
ATOM     48  H   UNL     1      12.138   2.781  23.209  0.00  0.00    +0.292 HD
ENDBRANCH  45  47
BRANCH  44  49
ATOM     49  O   UNL     1       9.144   2.300  21.433  0.00  0.00    -0.503 OA
ATOM     50  H   UNL     1       8.715   1.695  20.795  0.00  0.00    +0.292 HD
ENDBRANCH  44  49
ENDBRANCH  30  42
BRANCH  36  51
ATOM     51  O   UNL     1       6.202  -6.612  21.892  0.00  0.00    -0.507 OA
ATOM     52  H   UNL     1       6.971  -6.485  21.311  0.00  0.00    +0.292 HD
ENDBRANCH  36  51
BRANCH  34  53
ATOM     53  O   UNL     1       5.015  -5.216  26.270  0.00  0.00    -0.506 OA
ATOM     54  H   UNL     1       4.682  -4.364  26.641  0.00  0.00    +0.292 HD
ENDBRANCH  34  53
ENDBRANCH  29  40
ENDBRANCH   1  29
TORSDOF 17
ENDMDL
MODEL 7
REMARK VINA RESULT:      -6.9      1.113      1.689
REMARK  Name = 
REMARK  17 active torsions:
REMARK  status: ('A' for Active; 'I' for Inactive)
REMARK    1  A    between atoms: C_3  and  O_49
REMARK    2  A    between atoms: C_4  and  O_48
REMARK    3  A    between atoms: C_6  and  C_7
REMARK    4  A    between atoms: C_8  and  O_20
REMARK    5  A    between atoms: C_12  and  O_19
REMARK    6  A    between atoms: C_14  and  O_18
REMARK    7  A    between atoms: O_20  and  C_21
REMARK    8  A    between atoms: C_23  and  O_36
REMARK    9  A    between atoms: C_25  and  O_35
REMARK   10  A    between atoms: C_27  and  O_34
REMARK   11  A    between atoms: C_29  and  C_32
REMARK   12  A    between atoms: C_32  and  O_33
REMARK   13  A    between atoms: O_36  and  C_37
REMARK   14  A    between atoms: C_37  and  C_39
REMARK   15  A    between atoms: C_41  and  O_47
REMARK   16  A    between atoms: C_42  and  O_46
REMARK   17  A    between atoms: C_43  and  O_45
REMARK                            x       y       z     vdW  Elec       q    Type
REMARK                         _______ _______ _______ _____ _____    ______ ____
ROOT
ATOM      1  C   UNL     1       5.533   1.377  24.645  0.00  0.00    +0.352 C 
ATOM      2  O   UNL     1       4.391   2.256  24.649  0.00  0.00    -0.330 OA
ATOM      3  C   UNL     1       3.682   2.587  25.857  0.00  0.00    +0.179 C 
ATOM      4  C   UNL     1       3.594   1.443  26.889  0.00  0.00    +0.178 C 
ATOM      5  C   UNL     1       4.809   0.503  26.894  0.00  0.00    +0.192 C 
ATOM      6  C   UNL     1       5.337   0.061  25.481  0.00  0.00    +0.276 C 
ENDROOT
BRANCH   5   7
ATOM      7  O   UNL     1       5.823   1.212  27.641  0.00  0.00    -0.385 OA
ATOM      8  H   UNL     1       6.660   0.709  27.579  0.00  0.00    +0.210 HD
ENDBRANCH   5   7
BRANCH   4   9
ATOM      9  O   UNL     1       2.408   0.677  26.665  0.00  0.00    -0.386 OA
ATOM     10  H   UNL     1       1.692   1.314  26.482  0.00  0.00    +0.210 HD
ENDBRANCH   4   9
BRANCH   6  11
ATOM     11  O   UNL     1       4.820  -1.288  25.012  0.00  0.00    -0.449 OA
BRANCH  11  12
ATOM     12  C   UNL     1       5.214  -2.556  25.360  0.00  0.00    +0.340 C 
ATOM     13  O   UNL     1       6.012  -2.791  26.256  0.00  0.00    -0.245 OA
BRANCH  12  14
ATOM     14  C   UNL     1       4.547  -3.736  24.558  0.00  0.00    +0.066 A 
ATOM     15  C   UNL     1       3.212  -4.120  24.771  0.00  0.00    +0.064 A 
ATOM     16  C   UNL     1       2.647  -5.232  24.083  0.00  0.00    +0.163 A 
ATOM     17  C   UNL     1       3.387  -5.970  23.179  0.00  0.00    +0.201 A 
ATOM     18  C   UNL     1       4.707  -5.618  22.948  0.00  0.00    +0.163 A 
ATOM     19  C   UNL     1       5.295  -4.537  23.629  0.00  0.00    +0.064 A 
BRANCH  18  20
ATOM     20  O   UNL     1       5.353  -6.420  22.029  0.00  0.00    -0.503 OA
ATOM     21  H   UNL     1       4.749  -7.121  21.730  0.00  0.00    +0.292 HD
ENDBRANCH  18  20
BRANCH  17  22
ATOM     22  O   UNL     1       2.786  -7.013  22.537  0.00  0.00    -0.501 OA
ATOM     23  H   UNL     1       3.156  -7.837  22.938  0.00  0.00    +0.292 HD
ENDBRANCH  17  22
BRANCH  16  24
ATOM     24  O   UNL     1       1.358  -5.602  24.327  0.00  0.00    -0.503 OA
ATOM     25  H   UNL     1       1.130  -6.186  23.572  0.00  0.00    +0.292 HD
ENDBRANCH  16  24
ENDBRANCH  12  14
ENDBRANCH  11  12
ENDBRANCH   6  11
BRANCH   3  26
ATOM     26  C   UNL     1       4.088   3.952  26.500  0.00  0.00    +0.190 C 
BRANCH  26  27
ATOM     27  O   UNL     1       5.443   3.986  26.958  0.00  0.00    -0.392 OA
ATOM     28  H   UNL     1       5.681   4.908  27.158  0.00  0.00    +0.210 HD
ENDBRANCH  26  27
ENDBRANCH   3  26
BRANCH   1  29
ATOM     29  O   UNL     1       6.684   2.014  25.304  0.00  0.00    -0.452 OA
BRANCH  29  40
ATOM     30  C   UNL     1       8.820   1.551  24.243  0.00  0.00    +0.181 A 
ATOM     31  O   UNL     1      10.077   1.971  23.797  0.00  0.00    -0.451 OA
ATOM     32  C   UNL     1      10.387   3.303  23.785  0.00  0.00    +0.147 A 
ATOM     33  C   UNL     1       9.450   4.280  24.089  0.00  0.00    +0.109 A 
ATOM     34  C   UNL     1       9.808   5.632  24.007  0.00  0.00    +0.135 A 
ATOM     35  C   UNL     1      11.092   6.005  23.612  0.00  0.00    +0.091 A 
ATOM     36  C   UNL     1      12.028   5.018  23.326  0.00  0.00    +0.124 A 
ATOM     37  C   UNL     1       8.102   3.852  24.503  0.00  0.00    +0.238 A 
ATOM     38  O   UNL     1       7.255   4.712  24.736  0.00  0.00    -0.283 OA
ATOM     39  C   UNL     1      11.691   3.668  23.421  0.00  0.00    +0.092 A 
ATOM     40  C   UNL     1       7.822   2.401  24.620  0.00  0.00    +0.214 A 
BRANCH  30  42
ATOM     41  C   UNL     1       9.197  -0.714  25.230  0.00  0.00    +0.015 A 
ATOM     42  C   UNL     1       8.707   0.064  24.153  0.00  0.00    +0.025 A 
ATOM     43  C   UNL     1       8.151  -0.620  23.068  0.00  0.00    +0.060 A 
ATOM     44  C   UNL     1       8.212  -2.015  23.014  0.00  0.00    +0.159 A 
ATOM     45  C   UNL     1       8.788  -2.756  24.040  0.00  0.00    +0.158 A 
ATOM     46  C   UNL     1       9.249  -2.115  25.175  0.00  0.00    +0.050 A 
BRANCH  45  47
ATOM     47  O   UNL     1       8.882  -4.111  23.884  0.00  0.00    -0.503 OA
ATOM     48  H   UNL     1       9.753  -4.315  23.500  0.00  0.00    +0.292 HD
ENDBRANCH  45  47
BRANCH  44  49
ATOM     49  O   UNL     1       7.717  -2.663  21.917  0.00  0.00    -0.503 OA
ATOM     50  H   UNL     1       8.015  -3.589  22.019  0.00  0.00    +0.292 HD
ENDBRANCH  44  49
ENDBRANCH  30  42
BRANCH  36  51
ATOM     51  O   UNL     1      13.295   5.340  22.938  0.00  0.00    -0.507 OA
ATOM     52  H   UNL     1      13.577   6.138  23.417  0.00  0.00    +0.292 HD
ENDBRANCH  36  51
BRANCH  34  53
ATOM     53  O   UNL     1       8.940   6.649  24.299  0.00  0.00    -0.506 OA
ATOM     54  H   UNL     1       9.040   6.876  25.254  0.00  0.00    +0.292 HD
ENDBRANCH  34  53
ENDBRANCH  29  40
ENDBRANCH   1  29
TORSDOF 17
ENDMDL
MODEL 8
REMARK VINA RESULT:      -6.9      2.526      6.590
REMARK  Name = 
REMARK  17 active torsions:
REMARK  status: ('A' for Active; 'I' for Inactive)
REMARK    1  A    between atoms: C_3  and  O_49
REMARK    2  A    between atoms: C_4  and  O_48
REMARK    3  A    between atoms: C_6  and  C_7
REMARK    4  A    between atoms: C_8  and  O_20
REMARK    5  A    between atoms: C_12  and  O_19
REMARK    6  A    between atoms: C_14  and  O_18
REMARK    7  A    between atoms: O_20  and  C_21
REMARK    8  A    between atoms: C_23  and  O_36
REMARK    9  A    between atoms: C_25  and  O_35
REMARK   10  A    between atoms: C_27  and  O_34
REMARK   11  A    between atoms: C_29  and  C_32
REMARK   12  A    between atoms: C_32  and  O_33
REMARK   13  A    between atoms: O_36  and  C_37
REMARK   14  A    between atoms: C_37  and  C_39
REMARK   15  A    between atoms: C_41  and  O_47
REMARK   16  A    between atoms: C_42  and  O_46
REMARK   17  A    between atoms: C_43  and  O_45
REMARK                            x       y       z     vdW  Elec       q    Type
REMARK                         _______ _______ _______ _____ _____    ______ ____
ROOT
ATOM      1  C   UNL     1       7.677  -2.284  26.019  0.00  0.00    +0.352 C 
ATOM      2  O   UNL     1       9.005  -2.063  25.501  0.00  0.00    -0.330 OA
ATOM      3  C   UNL     1       9.501  -2.757  24.342  0.00  0.00    +0.179 C 
ATOM      4  C   UNL     1       9.008  -4.213  24.199  0.00  0.00    +0.178 C 
ATOM      5  C   UNL     1       7.594  -4.456  24.746  0.00  0.00    +0.192 C 
ATOM      6  C   UNL     1       7.275  -3.799  26.137  0.00  0.00    +0.276 C 
ENDROOT
BRANCH   5   7
ATOM      7  O   UNL     1       6.708  -3.967  23.713  0.00  0.00    -0.385 OA
ATOM      8  H   UNL     1       6.613  -2.999  23.820  0.00  0.00    +0.210 HD
ENDBRANCH   5   7
BRANCH   4   9
ATOM      9  O   UNL     1       9.922  -5.100  24.848  0.00  0.00    -0.386 OA
ATOM     10  H   UNL     1       9.818  -4.960  25.808  0.00  0.00    +0.210 HD
ENDBRANCH   4   9
BRANCH   6  11
ATOM     11  O   UNL     1       7.443  -4.730  27.325  0.00  0.00    -0.449 OA
BRANCH  11  12
ATOM     12  C   UNL     1       6.596  -5.687  27.826  0.00  0.00    +0.340 C 
ATOM     13  O   UNL     1       6.847  -6.357  28.817  0.00  0.00    -0.245 OA
BRANCH  12  14
ATOM     14  C   UNL     1       5.226  -5.869  27.069  0.00  0.00    +0.066 A 
ATOM     15  C   UNL     1       4.041  -5.262  27.519  0.00  0.00    +0.064 A 
ATOM     16  C   UNL     1       2.801  -5.491  26.858  0.00  0.00    +0.163 A 
ATOM     17  C   UNL     1       2.717  -6.313  25.750  0.00  0.00    +0.201 A 
ATOM     18  C   UNL     1       3.867  -6.928  25.283  0.00  0.00    +0.163 A 
ATOM     19  C   UNL     1       5.101  -6.734  25.929  0.00  0.00    +0.064 A 
BRANCH  18  20
ATOM     20  O   UNL     1       3.671  -7.727  24.174  0.00  0.00    -0.503 OA
ATOM     21  H   UNL     1       4.391  -7.580  23.538  0.00  0.00    +0.292 HD
ENDBRANCH  18  20
BRANCH  17  22
ATOM     22  O   UNL     1       1.503  -6.481  25.149  0.00  0.00    -0.501 OA
ATOM     23  H   UNL     1       1.483  -7.411  24.816  0.00  0.00    +0.292 HD
ENDBRANCH  17  22
BRANCH  16  24
ATOM     24  O   UNL     1       1.660  -4.913  27.329  0.00  0.00    -0.503 OA
ATOM     25  H   UNL     1       1.357  -4.344  26.588  0.00  0.00    +0.292 HD
ENDBRANCH  16  24
ENDBRANCH  12  14
ENDBRANCH  11  12
ENDBRANCH   6  11
BRANCH   3  26
ATOM     26  C   UNL     1       9.402  -1.952  23.006  0.00  0.00    +0.190 C 
BRANCH  26  27
ATOM     27  O   UNL     1       8.069  -1.847  22.501  0.00  0.00    -0.392 OA
ATOM     28  H   UNL     1       7.863  -2.652  21.994  0.00  0.00    +0.210 HD
ENDBRANCH  26  27
ENDBRANCH   3  26
BRANCH   1  29
ATOM     29  O   UNL     1       6.662  -1.748  25.099  0.00  0.00    -0.452 OA
BRANCH  29  40
ATOM     30  C   UNL     1       6.176   0.629  25.224  0.00  0.00    +0.181 A 
ATOM     31  O   UNL     1       5.481   1.704  25.786  0.00  0.00    -0.451 OA
ATOM     32  C   UNL     1       4.441   1.471  26.644  0.00  0.00    +0.147 A 
ATOM     33  C   UNL     1       3.963   0.192  26.891  0.00  0.00    +0.109 A 
ATOM     34  C   UNL     1       2.859   0.017  27.736  0.00  0.00    +0.135 A 
ATOM     35  C   UNL     1       2.231   1.114  28.322  0.00  0.00    +0.091 A 
ATOM     36  C   UNL     1       2.729   2.390  28.081  0.00  0.00    +0.124 A 
ATOM     37  C   UNL     1       4.650  -0.947  26.256  0.00  0.00    +0.238 A 
ATOM     38  O   UNL     1       4.208  -2.079  26.438  0.00  0.00    -0.283 OA
ATOM     39  C   UNL     1       3.838   2.578  27.257  0.00  0.00    +0.092 A 
ATOM     40  C   UNL     1       5.845  -0.679  25.422  0.00  0.00    +0.214 A 
BRANCH  30  42
ATOM     41  C   UNL     1       6.916   1.429  22.975  0.00  0.00    +0.015 A 
ATOM     42  C   UNL     1       7.254   1.125  24.316  0.00  0.00    +0.025 A 
ATOM     43  C   UNL     1       8.586   1.307  24.700  0.00  0.00    +0.060 A 
ATOM     44  C   UNL     1       9.549   1.646  23.746  0.00  0.00    +0.159 A 
ATOM     45  C   UNL     1       9.210   1.844  22.412  0.00  0.00    +0.158 A 
ATOM     46  C   UNL     1       7.885   1.777  22.022  0.00  0.00    +0.050 A 
BRANCH  45  47
ATOM     47  O   UNL     1      10.217   2.096  21.521  0.00  0.00    -0.503 OA
ATOM     48  H   UNL     1      11.066   2.031  21.992  0.00  0.00    +0.292 HD
ENDBRANCH  45  47
BRANCH  44  49
ATOM     49  O   UNL     1      10.856   1.760  24.129  0.00  0.00    -0.503 OA
ATOM     50  H   UNL     1      11.073   0.897  24.535  0.00  0.00    +0.292 HD
ENDBRANCH  44  49
ENDBRANCH  30  42
BRANCH  36  51
ATOM     51  O   UNL     1       2.144   3.490  28.636  0.00  0.00    -0.507 OA
ATOM     52  H   UNL     1       2.478   3.600  29.543  0.00  0.00    +0.292 HD
ENDBRANCH  36  51
BRANCH  34  53
ATOM     53  O   UNL     1       2.337  -1.213  28.031  0.00  0.00    -0.506 OA
ATOM     54  H   UNL     1       1.441  -1.274  27.624  0.00  0.00    +0.292 HD
ENDBRANCH  34  53
ENDBRANCH  29  40
ENDBRANCH   1  29
TORSDOF 17
ENDMDL
MODEL 9
REMARK VINA RESULT:      -6.8      2.178      9.346
REMARK  Name = 
REMARK  17 active torsions:
REMARK  status: ('A' for Active; 'I' for Inactive)
REMARK    1  A    between atoms: C_3  and  O_49
REMARK    2  A    between atoms: C_4  and  O_48
REMARK    3  A    between atoms: C_6  and  C_7
REMARK    4  A    between atoms: C_8  and  O_20
REMARK    5  A    between atoms: C_12  and  O_19
REMARK    6  A    between atoms: C_14  and  O_18
REMARK    7  A    between atoms: O_20  and  C_21
REMARK    8  A    between atoms: C_23  and  O_36
REMARK    9  A    between atoms: C_25  and  O_35
REMARK   10  A    between atoms: C_27  and  O_34
REMARK   11  A    between atoms: C_29  and  C_32
REMARK   12  A    between atoms: C_32  and  O_33
REMARK   13  A    between atoms: O_36  and  C_37
REMARK   14  A    between atoms: C_37  and  C_39
REMARK   15  A    between atoms: C_41  and  O_47
REMARK   16  A    between atoms: C_42  and  O_46
REMARK   17  A    between atoms: C_43  and  O_45
REMARK                            x       y       z     vdW  Elec       q    Type
REMARK                         _______ _______ _______ _____ _____    ______ ____
ROOT
ATOM      1  C   UNL     1       8.217  -0.694  24.500  0.00  0.00    +0.352 C 
ATOM      2  O   UNL     1       7.408  -0.957  23.336  0.00  0.00    -0.330 OA
ATOM      3  C   UNL     1       7.769  -1.953  22.361  0.00  0.00    +0.179 C 
ATOM      4  C   UNL     1       9.286  -2.097  22.115  0.00  0.00    +0.178 C 
ATOM      5  C   UNL     1      10.155  -1.821  23.351  0.00  0.00    +0.192 C 
ATOM      6  C   UNL     1       9.754  -0.561  24.201  0.00  0.00    +0.276 C 
ENDROOT
BRANCH   5   7
ATOM      7  O   UNL     1      10.082  -3.034  24.133  0.00  0.00    -0.385 OA
ATOM      8  H   UNL     1      10.980  -3.417  24.193  0.00  0.00    +0.210 HD
ENDBRANCH   5   7
BRANCH   4   9
ATOM      9  O   UNL     1       9.690  -1.230  21.053  0.00  0.00    -0.386 OA
ATOM     10  H   UNL     1      10.399  -1.690  20.566  0.00  0.00    +0.210 HD
ENDBRANCH   4   9
BRANCH   6  11
ATOM     11  O   UNL     1      10.549   0.692  23.878  0.00  0.00    -0.449 OA
BRANCH  11  12
ATOM     12  C   UNL     1      10.333   1.656  22.925  0.00  0.00    +0.340 C 
ATOM     13  O   UNL     1      10.106   1.403  21.750  0.00  0.00    -0.245 OA
BRANCH  12  14
ATOM     14  C   UNL     1      10.355   3.149  23.427  0.00  0.00    +0.066 A 
ATOM     15  C   UNL     1      11.502   3.954  23.316  0.00  0.00    +0.064 A 
ATOM     16  C   UNL     1      11.522   5.280  23.835  0.00  0.00    +0.163 A 
ATOM     17  C   UNL     1      10.417   5.825  24.461  0.00  0.00    +0.201 A 
ATOM     18  C   UNL     1       9.271   5.056  24.587  0.00  0.00    +0.163 A 
ATOM     19  C   UNL     1       9.231   3.737  24.101  0.00  0.00    +0.064 A 
BRANCH  18  20
ATOM     20  O   UNL     1       8.229   5.696  25.228  0.00  0.00    -0.503 OA
ATOM     21  H   UNL     1       7.385   5.304  24.944  0.00  0.00    +0.292 HD
ENDBRANCH  18  20
BRANCH  17  22
ATOM     22  O   UNL     1      10.491   7.108  24.923  0.00  0.00    -0.501 OA
ATOM     23  H   UNL     1      10.354   7.693  24.139  0.00  0.00    +0.292 HD
ENDBRANCH  17  22
BRANCH  16  24
ATOM     24  O   UNL     1      12.654   6.033  23.741  0.00  0.00    -0.503 OA
ATOM     25  H   UNL     1      13.324   5.521  24.244  0.00  0.00    +0.292 HD
ENDBRANCH  16  24
ENDBRANCH  12  14
ENDBRANCH  11  12
ENDBRANCH   6  11
BRANCH   3  26
ATOM     26  C   UNL     1       7.051  -3.330  22.537  0.00  0.00    +0.190 C 
BRANCH  26  27
ATOM     27  O   UNL     1       7.930  -4.382  22.945  0.00  0.00    -0.392 OA
ATOM     28  H   UNL     1       7.427  -5.215  22.972  0.00  0.00    +0.210 HD
ENDBRANCH  26  27
ENDBRANCH   3  26
BRANCH   1  29
ATOM     29  O   UNL     1       8.164  -1.825  25.439  0.00  0.00    -0.452 OA
BRANCH  29  40
ATOM     30  C   UNL     1       6.187  -1.324  26.759  0.00  0.00    +0.181 A 
ATOM     31  O   UNL     1       5.182  -1.717  27.648  0.00  0.00    -0.451 OA
ATOM     32  C   UNL     1       5.023  -3.040  27.958  0.00  0.00    +0.147 A 
ATOM     33  C   UNL     1       5.753  -4.036  27.326  0.00  0.00    +0.109 A 
ATOM     34  C   UNL     1       5.511  -5.379  27.643  0.00  0.00    +0.135 A 
ATOM     35  C   UNL     1       4.536  -5.724  28.579  0.00  0.00    +0.091 A 
ATOM     36  C   UNL     1       3.823  -4.716  29.218  0.00  0.00    +0.124 A 
ATOM     37  C   UNL     1       6.775  -3.638  26.342  0.00  0.00    +0.238 A 
ATOM     38  O   UNL     1       7.398  -4.517  25.749  0.00  0.00    -0.283 OA
ATOM     39  C   UNL     1       4.066  -3.375  28.926  0.00  0.00    +0.092 A 
ATOM     40  C   UNL     1       7.009  -2.193  26.106  0.00  0.00    +0.214 A 
BRANCH  30  42
ATOM     41  C   UNL     1       7.003   0.957  27.375  0.00  0.00    +0.015 A 
ATOM     42  C   UNL     1       6.159   0.158  26.566  0.00  0.00    +0.025 A 
ATOM     43  C   UNL     1       5.347   0.816  25.638  0.00  0.00    +0.060 A 
ATOM     44  C   UNL     1       5.290   2.212  25.623  0.00  0.00    +0.159 A 
ATOM     45  C   UNL     1       6.056   2.978  26.496  0.00  0.00    +0.158 A 
ATOM     46  C   UNL     1       6.949   2.359  27.351  0.00  0.00    +0.050 A 
BRANCH  45  47
ATOM     47  O   UNL     1       5.891   4.335  26.478  0.00  0.00    -0.503 OA
ATOM     48  H   UNL     1       6.374   4.713  27.234  0.00  0.00    +0.292 HD
ENDBRANCH  45  47
BRANCH  44  49
ATOM     49  O   UNL     1       4.445   2.837  24.750  0.00  0.00    -0.503 OA
ATOM     50  H   UNL     1       4.181   3.662  25.205  0.00  0.00    +0.292 HD
ENDBRANCH  44  49
ENDBRANCH  30  42
BRANCH  36  51
ATOM     51  O   UNL     1       2.863  -5.011  30.142  0.00  0.00    -0.507 OA
ATOM     52  H   UNL     1       3.288  -5.402  30.924  0.00  0.00    +0.292 HD
ENDBRANCH  36  51
BRANCH  34  53
ATOM     53  O   UNL     1       6.195  -6.414  27.067  0.00  0.00    -0.506 OA
ATOM     54  H   UNL     1       6.319  -7.119  27.746  0.00  0.00    +0.292 HD
ENDBRANCH  34  53
ENDBRANCH  29  40
ENDBRANCH   1  29
TORSDOF 17
ENDMDL
