MODEL 1
REMARK VINA RESULT:      -7.2      0.000      0.000
REMARK  Name = 
REMARK  10 active torsions:
REMARK  status: ('A' for Active; 'I' for Inactive)
REMARK    1  A    between atoms: C_2  and  O_34
REMARK    2  A    between atoms: C_4  and  O_33
REMARK    3  A    between atoms: C_6  and  O_32
REMARK    4  A    between atoms: C_8  and  O_10
REMARK    5  A    between atoms: O_10  and  C_11
REMARK    6  A    between atoms: C_12  and  C_24
REMARK    7  A    between atoms: C_16  and  O_23
REMARK    8  A    between atoms: C_18  and  O_22
REMARK    9  A    between atoms: C_26  and  O_31
REMARK   10  A    between atoms: C_27  and  O_30
REMARK                            x       y       z     vdW  Elec       q    Type
REMARK                         _______ _______ _______ _____ _____    ______ ____
ROOT
ATOM      1  C   UNL     1       7.252  -3.734  25.637  0.00  0.00    +0.214 A 
ATOM      2  C   UNL     1       6.782  -5.025  26.223  0.00  0.00    +0.238 A 
ATOM      3  O   UNL     1       7.348  -5.525  27.186  0.00  0.00    -0.283 OA
ATOM      4  C   UNL     1       5.700  -5.722  25.535  0.00  0.00    +0.109 A 
ATOM      5  C   UNL     1       5.458  -5.366  24.209  0.00  0.00    +0.147 A 
ATOM      6  C   UNL     1       4.499  -6.065  23.465  0.00  0.00    +0.092 A 
ATOM      7  C   UNL     1       3.795  -7.108  24.067  0.00  0.00    +0.124 A 
ATOM      8  C   UNL     1       4.011  -7.447  25.396  0.00  0.00    +0.091 A 
ATOM      9  O   UNL     1       6.145  -4.360  23.575  0.00  0.00    -0.451 OA
ATOM     10  C   UNL     1       4.960  -6.748  26.136  0.00  0.00    +0.135 A 
ATOM     11  C   UNL     1       6.961  -3.521  24.332  0.00  0.00    +0.181 A 
ENDROOT
BRANCH  11  12
ATOM     12  C   UNL     1       7.514  -2.373  23.551  0.00  0.00    +0.025 A 
ATOM     13  C   UNL     1       6.809  -1.161  23.462  0.00  0.00    +0.015 A 
ATOM     14  C   UNL     1       7.313  -0.081  22.726  0.00  0.00    +0.050 A 
ATOM     15  C   UNL     1       8.535  -0.203  22.080  0.00  0.00    +0.158 A 
ATOM     16  C   UNL     1       9.233  -1.394  22.132  0.00  0.00    +0.159 A 
ATOM     17  C   UNL     1       8.732  -2.485  22.847  0.00  0.00    +0.060 A 
BRANCH  15  18
ATOM     18  O   UNL     1       9.040   0.854  21.390  0.00  0.00    -0.503 OA
ATOM     19  H   UNL     1       9.264   0.489  20.511  0.00  0.00    +0.292 HD
ENDBRANCH  15  18
BRANCH  16  20
ATOM     20  O   UNL     1      10.433  -1.470  21.473  0.00  0.00    -0.503 OA
ATOM     21  H   UNL     1      10.446  -2.291  20.952  0.00  0.00    +0.292 HD
ENDBRANCH  16  20
ENDBRANCH  11  12
BRANCH   7  22
ATOM     22  O   UNL     1       2.866  -7.830  23.384  0.00  0.00    -0.507 OA
ATOM     23  H   UNL     1       2.221  -8.204  24.008  0.00  0.00    +0.292 HD
ENDBRANCH   7  22
BRANCH  10  24
ATOM     24  O   UNL     1       5.133  -7.059  27.454  0.00  0.00    -0.506 OA
ATOM     25  H   UNL     1       5.027  -6.263  28.000  0.00  0.00    +0.292 HD
ENDBRANCH  10  24
BRANCH   1  26
ATOM     26  O   UNL     1       8.013  -2.841  26.383  0.00  0.00    -0.453 OA
BRANCH  26  29
ATOM     27  C   UNL     1       5.093  -1.019  27.560  0.00  0.00    +0.198 C 
ATOM     28  O   UNL     1       5.888  -1.870  26.732  0.00  0.00    -0.337 OA
ATOM     29  C   UNL     1       7.262  -1.890  27.151  0.00  0.00    +0.339 C 
ATOM     30  C   UNL     1       7.904  -0.491  26.989  0.00  0.00    +0.214 C 
ATOM     31  C   UNL     1       7.043   0.531  27.759  0.00  0.00    +0.180 C 
ATOM     32  C   UNL     1       5.557   0.425  27.379  0.00  0.00    +0.171 C 
BRANCH  30  33
ATOM     33  O   UNL     1       9.252  -0.511  27.497  0.00  0.00    -0.383 OA
ATOM     34  H   UNL     1       9.499  -1.439  27.654  0.00  0.00    +0.210 HD
ENDBRANCH  30  33
BRANCH  31  35
ATOM     35  O   UNL     1       7.554   1.855  27.559  0.00  0.00    -0.386 OA
ATOM     36  H   UNL     1       7.995   1.873  26.687  0.00  0.00    +0.210 HD
ENDBRANCH  31  35
BRANCH  32  37
ATOM     37  O   UNL     1       5.377   0.830  26.016  0.00  0.00    -0.387 OA
ATOM     38  H   UNL     1       5.730   1.735  25.928  0.00  0.00    +0.210 HD
ENDBRANCH  32  37
ENDBRANCH  26  29
ENDBRANCH   1  26
TORSDOF 10
ENDMDL
MODEL 2
REMARK VINA RESULT:      -7.2      2.347      7.533
REMARK  Name = 
REMARK  10 active torsions:
REMARK  status: ('A' for Active; 'I' for Inactive)
REMARK    1  A    between atoms: C_2  and  O_34
REMARK    2  A    between atoms: C_4  and  O_33
REMARK    3  A    between atoms: C_6  and  O_32
REMARK    4  A    between atoms: C_8  and  O_10
REMARK    5  A    between atoms: O_10  and  C_11
REMARK    6  A    between atoms: C_12  and  C_24
REMARK    7  A    between atoms: C_16  and  O_23
REMARK    8  A    between atoms: C_18  and  O_22
REMARK    9  A    between atoms: C_26  and  O_31
REMARK   10  A    between atoms: C_27  and  O_30
REMARK                            x       y       z     vdW  Elec       q    Type
REMARK                         _______ _______ _______ _____ _____    ______ ____
ROOT
ATOM      1  C   UNL     1       8.968  -2.088  23.625  0.00  0.00    +0.214 A 
ATOM      2  C   UNL     1       9.553  -0.897  22.941  0.00  0.00    +0.238 A 
ATOM      3  O   UNL     1      10.367  -1.026  22.035  0.00  0.00    -0.283 OA
ATOM      4  C   UNL     1       9.208   0.420  23.466  0.00  0.00    +0.109 A 
ATOM      5  C   UNL     1       8.704   0.472  24.765  0.00  0.00    +0.147 A 
ATOM      6  C   UNL     1       8.446   1.713  25.362  0.00  0.00    +0.092 A 
ATOM      7  C   UNL     1       8.692   2.881  24.642  0.00  0.00    +0.124 A 
ATOM      8  C   UNL     1       9.165   2.834  23.337  0.00  0.00    +0.091 A 
ATOM      9  O   UNL     1       8.469  -0.654  25.514  0.00  0.00    -0.451 OA
ATOM     10  C   UNL     1       9.417   1.601  22.743  0.00  0.00    +0.135 A 
ATOM     11  C   UNL     1       8.529  -1.901  24.893  0.00  0.00    +0.181 A 
ENDROOT
BRANCH  11  12
ATOM     12  C   UNL     1       8.090  -3.023  25.777  0.00  0.00    +0.025 A 
ATOM     13  C   UNL     1       8.926  -4.131  25.998  0.00  0.00    +0.015 A 
ATOM     14  C   UNL     1       8.521  -5.193  26.817  0.00  0.00    +0.050 A 
ATOM     15  C   UNL     1       7.277  -5.149  27.431  0.00  0.00    +0.158 A 
ATOM     16  C   UNL     1       6.428  -4.082  27.206  0.00  0.00    +0.159 A 
ATOM     17  C   UNL     1       6.812  -3.026  26.377  0.00  0.00    +0.060 A 
BRANCH  15  18
ATOM     18  O   UNL     1       6.895  -6.164  28.251  0.00  0.00    -0.503 OA
ATOM     19  H   UNL     1       6.040  -6.468  27.883  0.00  0.00    +0.292 HD
ENDBRANCH  15  18
BRANCH  16  20
ATOM     20  O   UNL     1       5.207  -4.086  27.830  0.00  0.00    -0.503 OA
ATOM     21  H   UNL     1       5.345  -4.268  28.776  0.00  0.00    +0.292 HD
ENDBRANCH  16  20
ENDBRANCH  11  12
BRANCH   7  22
ATOM     22  O   UNL     1       8.475   4.112  25.180  0.00  0.00    -0.507 OA
ATOM     23  H   UNL     1       8.581   4.068  26.145  0.00  0.00    +0.292 HD
ENDBRANCH   7  22
BRANCH  10  24
ATOM     24  O   UNL     1       9.839   1.564  21.445  0.00  0.00    -0.506 OA
ATOM     25  H   UNL     1      10.623   2.126  21.335  0.00  0.00    +0.292 HD
ENDBRANCH  10  24
BRANCH   1  26
ATOM     26  O   UNL     1       8.950  -3.334  23.010  0.00  0.00    -0.453 OA
BRANCH  26  29
ATOM     27  C   UNL     1       5.484  -2.982  21.964  0.00  0.00    +0.198 C 
ATOM     28  O   UNL     1       6.706  -2.695  22.649  0.00  0.00    -0.337 OA
ATOM     29  C   UNL     1       7.700  -3.705  22.413  0.00  0.00    +0.339 C 
ATOM     30  C   UNL     1       7.246  -5.066  22.992  0.00  0.00    +0.214 C 
ATOM     31  C   UNL     1       5.867  -5.413  22.396  0.00  0.00    +0.180 C 
ATOM     32  C   UNL     1       4.872  -4.251  22.550  0.00  0.00    +0.171 C 
BRANCH  30  33
ATOM     33  O   UNL     1       8.215  -6.081  22.668  0.00  0.00    -0.383 OA
ATOM     34  H   UNL     1       7.733  -6.854  22.320  0.00  0.00    +0.210 HD
ENDBRANCH  30  33
BRANCH  31  35
ATOM     35  O   UNL     1       5.370  -6.625  22.978  0.00  0.00    -0.386 OA
ATOM     36  H   UNL     1       4.870  -6.384  23.782  0.00  0.00    +0.210 HD
ENDBRANCH  31  35
BRANCH  32  37
ATOM     37  O   UNL     1       4.571  -4.054  23.937  0.00  0.00    -0.387 OA
ATOM     38  H   UNL     1       3.820  -4.635  24.162  0.00  0.00    +0.210 HD
ENDBRANCH  32  37
ENDBRANCH  26  29
ENDBRANCH   1  26
TORSDOF 10
ENDMDL
MODEL 3
REMARK VINA RESULT:      -7.1      2.191      7.209
REMARK  Name = 
REMARK  10 active torsions:
REMARK  status: ('A' for Active; 'I' for Inactive)
REMARK    1  A    between atoms: C_2  and  O_34
REMARK    2  A    between atoms: C_4  and  O_33
REMARK    3  A    between atoms: C_6  and  O_32
REMARK    4  A    between atoms: C_8  and  O_10
REMARK    5  A    between atoms: O_10  and  C_11
REMARK    6  A    between atoms: C_12  and  C_24
REMARK    7  A    between atoms: C_16  and  O_23
REMARK    8  A    between atoms: C_18  and  O_22
REMARK    9  A    between atoms: C_26  and  O_31
REMARK   10  A    between atoms: C_27  and  O_30
REMARK                            x       y       z     vdW  Elec       q    Type
REMARK                         _______ _______ _______ _____ _____    ______ ____
ROOT
ATOM      1  C   UNL     1       7.909  -3.036  24.682  0.00  0.00    +0.214 A 
ATOM      2  C   UNL     1       9.113  -2.526  23.962  0.00  0.00    +0.238 A 
ATOM      3  O   UNL     1      10.189  -3.105  24.040  0.00  0.00    -0.283 OA
ATOM      4  C   UNL     1       8.989  -1.252  23.261  0.00  0.00    +0.109 A 
ATOM      5  C   UNL     1       7.926  -0.427  23.627  0.00  0.00    +0.147 A 
ATOM      6  C   UNL     1       7.808   0.849  23.060  0.00  0.00    +0.092 A 
ATOM      7  C   UNL     1       8.757   1.273  22.131  0.00  0.00    +0.124 A 
ATOM      8  C   UNL     1       9.800   0.444  21.740  0.00  0.00    +0.091 A 
ATOM      9  O   UNL     1       6.984  -0.800  24.553  0.00  0.00    -0.451 OA
ATOM     10  C   UNL     1       9.913  -0.825  22.300  0.00  0.00    +0.135 A 
ATOM     11  C   UNL     1       6.957  -2.124  24.991  0.00  0.00    +0.181 A 
ENDROOT
BRANCH  11  12
ATOM     12  C   UNL     1       5.785  -2.433  25.865  0.00  0.00    +0.025 A 
ATOM     13  C   UNL     1       5.972  -2.847  27.195  0.00  0.00    +0.015 A 
ATOM     14  C   UNL     1       4.882  -3.149  28.021  0.00  0.00    +0.050 A 
ATOM     15  C   UNL     1       3.592  -3.027  27.524  0.00  0.00    +0.158 A 
ATOM     16  C   UNL     1       3.385  -2.648  26.212  0.00  0.00    +0.159 A 
ATOM     17  C   UNL     1       4.465  -2.362  25.372  0.00  0.00    +0.060 A 
BRANCH  15  18
ATOM     18  O   UNL     1       2.531  -3.290  28.333  0.00  0.00    -0.503 OA
ATOM     19  H   UNL     1       2.078  -2.428  28.431  0.00  0.00    +0.292 HD
ENDBRANCH  15  18
BRANCH  16  20
ATOM     20  O   UNL     1       2.094  -2.547  25.764  0.00  0.00    -0.503 OA
ATOM     21  H   UNL     1       1.498  -2.568  26.533  0.00  0.00    +0.292 HD
ENDBRANCH  16  20
ENDBRANCH  11  12
BRANCH   7  22
ATOM     22  O   UNL     1       8.699   2.509  21.564  0.00  0.00    -0.507 OA
ATOM     23  H   UNL     1       8.215   2.458  20.722  0.00  0.00    +0.292 HD
ENDBRANCH   7  22
BRANCH  10  24
ATOM     24  O   UNL     1      10.917  -1.649  21.876  0.00  0.00    -0.506 OA
ATOM     25  H   UNL     1      10.754  -2.556  22.183  0.00  0.00    +0.292 HD
ENDBRANCH  10  24
BRANCH   1  26
ATOM     26  O   UNL     1       7.817  -4.367  25.075  0.00  0.00    -0.453 OA
BRANCH  26  29
ATOM     27  C   UNL     1       7.463  -5.772  21.739  0.00  0.00    +0.198 C 
ATOM     28  O   UNL     1       7.786  -4.823  22.759  0.00  0.00    -0.337 OA
ATOM     29  C   UNL     1       7.376  -5.277  24.059  0.00  0.00    +0.339 C 
ATOM     30  C   UNL     1       5.836  -5.408  24.132  0.00  0.00    +0.214 C 
ATOM     31  C   UNL     1       5.371  -6.331  22.986  0.00  0.00    +0.180 C 
ATOM     32  C   UNL     1       5.945  -5.888  21.631  0.00  0.00    +0.171 C 
BRANCH  30  33
ATOM     33  O   UNL     1       5.452  -5.948  25.411  0.00  0.00    -0.383 OA
ATOM     34  H   UNL     1       4.872  -5.298  25.848  0.00  0.00    +0.210 HD
ENDBRANCH  30  33
BRANCH  31  35
ATOM     35  O   UNL     1       3.940  -6.406  22.965  0.00  0.00    -0.386 OA
ATOM     36  H   UNL     1       3.595  -5.497  23.067  0.00  0.00    +0.210 HD
ENDBRANCH  31  35
BRANCH  32  37
ATOM     37  O   UNL     1       5.383  -4.623  21.259  0.00  0.00    -0.387 OA
ATOM     38  H   UNL     1       4.729  -4.786  20.554  0.00  0.00    +0.210 HD
ENDBRANCH  32  37
ENDBRANCH  26  29
ENDBRANCH   1  26
TORSDOF 10
ENDMDL
MODEL 4
REMARK VINA RESULT:      -6.9      1.889      2.556
REMARK  Name = 
REMARK  10 active torsions:
REMARK  status: ('A' for Active; 'I' for Inactive)
REMARK    1  A    between atoms: C_2  and  O_34
REMARK    2  A    between atoms: C_4  and  O_33
REMARK    3  A    between atoms: C_6  and  O_32
REMARK    4  A    between atoms: C_8  and  O_10
REMARK    5  A    between atoms: O_10  and  C_11
REMARK    6  A    between atoms: C_12  and  C_24
REMARK    7  A    between atoms: C_16  and  O_23
REMARK    8  A    between atoms: C_18  and  O_22
REMARK    9  A    between atoms: C_26  and  O_31
REMARK   10  A    between atoms: C_27  and  O_30
REMARK                            x       y       z     vdW  Elec       q    Type
REMARK                         _______ _______ _______ _____ _____    ______ ____
ROOT
ATOM      1  C   UNL     1       7.983  -2.119  25.375  0.00  0.00    +0.214 A 
ATOM      2  C   UNL     1       7.477  -3.512  25.559  0.00  0.00    +0.238 A 
ATOM      3  O   UNL     1       7.619  -4.101  26.623  0.00  0.00    -0.283 OA
ATOM      4  C   UNL     1       6.913  -4.184  24.393  0.00  0.00    +0.109 A 
ATOM      5  C   UNL     1       7.237  -3.661  23.141  0.00  0.00    +0.147 A 
ATOM      6  C   UNL     1       6.807  -4.317  21.981  0.00  0.00    +0.092 A 
ATOM      7  C   UNL     1       6.054  -5.484  22.096  0.00  0.00    +0.124 A 
ATOM      8  C   UNL     1       5.702  -5.993  23.339  0.00  0.00    +0.091 A 
ATOM      9  O   UNL     1       7.995  -2.526  22.986  0.00  0.00    -0.451 OA
ATOM     10  C   UNL     1       6.125  -5.337  24.492  0.00  0.00    +0.135 A 
ATOM     11  C   UNL     1       8.275  -1.745  24.107  0.00  0.00    +0.181 A 
ENDROOT
BRANCH  11  12
ATOM     12  C   UNL     1       8.959  -0.459  23.774  0.00  0.00    +0.025 A 
ATOM     13  C   UNL     1      10.090  -0.041  24.497  0.00  0.00    +0.015 A 
ATOM     14  C   UNL     1      10.734   1.167  24.200  0.00  0.00    +0.050 A 
ATOM     15  C   UNL     1      10.257   1.962  23.167  0.00  0.00    +0.158 A 
ATOM     16  C   UNL     1       9.132   1.584  22.461  0.00  0.00    +0.159 A 
ATOM     17  C   UNL     1       8.469   0.391  22.760  0.00  0.00    +0.060 A 
BRANCH  15  18
ATOM     18  O   UNL     1      10.900   3.120  22.858  0.00  0.00    -0.503 OA
ATOM     19  H   UNL     1      11.506   3.272  23.610  0.00  0.00    +0.292 HD
ENDBRANCH  15  18
BRANCH  16  20
ATOM     20  O   UNL     1       8.695   2.404  21.454  0.00  0.00    -0.503 OA
ATOM     21  H   UNL     1       7.766   2.187  21.262  0.00  0.00    +0.292 HD
ENDBRANCH  16  20
ENDBRANCH  11  12
BRANCH   7  22
ATOM     22  O   UNL     1       5.626  -6.170  21.000  0.00  0.00    -0.507 OA
ATOM     23  H   UNL     1       5.058  -5.596  20.459  0.00  0.00    +0.292 HD
ENDBRANCH   7  22
BRANCH  10  24
ATOM     24  O   UNL     1       5.737  -5.820  25.709  0.00  0.00    -0.506 OA
ATOM     25  H   UNL     1       5.248  -5.137  26.196  0.00  0.00    +0.292 HD
ENDBRANCH  10  24
BRANCH   1  26
ATOM     26  O   UNL     1       8.211  -1.288  26.466  0.00  0.00    -0.453 OA
BRANCH  26  29
ATOM     27  C   UNL     1       4.792  -0.054  26.622  0.00  0.00    +0.198 C 
ATOM     28  O   UNL     1       6.015  -0.526  26.050  0.00  0.00    -0.337 OA
ATOM     29  C   UNL     1       7.036  -0.701  27.044  0.00  0.00    +0.339 C 
ATOM     30  C   UNL     1       7.413   0.655  27.686  0.00  0.00    +0.214 C 
ATOM     31  C   UNL     1       6.128   1.307  28.236  0.00  0.00    +0.180 C 
ATOM     32  C   UNL     1       5.014   1.350  27.178  0.00  0.00    +0.171 C 
BRANCH  30  33
ATOM     33  O   UNL     1       8.373   0.447  28.739  0.00  0.00    -0.383 OA
ATOM     34  H   UNL     1       8.204  -0.428  29.130  0.00  0.00    +0.210 HD
ENDBRANCH  30  33
BRANCH  31  35
ATOM     35  O   UNL     1       6.421   2.608  28.760  0.00  0.00    -0.386 OA
ATOM     36  H   UNL     1       6.639   2.504  29.707  0.00  0.00    +0.210 HD
ENDBRANCH  31  35
BRANCH  32  37
ATOM     37  O   UNL     1       5.386   2.242  26.121  0.00  0.00    -0.387 OA
ATOM     38  H   UNL     1       5.309   1.753  25.280  0.00  0.00    +0.210 HD
ENDBRANCH  32  37
ENDBRANCH  26  29
ENDBRANCH   1  26
TORSDOF 10
ENDMDL
MODEL 5
REMARK VINA RESULT:      -6.7      2.136      6.598
REMARK  Name = 
REMARK  10 active torsions:
REMARK  status: ('A' for Active; 'I' for Inactive)
REMARK    1  A    between atoms: C_2  and  O_34
REMARK    2  A    between atoms: C_4  and  O_33
REMARK    3  A    between atoms: C_6  and  O_32
REMARK    4  A    between atoms: C_8  and  O_10
REMARK    5  A    between atoms: O_10  and  C_11
REMARK    6  A    between atoms: C_12  and  C_24
REMARK    7  A    between atoms: C_16  and  O_23
REMARK    8  A    between atoms: C_18  and  O_22
REMARK    9  A    between atoms: C_26  and  O_31
REMARK   10  A    between atoms: C_27  and  O_30
REMARK                            x       y       z     vdW  Elec       q    Type
REMARK                         _______ _______ _______ _____ _____    ______ ____
ROOT
ATOM      1  C   UNL     1       7.849  -2.657  25.127  0.00  0.00    +0.214 A 
ATOM      2  C   UNL     1       8.629  -1.429  25.464  0.00  0.00    +0.238 A 
ATOM      3  O   UNL     1       8.916  -1.160  26.623  0.00  0.00    -0.283 OA
ATOM      4  C   UNL     1       8.933  -0.505  24.375  0.00  0.00    +0.109 A 
ATOM      5  C   UNL     1       8.165  -0.614  23.217  0.00  0.00    +0.147 A 
ATOM      6  C   UNL     1       8.342   0.305  22.175  0.00  0.00    +0.092 A 
ATOM      7  C   UNL     1       9.293   1.316  22.311  0.00  0.00    +0.124 A 
ATOM      8  C   UNL     1      10.083   1.410  23.450  0.00  0.00    +0.091 A 
ATOM      9  O   UNL     1       7.204  -1.581  23.054  0.00  0.00    -0.451 OA
ATOM     10  C   UNL     1       9.909   0.493  24.482  0.00  0.00    +0.135 A 
ATOM     11  C   UNL     1       7.132  -2.623  23.979  0.00  0.00    +0.181 A 
ENDROOT
BRANCH  11  12
ATOM     12  C   UNL     1       6.160  -3.690  23.593  0.00  0.00    +0.025 A 
ATOM     13  C   UNL     1       6.574  -4.793  22.827  0.00  0.00    +0.015 A 
ATOM     14  C   UNL     1       5.670  -5.796  22.452  0.00  0.00    +0.050 A 
ATOM     15  C   UNL     1       4.344  -5.706  22.851  0.00  0.00    +0.158 A 
ATOM     16  C   UNL     1       3.910  -4.617  23.581  0.00  0.00    +0.159 A 
ATOM     17  C   UNL     1       4.797  -3.601  23.946  0.00  0.00    +0.060 A 
BRANCH  15  18
ATOM     18  O   UNL     1       3.472  -6.693  22.514  0.00  0.00    -0.503 OA
ATOM     19  H   UNL     1       2.593  -6.337  22.755  0.00  0.00    +0.292 HD
ENDBRANCH  15  18
BRANCH  16  20
ATOM     20  O   UNL     1       2.590  -4.569  23.947  0.00  0.00    -0.503 OA
ATOM     21  H   UNL     1       2.521  -4.084  24.788  0.00  0.00    +0.292 HD
ENDBRANCH  16  20
ENDBRANCH  11  12
BRANCH   7  22
ATOM     22  O   UNL     1       9.493   2.245  21.337  0.00  0.00    -0.507 OA
ATOM     23  H   UNL     1       9.268   3.127  21.678  0.00  0.00    +0.292 HD
ENDBRANCH   7  22
BRANCH  10  24
ATOM     24  O   UNL     1      10.720   0.568  25.578  0.00  0.00    -0.506 OA
ATOM     25  H   UNL     1      10.773   1.486  25.890  0.00  0.00    +0.292 HD
ENDBRANCH  10  24
BRANCH   1  26
ATOM     26  O   UNL     1       7.809  -3.742  25.995  0.00  0.00    -0.453 OA
BRANCH  26  29
ATOM     27  C   UNL     1       4.853  -3.453  28.096  0.00  0.00    +0.198 C 
ATOM     28  O   UNL     1       6.189  -3.234  27.637  0.00  0.00    -0.337 OA
ATOM     29  C   UNL     1       6.509  -4.066  26.511  0.00  0.00    +0.339 C 
ATOM     30  C   UNL     1       6.482  -5.561  26.909  0.00  0.00    +0.214 C 
ATOM     31  C   UNL     1       5.105  -5.873  27.530  0.00  0.00    +0.180 C 
ATOM     32  C   UNL     1       4.741  -4.875  28.640  0.00  0.00    +0.171 C 
BRANCH  30  33
ATOM     33  O   UNL     1       6.719  -6.380  25.748  0.00  0.00    -0.383 OA
ATOM     34  H   UNL     1       6.246  -7.222  25.875  0.00  0.00    +0.210 HD
ENDBRANCH  30  33
BRANCH  31  35
ATOM     35  O   UNL     1       5.071  -7.229  27.995  0.00  0.00    -0.386 OA
ATOM     36  H   UNL     1       5.472  -7.246  28.887  0.00  0.00    +0.210 HD
ENDBRANCH  31  35
BRANCH  32  37
ATOM     37  O   UNL     1       5.629  -5.044  29.752  0.00  0.00    -0.387 OA
ATOM     38  H   UNL     1       6.197  -4.252  29.800  0.00  0.00    +0.210 HD
ENDBRANCH  32  37
ENDBRANCH  26  29
ENDBRANCH   1  26
TORSDOF 10
ENDMDL
MODEL 6
REMARK VINA RESULT:      -6.6      3.559      8.164
REMARK  Name = 
REMARK  10 active torsions:
REMARK  status: ('A' for Active; 'I' for Inactive)
REMARK    1  A    between atoms: C_2  and  O_34
REMARK    2  A    between atoms: C_4  and  O_33
REMARK    3  A    between atoms: C_6  and  O_32
REMARK    4  A    between atoms: C_8  and  O_10
REMARK    5  A    between atoms: O_10  and  C_11
REMARK    6  A    between atoms: C_12  and  C_24
REMARK    7  A    between atoms: C_16  and  O_23
REMARK    8  A    between atoms: C_18  and  O_22
REMARK    9  A    between atoms: C_26  and  O_31
REMARK   10  A    between atoms: C_27  and  O_30
REMARK                            x       y       z     vdW  Elec       q    Type
REMARK                         _______ _______ _______ _____ _____    ______ ____
ROOT
ATOM      1  C   UNL     1       7.925   2.267  23.688  0.00  0.00    +0.214 A 
ATOM      2  C   UNL     1       8.138   3.724  23.441  0.00  0.00    +0.238 A 
ATOM      3  O   UNL     1       7.220   4.443  23.071  0.00  0.00    -0.283 OA
ATOM      4  C   UNL     1       9.503   4.232  23.545  0.00  0.00    +0.109 A 
ATOM      5  C   UNL     1      10.535   3.298  23.470  0.00  0.00    +0.147 A 
ATOM      6  C   UNL     1      11.867   3.732  23.465  0.00  0.00    +0.092 A 
ATOM      7  C   UNL     1      12.140   5.097  23.541  0.00  0.00    +0.124 A 
ATOM      8  C   UNL     1      11.117   6.030  23.647  0.00  0.00    +0.091 A 
ATOM      9  O   UNL     1      10.306   1.948  23.372  0.00  0.00    -0.451 OA
ATOM     10  C   UNL     1       9.794   5.597  23.657  0.00  0.00    +0.135 A 
ATOM     11  C   UNL     1       9.012   1.468  23.567  0.00  0.00    +0.181 A 
ENDROOT
BRANCH  11  12
ATOM     12  C   UNL     1       8.934  -0.024  23.600  0.00  0.00    +0.025 A 
ATOM     13  C   UNL     1       9.700  -0.762  24.519  0.00  0.00    +0.015 A 
ATOM     14  C   UNL     1       9.642  -2.161  24.553  0.00  0.00    +0.050 A 
ATOM     15  C   UNL     1       8.805  -2.833  23.672  0.00  0.00    +0.158 A 
ATOM     16  C   UNL     1       8.064  -2.130  22.744  0.00  0.00    +0.159 A 
ATOM     17  C   UNL     1       8.127  -0.735  22.686  0.00  0.00    +0.060 A 
BRANCH  15  18
ATOM     18  O   UNL     1       8.724  -4.190  23.725  0.00  0.00    -0.503 OA
ATOM     19  H   UNL     1       9.027  -4.488  22.843  0.00  0.00    +0.292 HD
ENDBRANCH  15  18
BRANCH  16  20
ATOM     20  O   UNL     1       7.257  -2.838  21.891  0.00  0.00    -0.503 OA
ATOM     21  H   UNL     1       6.454  -3.102  22.374  0.00  0.00    +0.292 HD
ENDBRANCH  16  20
ENDBRANCH  11  12
BRANCH   7  22
ATOM     22  O   UNL     1      13.415   5.573  23.523  0.00  0.00    -0.507 OA
ATOM     23  H   UNL     1      13.424   6.464  23.133  0.00  0.00    +0.292 HD
ENDBRANCH   7  22
BRANCH  10  24
ATOM     24  O   UNL     1       8.797   6.518  23.806  0.00  0.00    -0.506 OA
ATOM     25  H   UNL     1       7.949   6.138  23.523  0.00  0.00    +0.292 HD
ENDBRANCH  10  24
BRANCH   1  26
ATOM     26  O   UNL     1       6.658   1.761  23.952  0.00  0.00    -0.453 OA
BRANCH  26  29
ATOM     27  C   UNL     1       6.890   2.480  27.510  0.00  0.00    +0.198 C 
ATOM     28  O   UNL     1       7.296   2.364  26.145  0.00  0.00    -0.337 OA
ATOM     29  C   UNL     1       6.276   1.756  25.336  0.00  0.00    +0.339 C 
ATOM     30  C   UNL     1       6.019   0.298  25.783  0.00  0.00    +0.214 C 
ATOM     31  C   UNL     1       5.683   0.303  27.289  0.00  0.00    +0.180 C 
ATOM     32  C   UNL     1       6.730   1.081  28.102  0.00  0.00    +0.171 C 
BRANCH  30  33
ATOM     33  O   UNL     1       4.935  -0.264  25.019  0.00  0.00    -0.383 OA
ATOM     34  H   UNL     1       4.323  -0.697  25.641  0.00  0.00    +0.210 HD
ENDBRANCH  30  33
BRANCH  31  35
ATOM     35  O   UNL     1       5.526  -1.040  27.763  0.00  0.00    -0.386 OA
ATOM     36  H   UNL     1       6.415  -1.384  27.979  0.00  0.00    +0.210 HD
ENDBRANCH  31  35
BRANCH  32  37
ATOM     37  O   UNL     1       7.983   0.388  28.065  0.00  0.00    -0.387 OA
ATOM     38  H   UNL     1       8.055  -0.047  27.196  0.00  0.00    +0.210 HD
ENDBRANCH  32  37
ENDBRANCH  26  29
ENDBRANCH   1  26
TORSDOF 10
ENDMDL
MODEL 7
REMARK VINA RESULT:      -6.6      2.191      7.337
REMARK  Name = 
REMARK  10 active torsions:
REMARK  status: ('A' for Active; 'I' for Inactive)
REMARK    1  A    between atoms: C_2  and  O_34
REMARK    2  A    between atoms: C_4  and  O_33
REMARK    3  A    between atoms: C_6  and  O_32
REMARK    4  A    between atoms: C_8  and  O_10
REMARK    5  A    between atoms: O_10  and  C_11
REMARK    6  A    between atoms: C_12  and  C_24
REMARK    7  A    between atoms: C_16  and  O_23
REMARK    8  A    between atoms: C_18  and  O_22
REMARK    9  A    between atoms: C_26  and  O_31
REMARK   10  A    between atoms: C_27  and  O_30
REMARK                            x       y       z     vdW  Elec       q    Type
REMARK                         _______ _______ _______ _____ _____    ______ ____
ROOT
ATOM      1  C   UNL     1       8.255  -2.294  25.070  0.00  0.00    +0.214 A 
ATOM      2  C   UNL     1       8.940  -0.980  24.889  0.00  0.00    +0.238 A 
ATOM      3  O   UNL     1      10.088  -0.917  24.469  0.00  0.00    -0.283 OA
ATOM      4  C   UNL     1       8.232   0.216  25.337  0.00  0.00    +0.109 A 
ATOM      5  C   UNL     1       7.184   0.032  26.239  0.00  0.00    +0.147 A 
ATOM      6  C   UNL     1       6.530   1.145  26.781  0.00  0.00    +0.092 A 
ATOM      7  C   UNL     1       6.934   2.425  26.405  0.00  0.00    +0.124 A 
ATOM      8  C   UNL     1       7.957   2.614  25.485  0.00  0.00    +0.091 A 
ATOM      9  O   UNL     1       6.770  -1.211  26.650  0.00  0.00    -0.451 OA
ATOM     10  C   UNL     1       8.603   1.507  24.943  0.00  0.00    +0.135 A 
ATOM     11  C   UNL     1       7.263  -2.337  25.991  0.00  0.00    +0.181 A 
ENDROOT
BRANCH  11  12
ATOM     12  C   UNL     1       6.607  -3.609  26.423  0.00  0.00    +0.025 A 
ATOM     13  C   UNL     1       5.300  -3.918  26.010  0.00  0.00    +0.015 A 
ATOM     14  C   UNL     1       4.672  -5.102  26.416  0.00  0.00    +0.050 A 
ATOM     15  C   UNL     1       5.354  -5.994  27.232  0.00  0.00    +0.158 A 
ATOM     16  C   UNL     1       6.629  -5.698  27.672  0.00  0.00    +0.159 A 
ATOM     17  C   UNL     1       7.260  -4.511  27.290  0.00  0.00    +0.060 A 
BRANCH  15  18
ATOM     18  O   UNL     1       4.757  -7.158  27.602  0.00  0.00    -0.503 OA
ATOM     19  H   UNL     1       3.817  -6.921  27.733  0.00  0.00    +0.292 HD
ENDBRANCH  15  18
BRANCH  16  20
ATOM     20  O   UNL     1       7.260  -6.607  28.482  0.00  0.00    -0.503 OA
ATOM     21  H   UNL     1       8.176  -6.309  28.623  0.00  0.00    +0.292 HD
ENDBRANCH  16  20
ENDBRANCH  11  12
BRANCH   7  22
ATOM     22  O   UNL     1       6.344   3.540  26.916  0.00  0.00    -0.507 OA
ATOM     23  H   UNL     1       6.797   3.801  27.735  0.00  0.00    +0.292 HD
ENDBRANCH   7  22
BRANCH  10  24
ATOM     24  O   UNL     1       9.577   1.701  24.005  0.00  0.00    -0.506 OA
ATOM     25  H   UNL     1       9.176   1.816  23.128  0.00  0.00    +0.292 HD
ENDBRANCH  10  24
BRANCH   1  26
ATOM     26  O   UNL     1       8.677  -3.425  24.380  0.00  0.00    -0.453 OA
BRANCH  26  29
ATOM     27  C   UNL     1       6.245  -2.939  21.719  0.00  0.00    +0.198 C 
ATOM     28  O   UNL     1       6.883  -2.777  22.988  0.00  0.00    -0.337 OA
ATOM     29  C   UNL     1       7.980  -3.689  23.154  0.00  0.00    +0.339 C 
ATOM     30  C   UNL     1       7.479  -5.152  23.162  0.00  0.00    +0.214 C 
ATOM     31  C   UNL     1       6.669  -5.397  21.872  0.00  0.00    +0.180 C 
ATOM     32  C   UNL     1       5.594  -4.319  21.663  0.00  0.00    +0.171 C 
BRANCH  30  33
ATOM     33  O   UNL     1       8.601  -6.052  23.241  0.00  0.00    -0.383 OA
ATOM     34  H   UNL     1       9.403  -5.519  23.387  0.00  0.00    +0.210 HD
ENDBRANCH  30  33
BRANCH  31  35
ATOM     35  O   UNL     1       6.111  -6.716  21.884  0.00  0.00    -0.386 OA
ATOM     36  H   UNL     1       6.680  -7.284  21.328  0.00  0.00    +0.210 HD
ENDBRANCH  31  35
BRANCH  32  37
ATOM     37  O   UNL     1       4.594  -4.430  22.683  0.00  0.00    -0.387 OA
ATOM     38  H   UNL     1       4.148  -5.290  22.568  0.00  0.00    +0.210 HD
ENDBRANCH  32  37
ENDBRANCH  26  29
ENDBRANCH   1  26
TORSDOF 10
ENDMDL
MODEL 8
REMARK VINA RESULT:      -6.5      2.669      5.443
REMARK  Name = 
REMARK  10 active torsions:
REMARK  status: ('A' for Active; 'I' for Inactive)
REMARK    1  A    between atoms: C_2  and  O_34
REMARK    2  A    between atoms: C_4  and  O_33
REMARK    3  A    between atoms: C_6  and  O_32
REMARK    4  A    between atoms: C_8  and  O_10
REMARK    5  A    between atoms: O_10  and  C_11
REMARK    6  A    between atoms: C_12  and  C_24
REMARK    7  A    between atoms: C_16  and  O_23
REMARK    8  A    between atoms: C_18  and  O_22
REMARK    9  A    between atoms: C_26  and  O_31
REMARK   10  A    between atoms: C_27  and  O_30
REMARK                            x       y       z     vdW  Elec       q    Type
REMARK                         _______ _______ _______ _____ _____    ______ ____
ROOT
ATOM      1  C   UNL     1       7.143  -1.190  25.651  0.00  0.00    +0.214 A 
ATOM      2  C   UNL     1       6.915  -0.447  26.925  0.00  0.00    +0.238 A 
ATOM      3  O   UNL     1       7.808   0.211  27.442  0.00  0.00    -0.283 OA
ATOM      4  C   UNL     1       5.627  -0.627  27.589  0.00  0.00    +0.109 A 
ATOM      5  C   UNL     1       4.878  -1.746  27.227  0.00  0.00    +0.147 A 
ATOM      6  C   UNL     1       3.680  -2.028  27.897  0.00  0.00    +0.092 A 
ATOM      7  C   UNL     1       3.251  -1.178  28.915  0.00  0.00    +0.124 A 
ATOM      8  C   UNL     1       3.978  -0.045  29.260  0.00  0.00    +0.091 A 
ATOM      9  O   UNL     1       5.277  -2.618  26.244  0.00  0.00    -0.451 OA
ATOM     10  C   UNL     1       5.165   0.236  28.590  0.00  0.00    +0.135 A 
ATOM     11  C   UNL     1       6.354  -2.269  25.431  0.00  0.00    +0.181 A 
ENDROOT
BRANCH  11  12
ATOM     12  C   UNL     1       6.575  -3.223  24.301  0.00  0.00    +0.025 A 
ATOM     13  C   UNL     1       7.412  -4.340  24.460  0.00  0.00    +0.015 A 
ATOM     14  C   UNL     1       7.634  -5.236  23.406  0.00  0.00    +0.050 A 
ATOM     15  C   UNL     1       7.008  -5.025  22.186  0.00  0.00    +0.158 A 
ATOM     16  C   UNL     1       6.202  -3.919  21.999  0.00  0.00    +0.159 A 
ATOM     17  C   UNL     1       5.988  -3.008  23.036  0.00  0.00    +0.060 A 
BRANCH  15  18
ATOM     18  O   UNL     1       7.198  -5.910  21.171  0.00  0.00    -0.503 OA
ATOM     19  H   UNL     1       7.917  -5.519  20.636  0.00  0.00    +0.292 HD
ENDBRANCH  15  18
BRANCH  16  20
ATOM     20  O   UNL     1       5.611  -3.750  20.774  0.00  0.00    -0.503 OA
ATOM     21  H   UNL     1       6.076  -3.036  20.304  0.00  0.00    +0.292 HD
ENDBRANCH  16  20
ENDBRANCH  11  12
BRANCH   7  22
ATOM     22  O   UNL     1       2.105  -1.415  29.609  0.00  0.00    -0.507 OA
ATOM     23  H   UNL     1       1.409  -0.810  29.304  0.00  0.00    +0.292 HD
ENDBRANCH   7  22
BRANCH  10  24
ATOM     24  O   UNL     1       5.849   1.375  28.906  0.00  0.00    -0.506 OA
ATOM     25  H   UNL     1       6.792   1.174  29.027  0.00  0.00    +0.292 HD
ENDBRANCH  10  24
BRANCH   1  26
ATOM     26  O   UNL     1       8.166  -0.829  24.782  0.00  0.00    -0.453 OA
BRANCH  26  29
ATOM     27  C   UNL     1       6.926   1.561  22.336  0.00  0.00    +0.198 C 
ATOM     28  O   UNL     1       7.210   0.296  22.939  0.00  0.00    -0.337 OA
ATOM     29  C   UNL     1       7.998   0.439  24.131  0.00  0.00    +0.339 C 
ATOM     30  C   UNL     1       9.390   1.025  23.800  0.00  0.00    +0.214 C 
ATOM     31  C   UNL     1       9.192   2.350  23.035  0.00  0.00    +0.180 C 
ATOM     32  C   UNL     1       8.232   2.182  21.846  0.00  0.00    +0.171 C 
BRANCH  30  33
ATOM     33  O   UNL     1      10.131   1.242  25.016  0.00  0.00    -0.383 OA
ATOM     34  H   UNL     1       9.955   2.152  25.316  0.00  0.00    +0.210 HD
ENDBRANCH  30  33
BRANCH  31  35
ATOM     35  O   UNL     1      10.460   2.880  22.631  0.00  0.00    -0.386 OA
ATOM     36  H   UNL     1      10.827   2.282  21.950  0.00  0.00    +0.210 HD
ENDBRANCH  31  35
BRANCH  32  37
ATOM     37  O   UNL     1       8.834   1.339  20.856  0.00  0.00    -0.387 OA
ATOM     38  H   UNL     1       9.778   1.577  20.798  0.00  0.00    +0.210 HD
ENDBRANCH  32  37
ENDBRANCH  26  29
ENDBRANCH   1  26
TORSDOF 10
ENDMDL
MODEL 9
REMARK VINA RESULT:      -6.5      2.298      6.702
REMARK  Name = 
REMARK  10 active torsions:
REMARK  status: ('A' for Active; 'I' for Inactive)
REMARK    1  A    between atoms: C_2  and  O_34
REMARK    2  A    between atoms: C_4  and  O_33
REMARK    3  A    between atoms: C_6  and  O_32
REMARK    4  A    between atoms: C_8  and  O_10
REMARK    5  A    between atoms: O_10  and  C_11
REMARK    6  A    between atoms: C_12  and  C_24
REMARK    7  A    between atoms: C_16  and  O_23
REMARK    8  A    between atoms: C_18  and  O_22
REMARK    9  A    between atoms: C_26  and  O_31
REMARK   10  A    between atoms: C_27  and  O_30
REMARK                            x       y       z     vdW  Elec       q    Type
REMARK                         _______ _______ _______ _____ _____    ______ ____
ROOT
ATOM      1  C   UNL     1       6.609  -1.056  24.514  0.00  0.00    +0.214 A 
ATOM      2  C   UNL     1       6.844   0.358  24.934  0.00  0.00    +0.238 A 
ATOM      3  O   UNL     1       6.070   0.930  25.690  0.00  0.00    -0.283 OA
ATOM      4  C   UNL     1       7.964   1.065  24.321  0.00  0.00    +0.109 A 
ATOM      5  C   UNL     1       8.475   0.539  23.135  0.00  0.00    +0.147 A 
ATOM      6  C   UNL     1       9.483   1.224  22.447  0.00  0.00    +0.092 A 
ATOM      7  C   UNL     1       9.968   2.425  22.964  0.00  0.00    +0.124 A 
ATOM      8  C   UNL     1       9.485   2.938  24.161  0.00  0.00    +0.091 A 
ATOM      9  O   UNL     1       8.009  -0.629  22.582  0.00  0.00    -0.451 OA
ATOM     10  C   UNL     1       8.486   2.254  24.846  0.00  0.00    +0.135 A 
ATOM     11  C   UNL     1       7.149  -1.432  23.330  0.00  0.00    +0.181 A 
ENDROOT
BRANCH  11  12
ATOM     12  C   UNL     1       6.855  -2.746  22.682  0.00  0.00    +0.025 A 
ATOM     13  C   UNL     1       5.741  -2.896  21.838  0.00  0.00    +0.015 A 
ATOM     14  C   UNL     1       5.450  -4.125  21.232  0.00  0.00    +0.050 A 
ATOM     15  C   UNL     1       6.280  -5.213  21.458  0.00  0.00    +0.158 A 
ATOM     16  C   UNL     1       7.365  -5.096  22.305  0.00  0.00    +0.159 A 
ATOM     17  C   UNL     1       7.656  -3.881  22.930  0.00  0.00    +0.060 A 
BRANCH  15  18
ATOM     18  O   UNL     1       6.017  -6.399  20.847  0.00  0.00    -0.503 OA
ATOM     19  H   UNL     1       6.139  -7.069  21.549  0.00  0.00    +0.292 HD
ENDBRANCH  15  18
BRANCH  16  20
ATOM     20  O   UNL     1       8.153  -6.201  22.502  0.00  0.00    -0.503 OA
ATOM     21  H   UNL     1       8.741  -6.300  21.733  0.00  0.00    +0.292 HD
ENDBRANCH  16  20
ENDBRANCH  11  12
BRANCH   7  22
ATOM     22  O   UNL     1      10.935   3.139  22.326  0.00  0.00    -0.507 OA
ATOM     23  H   UNL     1      10.623   4.048  22.178  0.00  0.00    +0.292 HD
ENDBRANCH   7  22
BRANCH  10  24
ATOM     24  O   UNL     1       8.050   2.743  26.044  0.00  0.00    -0.506 OA
ATOM     25  H   UNL     1       8.775   3.201  26.500  0.00  0.00    +0.292 HD
ENDBRANCH  10  24
BRANCH   1  26
ATOM     26  O   UNL     1       5.811  -1.907  25.270  0.00  0.00    -0.453 OA
BRANCH  26  29
ATOM     27  C   UNL     1       8.656  -3.533  26.850  0.00  0.00    +0.198 C 
ATOM     28  O   UNL     1       7.910  -2.810  25.868  0.00  0.00    -0.337 OA
ATOM     29  C   UNL     1       6.515  -2.737  26.205  0.00  0.00    +0.339 C 
ATOM     30  C   UNL     1       5.878  -4.147  26.207  0.00  0.00    +0.214 C 
ATOM     31  C   UNL     1       6.693  -5.046  27.159  0.00  0.00    +0.180 C 
ATOM     32  C   UNL     1       8.197  -4.989  26.850  0.00  0.00    +0.171 C 
BRANCH  30  33
ATOM     33  O   UNL     1       4.505  -4.061  26.632  0.00  0.00    -0.383 OA
ATOM     34  H   UNL     1       4.102  -4.941  26.519  0.00  0.00    +0.210 HD
ENDBRANCH  30  33
BRANCH  31  35
ATOM     35  O   UNL     1       6.188  -6.387  27.121  0.00  0.00    -0.386 OA
ATOM     36  H   UNL     1       6.955  -6.991  27.063  0.00  0.00    +0.210 HD
ENDBRANCH  31  35
BRANCH  32  37
ATOM     37  O   UNL     1       8.450  -5.582  25.570  0.00  0.00    -0.387 OA
ATOM     38  H   UNL     1       8.397  -6.550  25.678  0.00  0.00    +0.210 HD
ENDBRANCH  32  37
ENDBRANCH  26  29
ENDBRANCH   1  26
TORSDOF 10
ENDMDL
