MODEL 1
REMARK VINA RESULT:      -7.4      0.000      0.000
REMARK  Name = 
REMARK  17 active torsions:
REMARK  status: ('A' for Active; 'I' for Inactive)
REMARK    1  A    between atoms: C_1  and  C_2
REMARK    2  A    between atoms: C_3  and  O_48
REMARK    3  A    between atoms: C_5  and  O_47
REMARK    4  A    between atoms: C_7  and  O_46
REMARK    5  A    between atoms: C_8  and  O_11
REMARK    6  A    between atoms: O_11  and  C_12
REMARK    7  A    between atoms: C_14  and  O_45
REMARK    8  A    between atoms: C_19  and  C_37
REMARK    9  A    between atoms: C_20  and  O_23
REMARK   10  A    between atoms: O_23  and  C_24
REMARK   11  A    between atoms: C_26  and  O_36
REMARK   12  A    between atoms: C_27  and  O_35
REMARK   13  A    between atoms: C_28  and  O_34
REMARK   14  A    between atoms: C_30  and  C_32
REMARK   15  A    between atoms: C_32  and  O_33
REMARK   16  A    between atoms: C_39  and  O_44
REMARK   17  A    between atoms: C_40  and  O_43
REMARK                            x       y       z     vdW  Elec       q    Type
REMARK                         _______ _______ _______ _____ _____    ______ ____
ROOT
ATOM      1  C   UNL     1       6.784  -4.241  24.581  0.00  0.00    +0.131 A 
ATOM      2  C   UNL     1       6.057  -3.044  24.657  0.00  0.00    +0.093 A 
ATOM      3  C   UNL     1       6.705  -1.811  24.469  0.00  0.00    +0.147 A 
ATOM      4  O   UNL     1       5.973  -0.650  24.584  0.00  0.00    -0.451 OA
ATOM      5  C   UNL     1       6.566   0.578  24.226  0.00  0.00    +0.181 A 
ATOM      6  C   UNL     1       7.893   0.733  24.000  0.00  0.00    +0.214 A 
ATOM      7  C   UNL     1       8.724  -0.484  24.291  0.00  0.00    +0.238 A 
ATOM      8  O   UNL     1       9.879  -0.432  24.698  0.00  0.00    -0.283 OA
ATOM      9  C   UNL     1       8.067  -1.787  24.222  0.00  0.00    +0.109 A 
ATOM     10  C   UNL     1       8.779  -2.982  24.067  0.00  0.00    +0.135 A 
ATOM     11  C   UNL     1       8.139  -4.201  24.253  0.00  0.00    +0.092 A 
ENDROOT
BRANCH   5  12
ATOM     12  C   UNL     1       5.565   1.687  24.176  0.00  0.00    +0.025 A 
ATOM     13  C   UNL     1       4.794   2.016  25.309  0.00  0.00    +0.015 A 
ATOM     14  C   UNL     1       3.910   3.103  25.297  0.00  0.00    +0.050 A 
ATOM     15  C   UNL     1       3.783   3.864  24.148  0.00  0.00    +0.158 A 
ATOM     16  C   UNL     1       4.533   3.562  23.020  0.00  0.00    +0.159 A 
ATOM     17  C   UNL     1       5.428   2.493  23.035  0.00  0.00    +0.060 A 
BRANCH  15  18
ATOM     18  O   UNL     1       2.934   4.931  24.137  0.00  0.00    -0.503 OA
ATOM     19  H   UNL     1       2.234   4.699  24.781  0.00  0.00    +0.292 HD
ENDBRANCH  15  18
BRANCH  16  20
ATOM     20  O   UNL     1       4.365   4.354  21.917  0.00  0.00    -0.503 OA
ATOM     21  H   UNL     1       4.832   3.950  21.165  0.00  0.00    +0.292 HD
ENDBRANCH  16  20
ENDBRANCH   5  12
BRANCH  10  22
ATOM     22  O   UNL     1      10.099  -2.968  23.715  0.00  0.00    -0.506 OA
ATOM     23  H   UNL     1      10.197  -3.194  22.776  0.00  0.00    +0.292 HD
ENDBRANCH  10  22
BRANCH   6  24
ATOM     24  O   UNL     1       8.453   1.944  23.558  0.00  0.00    -0.453 OA
BRANCH  24  25
ATOM     25  C   UNL     1       9.300   2.677  24.464  0.00  0.00    +0.340 C 
ATOM     26  O   UNL     1       8.561   3.198  25.573  0.00  0.00    -0.331 OA
ATOM     27  C   UNL     1       7.773   4.359  25.302  0.00  0.00    +0.179 C 
ATOM     28  C   UNL     1       8.651   5.503  24.787  0.00  0.00    +0.177 C 
ATOM     29  C   UNL     1       9.344   5.055  23.499  0.00  0.00    +0.180 C 
ATOM     30  C   UNL     1      10.132   3.768  23.743  0.00  0.00    +0.214 C 
BRANCH  28  31
ATOM     31  O   UNL     1       7.865   6.679  24.554  0.00  0.00    -0.386 OA
ATOM     32  H   UNL     1       8.446   7.341  24.129  0.00  0.00    +0.210 HD
ENDBRANCH  28  31
BRANCH  29  33
ATOM     33  O   UNL     1      10.185   6.119  23.035  0.00  0.00    -0.386 OA
ATOM     34  H   UNL     1       9.651   6.715  22.484  0.00  0.00    +0.210 HD
ENDBRANCH  29  33
BRANCH  30  35
ATOM     35  O   UNL     1      10.725   3.292  22.532  0.00  0.00    -0.383 OA
ATOM     36  H   UNL     1      11.110   4.059  22.068  0.00  0.00    +0.210 HD
ENDBRANCH  30  35
BRANCH  27  37
ATOM     37  C   UNL     1       7.024   4.755  26.586  0.00  0.00    +0.190 C 
BRANCH  37  38
ATOM     38  O   UNL     1       7.794   5.593  27.440  0.00  0.00    -0.392 OA
ATOM     39  H   UNL     1       8.577   5.070  27.722  0.00  0.00    +0.210 HD
ENDBRANCH  37  38
ENDBRANCH  27  37
ENDBRANCH  24  25
ENDBRANCH   6  24
BRANCH   1  40
ATOM     40  O   UNL     1       6.329  -5.508  24.815  0.00  0.00    -0.461 OA
BRANCH  40  44
ATOM     41  C   UNL     1       2.766  -6.501  27.014  0.00  0.00    +0.041 C 
ATOM     42  C   UNL     1       3.311  -7.327  25.850  0.00  0.00    +0.150 C 
ATOM     43  O   UNL     1       4.694  -7.012  25.621  0.00  0.00    -0.334 OA
ATOM     44  C   UNL     1       4.934  -5.719  25.057  0.00  0.00    +0.339 C 
ATOM     45  C   UNL     1       4.235  -5.635  23.680  0.00  0.00    +0.214 C 
ATOM     46  C   UNL     1       2.726  -5.829  23.891  0.00  0.00    +0.180 C 
ATOM     47  C   UNL     1       2.455  -7.181  24.576  0.00  0.00    +0.174 C 
BRANCH  47  48
ATOM     48  O   UNL     1       2.737  -8.263  23.676  0.00  0.00    -0.387 OA
ATOM     49  H   UNL     1       2.007  -8.284  23.018  0.00  0.00    +0.210 HD
ENDBRANCH  47  48
BRANCH  46  50
ATOM     50  O   UNL     1       2.011  -5.697  22.659  0.00  0.00    -0.386 OA
ATOM     51  H   UNL     1       1.881  -6.591  22.289  0.00  0.00    +0.210 HD
ENDBRANCH  46  50
BRANCH  45  52
ATOM     52  O   UNL     1       4.744  -6.685  22.819  0.00  0.00    -0.383 OA
ATOM     53  H   UNL     1       5.320  -7.241  23.380  0.00  0.00    +0.210 HD
ENDBRANCH  45  52
ENDBRANCH  40  44
ENDBRANCH   1  40
TORSDOF 16
ENDMDL
MODEL 2
REMARK VINA RESULT:      -7.3      2.002      3.161
REMARK  Name = 
REMARK  17 active torsions:
REMARK  status: ('A' for Active; 'I' for Inactive)
REMARK    1  A    between atoms: C_1  and  C_2
REMARK    2  A    between atoms: C_3  and  O_48
REMARK    3  A    between atoms: C_5  and  O_47
REMARK    4  A    between atoms: C_7  and  O_46
REMARK    5  A    between atoms: C_8  and  O_11
REMARK    6  A    between atoms: O_11  and  C_12
REMARK    7  A    between atoms: C_14  and  O_45
REMARK    8  A    between atoms: C_19  and  C_37
REMARK    9  A    between atoms: C_20  and  O_23
REMARK   10  A    between atoms: O_23  and  C_24
REMARK   11  A    between atoms: C_26  and  O_36
REMARK   12  A    between atoms: C_27  and  O_35
REMARK   13  A    between atoms: C_28  and  O_34
REMARK   14  A    between atoms: C_30  and  C_32
REMARK   15  A    between atoms: C_32  and  O_33
REMARK   16  A    between atoms: C_39  and  O_44
REMARK   17  A    between atoms: C_40  and  O_43
REMARK                            x       y       z     vdW  Elec       q    Type
REMARK                         _______ _______ _______ _____ _____    ______ ____
ROOT
ATOM      1  C   UNL     1       7.073  -3.649  23.604  0.00  0.00    +0.131 A 
ATOM      2  C   UNL     1       6.874  -2.741  24.655  0.00  0.00    +0.093 A 
ATOM      3  C   UNL     1       7.596  -1.535  24.692  0.00  0.00    +0.147 A 
ATOM      4  O   UNL     1       7.405  -0.678  25.754  0.00  0.00    -0.451 OA
ATOM      5  C   UNL     1       7.985   0.606  25.715  0.00  0.00    +0.181 A 
ATOM      6  C   UNL     1       8.921   0.981  24.812  0.00  0.00    +0.214 A 
ATOM      7  C   UNL     1       9.407  -0.125  23.918  0.00  0.00    +0.238 A 
ATOM      8  O   UNL     1      10.548  -0.183  23.475  0.00  0.00    -0.283 OA
ATOM      9  C   UNL     1       8.512  -1.257  23.692  0.00  0.00    +0.109 A 
ATOM     10  C   UNL     1       8.655  -2.123  22.602  0.00  0.00    +0.135 A 
ATOM     11  C   UNL     1       7.942  -3.316  22.565  0.00  0.00    +0.092 A 
ENDROOT
BRANCH   5  12
ATOM     12  C   UNL     1       7.478   1.478  26.819  0.00  0.00    +0.025 A 
ATOM     13  C   UNL     1       7.184   2.838  26.589  0.00  0.00    +0.015 A 
ATOM     14  C   UNL     1       6.635   3.643  27.595  0.00  0.00    +0.050 A 
ATOM     15  C   UNL     1       6.384   3.098  28.843  0.00  0.00    +0.158 A 
ATOM     16  C   UNL     1       6.662   1.762  29.094  0.00  0.00    +0.159 A 
ATOM     17  C   UNL     1       7.190   0.952  28.089  0.00  0.00    +0.060 A 
BRANCH  15  18
ATOM     18  O   UNL     1       5.837   3.876  29.820  0.00  0.00    -0.503 OA
ATOM     19  H   UNL     1       6.464   4.621  29.925  0.00  0.00    +0.292 HD
ENDBRANCH  15  18
BRANCH  16  20
ATOM     20  O   UNL     1       6.388   1.282  30.345  0.00  0.00    -0.503 OA
ATOM     21  H   UNL     1       6.639   0.343  30.384  0.00  0.00    +0.292 HD
ENDBRANCH  16  20
ENDBRANCH   5  12
BRANCH  10  22
ATOM     22  O   UNL     1       9.476  -1.804  21.559  0.00  0.00    -0.506 OA
ATOM     23  H   UNL     1       8.962  -1.396  20.842  0.00  0.00    +0.292 HD
ENDBRANCH  10  22
BRANCH   6  24
ATOM     24  O   UNL     1       9.422   2.292  24.733  0.00  0.00    -0.453 OA
BRANCH  24  25
ATOM     25  C   UNL     1       9.505   2.916  23.438  0.00  0.00    +0.340 C 
ATOM     26  O   UNL     1      10.737   3.624  23.270  0.00  0.00    -0.331 OA
ATOM     27  C   UNL     1      10.820   4.888  23.932  0.00  0.00    +0.179 C 
ATOM     28  C   UNL     1       9.709   5.827  23.452  0.00  0.00    +0.177 C 
ATOM     29  C   UNL     1       8.353   5.188  23.761  0.00  0.00    +0.180 C 
ATOM     30  C   UNL     1       8.268   3.799  23.128  0.00  0.00    +0.214 C 
BRANCH  28  31
ATOM     31  O   UNL     1       9.818   7.107  24.088  0.00  0.00    -0.386 OA
ATOM     32  H   UNL     1       9.764   7.788  23.388  0.00  0.00    +0.210 HD
ENDBRANCH  28  31
BRANCH  29  33
ATOM     33  O   UNL     1       7.316   6.057  23.287  0.00  0.00    -0.386 OA
ATOM     34  H   UNL     1       6.631   6.120  23.973  0.00  0.00    +0.210 HD
ENDBRANCH  29  33
BRANCH  30  35
ATOM     35  O   UNL     1       7.037   3.154  23.468  0.00  0.00    -0.383 OA
ATOM     36  H   UNL     1       7.062   2.951  24.421  0.00  0.00    +0.210 HD
ENDBRANCH  30  35
BRANCH  27  37
ATOM     37  C   UNL     1      12.214   5.486  23.676  0.00  0.00    +0.190 C 
BRANCH  37  38
ATOM     38  O   UNL     1      12.676   6.294  24.753  0.00  0.00    -0.392 OA
ATOM     39  H   UNL     1      12.331   7.201  24.597  0.00  0.00    +0.210 HD
ENDBRANCH  37  38
ENDBRANCH  27  37
ENDBRANCH  24  25
ENDBRANCH   6  24
BRANCH   1  40
ATOM     40  O   UNL     1       6.519  -4.889  23.459  0.00  0.00    -0.461 OA
BRANCH  40  44
ATOM     41  C   UNL     1       3.895  -6.016  26.677  0.00  0.00    +0.041 C 
ATOM     42  C   UNL     1       4.131  -6.866  25.430  0.00  0.00    +0.150 C 
ATOM     43  O   UNL     1       5.346  -6.462  24.777  0.00  0.00    -0.334 OA
ATOM     44  C   UNL     1       5.287  -5.189  24.124  0.00  0.00    +0.339 C 
ATOM     45  C   UNL     1       4.199  -5.238  23.027  0.00  0.00    +0.214 C 
ATOM     46  C   UNL     1       2.849  -5.532  23.698  0.00  0.00    +0.180 C 
ATOM     47  C   UNL     1       2.920  -6.858  24.477  0.00  0.00    +0.174 C 
BRANCH  47  48
ATOM     48  O   UNL     1       3.011  -7.967  23.569  0.00  0.00    -0.387 OA
ATOM     49  H   UNL     1       3.957  -8.046  23.311  0.00  0.00    +0.210 HD
ENDBRANCH  47  48
BRANCH  46  50
ATOM     50  O   UNL     1       1.785  -5.526  22.741  0.00  0.00    -0.386 OA
ATOM     51  H   UNL     1       1.418  -6.429  22.693  0.00  0.00    +0.210 HD
ENDBRANCH  46  50
BRANCH  45  52
ATOM     52  O   UNL     1       4.514  -6.296  22.086  0.00  0.00    -0.383 OA
ATOM     53  H   UNL     1       4.676  -7.097  22.622  0.00  0.00    +0.210 HD
ENDBRANCH  45  52
ENDBRANCH  40  44
ENDBRANCH   1  40
TORSDOF 16
ENDMDL
MODEL 3
REMARK VINA RESULT:      -7.2      1.916      4.084
REMARK  Name = 
REMARK  17 active torsions:
REMARK  status: ('A' for Active; 'I' for Inactive)
REMARK    1  A    between atoms: C_1  and  C_2
REMARK    2  A    between atoms: C_3  and  O_48
REMARK    3  A    between atoms: C_5  and  O_47
REMARK    4  A    between atoms: C_7  and  O_46
REMARK    5  A    between atoms: C_8  and  O_11
REMARK    6  A    between atoms: O_11  and  C_12
REMARK    7  A    between atoms: C_14  and  O_45
REMARK    8  A    between atoms: C_19  and  C_37
REMARK    9  A    between atoms: C_20  and  O_23
REMARK   10  A    between atoms: O_23  and  C_24
REMARK   11  A    between atoms: C_26  and  O_36
REMARK   12  A    between atoms: C_27  and  O_35
REMARK   13  A    between atoms: C_28  and  O_34
REMARK   14  A    between atoms: C_30  and  C_32
REMARK   15  A    between atoms: C_32  and  O_33
REMARK   16  A    between atoms: C_39  and  O_44
REMARK   17  A    between atoms: C_40  and  O_43
REMARK                            x       y       z     vdW  Elec       q    Type
REMARK                         _______ _______ _______ _____ _____    ______ ____
ROOT
ATOM      1  C   UNL     1       5.106  -5.206  25.165  0.00  0.00    +0.131 A 
ATOM      2  C   UNL     1       5.813  -4.246  24.426  0.00  0.00    +0.093 A 
ATOM      3  C   UNL     1       6.014  -2.958  24.952  0.00  0.00    +0.147 A 
ATOM      4  O   UNL     1       6.682  -2.025  24.189  0.00  0.00    -0.451 OA
ATOM      5  C   UNL     1       7.044  -0.792  24.769  0.00  0.00    +0.181 A 
ATOM      6  C   UNL     1       6.572  -0.356  25.961  0.00  0.00    +0.214 A 
ATOM      7  C   UNL     1       5.516  -1.230  26.574  0.00  0.00    +0.238 A 
ATOM      8  O   UNL     1       4.603  -0.800  27.270  0.00  0.00    -0.283 OA
ATOM      9  C   UNL     1       5.499  -2.641  26.197  0.00  0.00    +0.109 A 
ATOM     10  C   UNL     1       4.863  -3.619  26.970  0.00  0.00    +0.135 A 
ATOM     11  C   UNL     1       4.663  -4.893  26.450  0.00  0.00    +0.092 A 
ENDROOT
BRANCH   5  12
ATOM     12  C   UNL     1       7.965  -0.012  23.887  0.00  0.00    +0.025 A 
ATOM     13  C   UNL     1       7.646   0.224  22.535  0.00  0.00    +0.015 A 
ATOM     14  C   UNL     1       8.464   1.020  21.723  0.00  0.00    +0.050 A 
ATOM     15  C   UNL     1       9.614   1.578  22.253  0.00  0.00    +0.158 A 
ATOM     16  C   UNL     1       9.949   1.363  23.582  0.00  0.00    +0.159 A 
ATOM     17  C   UNL     1       9.127   0.588  24.399  0.00  0.00    +0.060 A 
BRANCH  15  18
ATOM     18  O   UNL     1      10.405   2.364  21.468  0.00  0.00    -0.503 OA
ATOM     19  H   UNL     1      10.356   3.253  21.876  0.00  0.00    +0.292 HD
ENDBRANCH  15  18
BRANCH  16  20
ATOM     20  O   UNL     1      11.096   1.945  24.048  0.00  0.00    -0.503 OA
ATOM     21  H   UNL     1      11.687   1.250  24.387  0.00  0.00    +0.292 HD
ENDBRANCH  16  20
ENDBRANCH   5  12
BRANCH  10  22
ATOM     22  O   UNL     1       4.449  -3.345  28.241  0.00  0.00    -0.506 OA
ATOM     23  H   UNL     1       4.363  -4.168  28.750  0.00  0.00    +0.292 HD
ENDBRANCH  10  22
BRANCH   6  24
ATOM     24  O   UNL     1       7.013   0.835  26.564  0.00  0.00    -0.453 OA
BRANCH  24  25
ATOM     25  C   UNL     1       6.074   1.918  26.706  0.00  0.00    +0.340 C 
ATOM     26  O   UNL     1       5.438   2.233  25.463  0.00  0.00    -0.331 OA
ATOM     27  C   UNL     1       6.228   2.981  24.536  0.00  0.00    +0.179 C 
ATOM     28  C   UNL     1       6.668   4.314  25.150  0.00  0.00    +0.177 C 
ATOM     29  C   UNL     1       7.500   4.031  26.403  0.00  0.00    +0.180 C 
ATOM     30  C   UNL     1       6.705   3.164  27.379  0.00  0.00    +0.214 C 
BRANCH  28  31
ATOM     31  O   UNL     1       7.426   5.080  24.205  0.00  0.00    -0.386 OA
ATOM     32  H   UNL     1       6.836   5.775  23.850  0.00  0.00    +0.210 HD
ENDBRANCH  28  31
BRANCH  29  33
ATOM     33  O   UNL     1       7.888   5.280  26.989  0.00  0.00    -0.386 OA
ATOM     34  H   UNL     1       7.687   5.249  27.939  0.00  0.00    +0.210 HD
ENDBRANCH  29  33
BRANCH  30  35
ATOM     35  O   UNL     1       7.494   2.825  28.524  0.00  0.00    -0.383 OA
ATOM     36  H   UNL     1       8.143   3.539  28.659  0.00  0.00    +0.210 HD
ENDBRANCH  30  35
BRANCH  27  37
ATOM     37  C   UNL     1       5.407   3.194  23.252  0.00  0.00    +0.190 C 
BRANCH  37  38
ATOM     38  O   UNL     1       6.202   3.628  22.154  0.00  0.00    -0.392 OA
ATOM     39  H   UNL     1       7.017   3.079  22.158  0.00  0.00    +0.210 HD
ENDBRANCH  37  38
ENDBRANCH  27  37
ENDBRANCH  24  25
ENDBRANCH   6  24
BRANCH   1  40
ATOM     40  O   UNL     1       4.755  -6.467  24.773  0.00  0.00    -0.461 OA
BRANCH  40  44
ATOM     41  C   UNL     1       1.042  -8.511  25.515  0.00  0.00    +0.041 C 
ATOM     42  C   UNL     1       1.826  -8.611  24.208  0.00  0.00    +0.150 C 
ATOM     43  O   UNL     1       3.188  -8.199  24.413  0.00  0.00    -0.334 OA
ATOM     44  C   UNL     1       3.369  -6.796  24.630  0.00  0.00    +0.339 C 
ATOM     45  C   UNL     1       2.865  -6.027  23.386  0.00  0.00    +0.214 C 
ATOM     46  C   UNL     1       1.370  -6.329  23.205  0.00  0.00    +0.180 C 
ATOM     47  C   UNL     1       1.146  -7.844  23.056  0.00  0.00    +0.174 C 
BRANCH  47  48
ATOM     48  O   UNL     1       1.663  -8.304  21.798  0.00  0.00    -0.387 OA
ATOM     49  H   UNL     1       2.475  -8.823  21.996  0.00  0.00    +0.210 HD
ENDBRANCH  47  48
BRANCH  46  50
ATOM     50  O   UNL     1       0.824  -5.593  22.105  0.00  0.00    -0.386 OA
ATOM     51  H   UNL     1       0.242  -6.192  21.602  0.00  0.00    +0.210 HD
ENDBRANCH  46  50
BRANCH  45  52
ATOM     52  O   UNL     1       3.595  -6.476  22.216  0.00  0.00    -0.383 OA
ATOM     53  H   UNL     1       3.065  -7.199  21.826  0.00  0.00    +0.210 HD
ENDBRANCH  45  52
ENDBRANCH  40  44
ENDBRANCH   1  40
TORSDOF 16
ENDMDL
MODEL 4
REMARK VINA RESULT:      -7.2      2.360      9.787
REMARK  Name = 
REMARK  17 active torsions:
REMARK  status: ('A' for Active; 'I' for Inactive)
REMARK    1  A    between atoms: C_1  and  C_2
REMARK    2  A    between atoms: C_3  and  O_48
REMARK    3  A    between atoms: C_5  and  O_47
REMARK    4  A    between atoms: C_7  and  O_46
REMARK    5  A    between atoms: C_8  and  O_11
REMARK    6  A    between atoms: O_11  and  C_12
REMARK    7  A    between atoms: C_14  and  O_45
REMARK    8  A    between atoms: C_19  and  C_37
REMARK    9  A    between atoms: C_20  and  O_23
REMARK   10  A    between atoms: O_23  and  C_24
REMARK   11  A    between atoms: C_26  and  O_36
REMARK   12  A    between atoms: C_27  and  O_35
REMARK   13  A    between atoms: C_28  and  O_34
REMARK   14  A    between atoms: C_30  and  C_32
REMARK   15  A    between atoms: C_32  and  O_33
REMARK   16  A    between atoms: C_39  and  O_44
REMARK   17  A    between atoms: C_40  and  O_43
REMARK                            x       y       z     vdW  Elec       q    Type
REMARK                         _______ _______ _______ _____ _____    ______ ____
ROOT
ATOM      1  C   UNL     1       9.955   0.147  24.352  0.00  0.00    +0.131 A 
ATOM      2  C   UNL     1       9.184  -0.475  25.344  0.00  0.00    +0.093 A 
ATOM      3  C   UNL     1       8.372  -1.576  25.020  0.00  0.00    +0.147 A 
ATOM      4  O   UNL     1       7.599  -2.145  26.008  0.00  0.00    -0.451 OA
ATOM      5  C   UNL     1       6.919  -3.351  25.742  0.00  0.00    +0.181 A 
ATOM      6  C   UNL     1       6.777  -3.876  24.502  0.00  0.00    +0.214 A 
ATOM      7  C   UNL     1       7.287  -3.002  23.391  0.00  0.00    +0.238 A 
ATOM      8  O   UNL     1       6.792  -2.977  22.270  0.00  0.00    -0.283 OA
ATOM      9  C   UNL     1       8.331  -2.033  23.714  0.00  0.00    +0.109 A 
ATOM     10  C   UNL     1       9.159  -1.465  22.739  0.00  0.00    +0.135 A 
ATOM     11  C   UNL     1       9.961  -0.376  23.058  0.00  0.00    +0.092 A 
ENDROOT
BRANCH   5  12
ATOM     12  C   UNL     1       6.338  -3.948  26.983  0.00  0.00    +0.025 A 
ATOM     13  C   UNL     1       5.293  -3.302  27.675  0.00  0.00    +0.015 A 
ATOM     14  C   UNL     1       4.689  -3.891  28.794  0.00  0.00    +0.050 A 
ATOM     15  C   UNL     1       5.130  -5.126  29.236  0.00  0.00    +0.158 A 
ATOM     16  C   UNL     1       6.156  -5.783  28.570  0.00  0.00    +0.159 A 
ATOM     17  C   UNL     1       6.746  -5.210  27.445  0.00  0.00    +0.060 A 
BRANCH  15  18
ATOM     18  O   UNL     1       4.535  -5.707  30.316  0.00  0.00    -0.503 OA
ATOM     19  H   UNL     1       5.004  -6.559  30.430  0.00  0.00    +0.292 HD
ENDBRANCH  15  18
BRANCH  16  20
ATOM     20  O   UNL     1       6.544  -7.002  29.054  0.00  0.00    -0.503 OA
ATOM     21  H   UNL     1       7.510  -7.084  28.962  0.00  0.00    +0.292 HD
ENDBRANCH  16  20
ENDBRANCH   5  12
BRANCH  10  22
ATOM     22  O   UNL     1       9.205  -1.980  21.476  0.00  0.00    -0.506 OA
ATOM     23  H   UNL     1       9.942  -1.586  20.981  0.00  0.00    +0.292 HD
ENDBRANCH  10  22
BRANCH   6  24
ATOM     24  O   UNL     1       6.174  -5.123  24.266  0.00  0.00    -0.453 OA
BRANCH  24  25
ATOM     25  C   UNL     1       4.988  -5.167  23.451  0.00  0.00    +0.340 C 
ATOM     26  O   UNL     1       3.977  -4.281  23.941  0.00  0.00    -0.331 OA
ATOM     27  C   UNL     1       3.256  -4.737  25.088  0.00  0.00    +0.179 C 
ATOM     28  C   UNL     1       2.564  -6.072  24.798  0.00  0.00    +0.177 C 
ATOM     29  C   UNL     1       3.624  -7.111  24.427  0.00  0.00    +0.180 C 
ATOM     30  C   UNL     1       4.461  -6.611  23.249  0.00  0.00    +0.214 C 
BRANCH  28  31
ATOM     31  O   UNL     1       1.809  -6.508  25.937  0.00  0.00    -0.386 OA
ATOM     32  H   UNL     1       1.363  -5.723  26.312  0.00  0.00    +0.210 HD
ENDBRANCH  28  31
BRANCH  29  33
ATOM     33  O   UNL     1       2.970  -8.351  24.131  0.00  0.00    -0.386 OA
ATOM     34  H   UNL     1       3.206  -8.615  23.227  0.00  0.00    +0.210 HD
ENDBRANCH  29  33
BRANCH  30  35
ATOM     35  O   UNL     1       5.507  -7.535  22.935  0.00  0.00    -0.383 OA
ATOM     36  H   UNL     1       5.926  -7.240  22.106  0.00  0.00    +0.210 HD
ENDBRANCH  30  35
BRANCH  27  37
ATOM     37  C   UNL     1       2.245  -3.652  25.496  0.00  0.00    +0.190 C 
BRANCH  37  38
ATOM     38  O   UNL     1       2.836  -2.363  25.618  0.00  0.00    -0.392 OA
ATOM     39  H   UNL     1       2.265  -1.844  26.226  0.00  0.00    +0.210 HD
ENDBRANCH  37  38
ENDBRANCH  27  37
ENDBRANCH  24  25
ENDBRANCH   6  24
BRANCH   1  40
ATOM     40  O   UNL     1      10.729   1.266  24.477  0.00  0.00    -0.461 OA
BRANCH  40  44
ATOM     41  C   UNL     1       7.908   4.159  25.957  0.00  0.00    +0.041 C 
ATOM     42  C   UNL     1       7.979   3.702  24.501  0.00  0.00    +0.150 C 
ATOM     43  O   UNL     1       8.688   2.455  24.406  0.00  0.00    -0.334 OA
ATOM     44  C   UNL     1      10.097   2.541  24.641  0.00  0.00    +0.339 C 
ATOM     45  C   UNL     1      10.725   3.479  23.585  0.00  0.00    +0.214 C 
ATOM     46  C   UNL     1      10.095   4.871  23.739  0.00  0.00    +0.180 C 
ATOM     47  C   UNL     1       8.567   4.785  23.574  0.00  0.00    +0.174 C 
BRANCH  47  48
ATOM     48  O   UNL     1       8.227   4.490  22.211  0.00  0.00    -0.387 OA
ATOM     49  H   UNL     1       8.912   3.870  21.874  0.00  0.00    +0.210 HD
ENDBRANCH  47  48
BRANCH  46  50
ATOM     50  O   UNL     1      10.682   5.807  22.830  0.00  0.00    -0.386 OA
ATOM     51  H   UNL     1      10.521   6.705  23.177  0.00  0.00    +0.210 HD
ENDBRANCH  46  50
BRANCH  45  52
ATOM     52  O   UNL     1      10.445   2.964  22.258  0.00  0.00    -0.383 OA
ATOM     53  H   UNL     1      11.298   2.968  21.780  0.00  0.00    +0.210 HD
ENDBRANCH  45  52
ENDBRANCH  40  44
ENDBRANCH   1  40
TORSDOF 16
ENDMDL
MODEL 5
REMARK VINA RESULT:      -6.9      2.392      9.102
REMARK  Name = 
REMARK  17 active torsions:
REMARK  status: ('A' for Active; 'I' for Inactive)
REMARK    1  A    between atoms: C_1  and  C_2
REMARK    2  A    between atoms: C_3  and  O_48
REMARK    3  A    between atoms: C_5  and  O_47
REMARK    4  A    between atoms: C_7  and  O_46
REMARK    5  A    between atoms: C_8  and  O_11
REMARK    6  A    between atoms: O_11  and  C_12
REMARK    7  A    between atoms: C_14  and  O_45
REMARK    8  A    between atoms: C_19  and  C_37
REMARK    9  A    between atoms: C_20  and  O_23
REMARK   10  A    between atoms: O_23  and  C_24
REMARK   11  A    between atoms: C_26  and  O_36
REMARK   12  A    between atoms: C_27  and  O_35
REMARK   13  A    between atoms: C_28  and  O_34
REMARK   14  A    between atoms: C_30  and  C_32
REMARK   15  A    between atoms: C_32  and  O_33
REMARK   16  A    between atoms: C_39  and  O_44
REMARK   17  A    between atoms: C_40  and  O_43
REMARK                            x       y       z     vdW  Elec       q    Type
REMARK                         _______ _______ _______ _____ _____    ______ ____
ROOT
ATOM      1  C   UNL     1       8.495   0.582  24.599  0.00  0.00    +0.131 A 
ATOM      2  C   UNL     1       7.418   0.198  25.411  0.00  0.00    +0.093 A 
ATOM      3  C   UNL     1       6.598  -0.880  25.032  0.00  0.00    +0.147 A 
ATOM      4  O   UNL     1       5.527  -1.213  25.831  0.00  0.00    -0.451 OA
ATOM      5  C   UNL     1       4.806  -2.393  25.560  0.00  0.00    +0.181 A 
ATOM      6  C   UNL     1       4.941  -3.111  24.419  0.00  0.00    +0.214 A 
ATOM      7  C   UNL     1       5.829  -2.480  23.385  0.00  0.00    +0.238 A 
ATOM      8  O   UNL     1       5.660  -2.611  22.178  0.00  0.00    -0.283 OA
ATOM      9  C   UNL     1       6.855  -1.549  23.848  0.00  0.00    +0.109 A 
ATOM     10  C   UNL     1       7.976  -1.219  23.077  0.00  0.00    +0.135 A 
ATOM     11  C   UNL     1       8.786  -0.153  23.450  0.00  0.00    +0.092 A 
ENDROOT
BRANCH   5  12
ATOM     12  C   UNL     1       3.846  -2.724  26.658  0.00  0.00    +0.025 A 
ATOM     13  C   UNL     1       2.456  -2.587  26.469  0.00  0.00    +0.015 A 
ATOM     14  C   UNL     1       1.546  -2.969  27.463  0.00  0.00    +0.050 A 
ATOM     15  C   UNL     1       2.019  -3.481  28.659  0.00  0.00    +0.158 A 
ATOM     16  C   UNL     1       3.383  -3.628  28.869  0.00  0.00    +0.159 A 
ATOM     17  C   UNL     1       4.291  -3.268  27.874  0.00  0.00    +0.060 A 
BRANCH  15  18
ATOM     18  O   UNL     1       1.135  -3.866  29.624  0.00  0.00    -0.503 OA
ATOM     19  H   UNL     1       1.041  -3.081  30.202  0.00  0.00    +0.292 HD
ENDBRANCH  15  18
BRANCH  16  20
ATOM     20  O   UNL     1       3.787  -4.143  30.070  0.00  0.00    -0.503 OA
ATOM     21  H   UNL     1       4.587  -4.679  29.929  0.00  0.00    +0.292 HD
ENDBRANCH  16  20
ENDBRANCH   5  12
BRANCH  10  22
ATOM     22  O   UNL     1       8.297  -1.945  21.966  0.00  0.00    -0.506 OA
ATOM     23  H   UNL     1       8.142  -1.417  21.166  0.00  0.00    +0.292 HD
ENDBRANCH  10  22
BRANCH   6  24
ATOM     24  O   UNL     1       4.280  -4.332  24.205  0.00  0.00    -0.453 OA
BRANCH  24  25
ATOM     25  C   UNL     1       4.993  -5.553  24.481  0.00  0.00    +0.340 C 
ATOM     26  O   UNL     1       5.825  -5.429  25.639  0.00  0.00    -0.331 OA
ATOM     27  C   UNL     1       7.045  -4.710  25.449  0.00  0.00    +0.179 C 
ATOM     28  C   UNL     1       7.902  -5.369  24.364  0.00  0.00    +0.177 C 
ATOM     29  C   UNL     1       7.117  -5.379  23.051  0.00  0.00    +0.180 C 
ATOM     30  C   UNL     1       5.771  -6.076  23.247  0.00  0.00    +0.214 C 
BRANCH  28  31
ATOM     31  O   UNL     1       9.143  -4.669  24.204  0.00  0.00    -0.386 OA
ATOM     32  H   UNL     1       8.930  -3.748  23.953  0.00  0.00    +0.210 HD
ENDBRANCH  28  31
BRANCH  29  33
ATOM     33  O   UNL     1       7.911  -6.021  22.045  0.00  0.00    -0.386 OA
ATOM     34  H   UNL     1       7.441  -6.815  21.743  0.00  0.00    +0.210 HD
ENDBRANCH  29  33
BRANCH  30  35
ATOM     35  O   UNL     1       4.990  -6.029  22.049  0.00  0.00    -0.383 OA
ATOM     36  H   UNL     1       5.416  -5.397  21.441  0.00  0.00    +0.210 HD
ENDBRANCH  30  35
BRANCH  27  37
ATOM     37  C   UNL     1       7.789  -4.643  26.794  0.00  0.00    +0.190 C 
BRANCH  37  38
ATOM     38  O   UNL     1       7.765  -5.877  27.502  0.00  0.00    -0.392 OA
ATOM     39  H   UNL     1       7.919  -6.588  26.841  0.00  0.00    +0.210 HD
ENDBRANCH  37  38
ENDBRANCH  27  37
ENDBRANCH  24  25
ENDBRANCH   6  24
BRANCH   1  40
ATOM     40  O   UNL     1       9.334   1.647  24.776  0.00  0.00    -0.461 OA
BRANCH  40  44
ATOM     41  C   UNL     1       6.530   4.840  25.459  0.00  0.00    +0.041 C 
ATOM     42  C   UNL     1       6.877   4.287  24.077  0.00  0.00    +0.150 C 
ATOM     43  O   UNL     1       7.473   2.985  24.199  0.00  0.00    -0.334 OA
ATOM     44  C   UNL     1       8.799   2.974  24.738  0.00  0.00    +0.339 C 
ATOM     45  C   UNL     1       9.725   3.792  23.808  0.00  0.00    +0.214 C 
ATOM     46  C   UNL     1       9.204   5.236  23.756  0.00  0.00    +0.180 C 
ATOM     47  C   UNL     1       7.748   5.259  23.258  0.00  0.00    +0.174 C 
BRANCH  47  48
ATOM     48  O   UNL     1       7.689   4.907  21.867  0.00  0.00    -0.387 OA
ATOM     49  H   UNL     1       6.879   5.326  21.501  0.00  0.00    +0.210 HD
ENDBRANCH  47  48
BRANCH  46  50
ATOM     50  O   UNL     1      10.059   6.064  22.960  0.00  0.00    -0.386 OA
ATOM     51  H   UNL     1       9.495   6.605  22.376  0.00  0.00    +0.210 HD
ENDBRANCH  46  50
BRANCH  45  52
ATOM     52  O   UNL     1       9.696   3.218  22.477  0.00  0.00    -0.383 OA
ATOM     53  H   UNL     1       8.753   3.077  22.262  0.00  0.00    +0.210 HD
ENDBRANCH  45  52
ENDBRANCH  40  44
ENDBRANCH   1  40
TORSDOF 16
ENDMDL
MODEL 6
REMARK VINA RESULT:      -6.9      2.134      3.402
REMARK  Name = 
REMARK  17 active torsions:
REMARK  status: ('A' for Active; 'I' for Inactive)
REMARK    1  A    between atoms: C_1  and  C_2
REMARK    2  A    between atoms: C_3  and  O_48
REMARK    3  A    between atoms: C_5  and  O_47
REMARK    4  A    between atoms: C_7  and  O_46
REMARK    5  A    between atoms: C_8  and  O_11
REMARK    6  A    between atoms: O_11  and  C_12
REMARK    7  A    between atoms: C_14  and  O_45
REMARK    8  A    between atoms: C_19  and  C_37
REMARK    9  A    between atoms: C_20  and  O_23
REMARK   10  A    between atoms: O_23  and  C_24
REMARK   11  A    between atoms: C_26  and  O_36
REMARK   12  A    between atoms: C_27  and  O_35
REMARK   13  A    between atoms: C_28  and  O_34
REMARK   14  A    between atoms: C_30  and  C_32
REMARK   15  A    between atoms: C_32  and  O_33
REMARK   16  A    between atoms: C_39  and  O_44
REMARK   17  A    between atoms: C_40  and  O_43
REMARK                            x       y       z     vdW  Elec       q    Type
REMARK                         _______ _______ _______ _____ _____    ______ ____
ROOT
ATOM      1  C   UNL     1       6.189  -4.773  25.204  0.00  0.00    +0.131 A 
ATOM      2  C   UNL     1       5.869  -3.753  26.112  0.00  0.00    +0.093 A 
ATOM      3  C   UNL     1       6.541  -2.519  26.053  0.00  0.00    +0.147 A 
ATOM      4  O   UNL     1       6.230  -1.548  26.979  0.00  0.00    -0.451 OA
ATOM      5  C   UNL     1       6.764  -0.253  26.825  0.00  0.00    +0.181 A 
ATOM      6  C   UNL     1       7.759   0.051  25.958  0.00  0.00    +0.214 A 
ATOM      7  C   UNL     1       8.358  -1.133  25.253  0.00  0.00    +0.238 A 
ATOM      8  O   UNL     1       9.534  -1.192  24.912  0.00  0.00    -0.283 OA
ATOM      9  C   UNL     1       7.527  -2.325  25.102  0.00  0.00    +0.109 A 
ATOM     10  C   UNL     1       7.793  -3.311  24.145  0.00  0.00    +0.135 A 
ATOM     11  C   UNL     1       7.130  -4.531  24.203  0.00  0.00    +0.092 A 
ENDROOT
BRANCH   5  12
ATOM     12  C   UNL     1       6.135   0.724  27.765  0.00  0.00    +0.025 A 
ATOM     13  C   UNL     1       6.769   1.076  28.974  0.00  0.00    +0.015 A 
ATOM     14  C   UNL     1       6.227   2.049  29.824  0.00  0.00    +0.050 A 
ATOM     15  C   UNL     1       5.039   2.671  29.477  0.00  0.00    +0.158 A 
ATOM     16  C   UNL     1       4.396   2.343  28.292  0.00  0.00    +0.159 A 
ATOM     17  C   UNL     1       4.944   1.390  27.433  0.00  0.00    +0.060 A 
BRANCH  15  18
ATOM     18  O   UNL     1       4.516   3.627  30.296  0.00  0.00    -0.503 OA
ATOM     19  H   UNL     1       4.682   4.472  29.830  0.00  0.00    +0.292 HD
ENDBRANCH  15  18
BRANCH  16  20
ATOM     20  O   UNL     1       3.229   2.995  28.004  0.00  0.00    -0.503 OA
ATOM     21  H   UNL     1       2.490   2.366  28.079  0.00  0.00    +0.292 HD
ENDBRANCH  16  20
ENDBRANCH   5  12
BRANCH  10  22
ATOM     22  O   UNL     1       8.686  -3.084  23.138  0.00  0.00    -0.506 OA
ATOM     23  H   UNL     1       9.595  -3.141  23.478  0.00  0.00    +0.292 HD
ENDBRANCH  10  22
BRANCH   6  24
ATOM     24  O   UNL     1       8.217   1.364  25.754  0.00  0.00    -0.453 OA
BRANCH  24  25
ATOM     25  C   UNL     1       7.648   2.127  24.673  0.00  0.00    +0.340 C 
ATOM     26  O   UNL     1       7.624   1.379  23.454  0.00  0.00    -0.331 OA
ATOM     27  C   UNL     1       8.875   1.266  22.772  0.00  0.00    +0.179 C 
ATOM     28  C   UNL     1       9.432   2.649  22.423  0.00  0.00    +0.177 C 
ATOM     29  C   UNL     1       9.636   3.441  23.717  0.00  0.00    +0.180 C 
ATOM     30  C   UNL     1       8.327   3.511  24.505  0.00  0.00    +0.214 C 
BRANCH  28  31
ATOM     31  O   UNL     1      10.666   2.532  21.705  0.00  0.00    -0.386 OA
ATOM     32  H   UNL     1      11.141   3.382  21.795  0.00  0.00    +0.210 HD
ENDBRANCH  28  31
BRANCH  29  33
ATOM     33  O   UNL     1      10.131   4.744  23.385  0.00  0.00    -0.386 OA
ATOM     34  H   UNL     1       9.397   5.377  23.446  0.00  0.00    +0.210 HD
ENDBRANCH  29  33
BRANCH  30  35
ATOM     35  O   UNL     1       8.516   4.183  25.753  0.00  0.00    -0.383 OA
ATOM     36  H   UNL     1       7.975   4.994  25.739  0.00  0.00    +0.210 HD
ENDBRANCH  30  35
BRANCH  27  37
ATOM     37  C   UNL     1       8.672   0.405  21.513  0.00  0.00    +0.190 C 
BRANCH  37  38
ATOM     38  O   UNL     1       9.649  -0.621  21.381  0.00  0.00    -0.392 OA
ATOM     39  H   UNL     1       9.281  -1.289  20.761  0.00  0.00    +0.210 HD
ENDBRANCH  37  38
ENDBRANCH  27  37
ENDBRANCH  24  25
ENDBRANCH   6  24
BRANCH   1  40
ATOM     40  O   UNL     1       5.694  -6.046  25.173  0.00  0.00    -0.461 OA
BRANCH  40  44
ATOM     41  C   UNL     1       1.873  -7.493  26.522  0.00  0.00    +0.041 C 
ATOM     42  C   UNL     1       2.545  -7.936  25.223  0.00  0.00    +0.150 C 
ATOM     43  O   UNL     1       3.950  -7.638  25.265  0.00  0.00    -0.334 OA
ATOM     44  C   UNL     1       4.277  -6.248  25.176  0.00  0.00    +0.339 C 
ATOM     45  C   UNL     1       3.755  -5.696  23.829  0.00  0.00    +0.214 C 
ATOM     46  C   UNL     1       2.229  -5.867  23.795  0.00  0.00    +0.180 C 
ATOM     47  C   UNL     1       1.855  -7.349  23.976  0.00  0.00    +0.174 C 
BRANCH  47  48
ATOM     48  O   UNL     1       2.231  -8.105  22.815  0.00  0.00    -0.387 OA
ATOM     49  H   UNL     1       3.032  -8.622  23.059  0.00  0.00    +0.210 HD
ENDBRANCH  47  48
BRANCH  46  50
ATOM     50  O   UNL     1       1.674  -5.314  22.598  0.00  0.00    -0.386 OA
ATOM     51  H   UNL     1       1.524  -4.362  22.747  0.00  0.00    +0.210 HD
ENDBRANCH  46  50
BRANCH  45  52
ATOM     52  O   UNL     1       4.351  -6.446  22.740  0.00  0.00    -0.383 OA
ATOM     53  H   UNL     1       4.317  -5.860  21.957  0.00  0.00    +0.210 HD
ENDBRANCH  45  52
ENDBRANCH  40  44
ENDBRANCH   1  40
TORSDOF 16
ENDMDL
MODEL 7
REMARK VINA RESULT:      -6.5      2.798      9.710
REMARK  Name = 
REMARK  17 active torsions:
REMARK  status: ('A' for Active; 'I' for Inactive)
REMARK    1  A    between atoms: C_1  and  C_2
REMARK    2  A    between atoms: C_3  and  O_48
REMARK    3  A    between atoms: C_5  and  O_47
REMARK    4  A    between atoms: C_7  and  O_46
REMARK    5  A    between atoms: C_8  and  O_11
REMARK    6  A    between atoms: O_11  and  C_12
REMARK    7  A    between atoms: C_14  and  O_45
REMARK    8  A    between atoms: C_19  and  C_37
REMARK    9  A    between atoms: C_20  and  O_23
REMARK   10  A    between atoms: O_23  and  C_24
REMARK   11  A    between atoms: C_26  and  O_36
REMARK   12  A    between atoms: C_27  and  O_35
REMARK   13  A    between atoms: C_28  and  O_34
REMARK   14  A    between atoms: C_30  and  C_32
REMARK   15  A    between atoms: C_32  and  O_33
REMARK   16  A    between atoms: C_39  and  O_44
REMARK   17  A    between atoms: C_40  and  O_43
REMARK                            x       y       z     vdW  Elec       q    Type
REMARK                         _______ _______ _______ _____ _____    ______ ____
ROOT
ATOM      1  C   UNL     1       7.408   1.510  22.890  0.00  0.00    +0.131 A 
ATOM      2  C   UNL     1       6.317   1.166  23.701  0.00  0.00    +0.093 A 
ATOM      3  C   UNL     1       6.265  -0.097  24.317  0.00  0.00    +0.147 A 
ATOM      4  O   UNL     1       5.165  -0.420  25.079  0.00  0.00    -0.451 OA
ATOM      5  C   UNL     1       5.180  -1.606  25.842  0.00  0.00    +0.181 A 
ATOM      6  C   UNL     1       6.108  -2.581  25.696  0.00  0.00    +0.214 A 
ATOM      7  C   UNL     1       7.062  -2.371  24.555  0.00  0.00    +0.238 A 
ATOM      8  O   UNL     1       7.557  -3.289  23.911  0.00  0.00    -0.283 OA
ATOM      9  C   UNL     1       7.292  -1.000  24.106  0.00  0.00    +0.109 A 
ATOM     10  C   UNL     1       8.419  -0.631  23.363  0.00  0.00    +0.135 A 
ATOM     11  C   UNL     1       8.470   0.617  22.753  0.00  0.00    +0.092 A 
ENDROOT
BRANCH   5  12
ATOM     12  C   UNL     1       4.024  -1.674  26.787  0.00  0.00    +0.025 A 
ATOM     13  C   UNL     1       4.104  -1.096  28.070  0.00  0.00    +0.015 A 
ATOM     14  C   UNL     1       3.000  -1.085  28.933  0.00  0.00    +0.050 A 
ATOM     15  C   UNL     1       1.810  -1.661  28.524  0.00  0.00    +0.158 A 
ATOM     16  C   UNL     1       1.705  -2.235  27.265  0.00  0.00    +0.159 A 
ATOM     17  C   UNL     1       2.795  -2.230  26.396  0.00  0.00    +0.060 A 
BRANCH  15  18
ATOM     18  O   UNL     1       0.730  -1.641  29.357  0.00  0.00    -0.503 OA
ATOM     19  H   UNL     1       1.026  -2.116  30.161  0.00  0.00    +0.292 HD
ENDBRANCH  15  18
BRANCH  16  20
ATOM     20  O   UNL     1       0.501  -2.785  26.919  0.00  0.00    -0.503 OA
ATOM     21  H   UNL     1      -0.063  -2.830  27.710  0.00  0.00    +0.292 HD
ENDBRANCH  16  20
ENDBRANCH   5  12
BRANCH  10  22
ATOM     22  O   UNL     1       9.484  -1.477  23.241  0.00  0.00    -0.506 OA
ATOM     23  H   UNL     1      10.310  -0.970  23.190  0.00  0.00    +0.292 HD
ENDBRANCH  10  22
BRANCH   6  24
ATOM     24  O   UNL     1       6.159  -3.714  26.526  0.00  0.00    -0.453 OA
BRANCH  24  25
ATOM     25  C   UNL     1       6.103  -5.016  25.910  0.00  0.00    +0.340 C 
ATOM     26  O   UNL     1       4.846  -5.243  25.267  0.00  0.00    -0.331 OA
ATOM     27  C   UNL     1       3.755  -5.559  26.134  0.00  0.00    +0.179 C 
ATOM     28  C   UNL     1       4.058  -6.818  26.952  0.00  0.00    +0.177 C 
ATOM     29  C   UNL     1       5.312  -6.570  27.795  0.00  0.00    +0.180 C 
ATOM     30  C   UNL     1       6.477  -6.153  26.896  0.00  0.00    +0.214 C 
BRANCH  28  31
ATOM     31  O   UNL     1       2.947  -7.156  27.792  0.00  0.00    -0.386 OA
ATOM     32  H   UNL     1       3.101  -6.741  28.664  0.00  0.00    +0.210 HD
ENDBRANCH  28  31
BRANCH  29  33
ATOM     33  O   UNL     1       5.608  -7.758  28.539  0.00  0.00    -0.386 OA
ATOM     34  H   UNL     1       5.381  -8.528  27.992  0.00  0.00    +0.210 HD
ENDBRANCH  29  33
BRANCH  30  35
ATOM     35  O   UNL     1       7.638  -5.843  27.673  0.00  0.00    -0.383 OA
ATOM     36  H   UNL     1       7.551  -6.298  28.531  0.00  0.00    +0.210 HD
ENDBRANCH  30  35
BRANCH  27  37
ATOM     37  C   UNL     1       2.485  -5.732  25.282  0.00  0.00    +0.190 C 
BRANCH  37  38
ATOM     38  O   UNL     1       1.288  -5.535  26.027  0.00  0.00    -0.392 OA
ATOM     39  H   UNL     1       0.545  -5.564  25.384  0.00  0.00    +0.210 HD
ENDBRANCH  37  38
ENDBRANCH  27  37
ENDBRANCH  24  25
ENDBRANCH   6  24
BRANCH   1  40
ATOM     40  O   UNL     1       7.576   2.653  22.160  0.00  0.00    -0.461 OA
BRANCH  40  44
ATOM     41  C   UNL     1       5.984   6.611  22.724  0.00  0.00    +0.041 C 
ATOM     42  C   UNL     1       7.454   6.314  22.434  0.00  0.00    +0.150 C 
ATOM     43  O   UNL     1       7.594   4.999  21.872  0.00  0.00    -0.334 OA
ATOM     44  C   UNL     1       7.366   3.923  22.788  0.00  0.00    +0.339 C 
ATOM     45  C   UNL     1       8.396   4.017  23.938  0.00  0.00    +0.214 C 
ATOM     46  C   UNL     1       8.193   5.356  24.660  0.00  0.00    +0.180 C 
ATOM     47  C   UNL     1       8.350   6.525  23.671  0.00  0.00    +0.174 C 
BRANCH  47  48
ATOM     48  O   UNL     1       9.719   6.652  23.260  0.00  0.00    -0.387 OA
ATOM     49  H   UNL     1      10.259   6.702  24.081  0.00  0.00    +0.210 HD
ENDBRANCH  47  48
BRANCH  46  50
ATOM     50  O   UNL     1       9.075   5.477  25.781  0.00  0.00    -0.386 OA
ATOM     51  H   UNL     1       9.764   4.791  25.697  0.00  0.00    +0.210 HD
ENDBRANCH  46  50
BRANCH  45  52
ATOM     52  O   UNL     1       9.737   3.962  23.387  0.00  0.00    -0.383 OA
ATOM     53  H   UNL     1       9.920   3.017  23.212  0.00  0.00    +0.210 HD
ENDBRANCH  45  52
ENDBRANCH  40  44
ENDBRANCH   1  40
TORSDOF 16
ENDMDL
MODEL 8
REMARK VINA RESULT:      -6.5      2.234     10.451
REMARK  Name = 
REMARK  17 active torsions:
REMARK  status: ('A' for Active; 'I' for Inactive)
REMARK    1  A    between atoms: C_1  and  C_2
REMARK    2  A    between atoms: C_3  and  O_48
REMARK    3  A    between atoms: C_5  and  O_47
REMARK    4  A    between atoms: C_7  and  O_46
REMARK    5  A    between atoms: C_8  and  O_11
REMARK    6  A    between atoms: O_11  and  C_12
REMARK    7  A    between atoms: C_14  and  O_45
REMARK    8  A    between atoms: C_19  and  C_37
REMARK    9  A    between atoms: C_20  and  O_23
REMARK   10  A    between atoms: O_23  and  C_24
REMARK   11  A    between atoms: C_26  and  O_36
REMARK   12  A    between atoms: C_27  and  O_35
REMARK   13  A    between atoms: C_28  and  O_34
REMARK   14  A    between atoms: C_30  and  C_32
REMARK   15  A    between atoms: C_32  and  O_33
REMARK   16  A    between atoms: C_39  and  O_44
REMARK   17  A    between atoms: C_40  and  O_43
REMARK                            x       y       z     vdW  Elec       q    Type
REMARK                         _______ _______ _______ _____ _____    ______ ____
ROOT
ATOM      1  C   UNL     1       5.816   2.735  24.695  0.00  0.00    +0.131 A 
ATOM      2  C   UNL     1       6.090   1.459  24.181  0.00  0.00    +0.093 A 
ATOM      3  C   UNL     1       5.654   0.313  24.869  0.00  0.00    +0.147 A 
ATOM      4  O   UNL     1       5.967  -0.928  24.358  0.00  0.00    -0.451 OA
ATOM      5  C   UNL     1       5.390  -2.076  24.937  0.00  0.00    +0.181 A 
ATOM      6  C   UNL     1       4.729  -2.071  26.119  0.00  0.00    +0.214 A 
ATOM      7  C   UNL     1       4.767  -0.759  26.851  0.00  0.00    +0.238 A 
ATOM      8  O   UNL     1       4.763  -0.667  28.073  0.00  0.00    -0.283 OA
ATOM      9  C   UNL     1       4.965   0.454  26.061  0.00  0.00    +0.109 A 
ATOM     10  C   UNL     1       4.622   1.725  26.535  0.00  0.00    +0.135 A 
ATOM     11  C   UNL     1       5.053   2.858  25.856  0.00  0.00    +0.092 A 
ENDROOT
BRANCH   5  12
ATOM     12  C   UNL     1       5.640  -3.299  24.115  0.00  0.00    +0.025 A 
ATOM     13  C   UNL     1       6.951  -3.771  23.901  0.00  0.00    +0.015 A 
ATOM     14  C   UNL     1       7.190  -4.960  23.198  0.00  0.00    +0.050 A 
ATOM     15  C   UNL     1       6.121  -5.681  22.695  0.00  0.00    +0.158 A 
ATOM     16  C   UNL     1       4.821  -5.238  22.894  0.00  0.00    +0.159 A 
ATOM     17  C   UNL     1       4.577  -4.067  23.610  0.00  0.00    +0.060 A 
BRANCH  15  18
ATOM     18  O   UNL     1       6.350  -6.845  22.022  0.00  0.00    -0.503 OA
ATOM     19  H   UNL     1       5.690  -7.473  22.379  0.00  0.00    +0.292 HD
ENDBRANCH  15  18
BRANCH  16  20
ATOM     20  O   UNL     1       3.808  -5.997  22.375  0.00  0.00    -0.503 OA
ATOM     21  H   UNL     1       3.638  -5.711  21.461  0.00  0.00    +0.292 HD
ENDBRANCH  16  20
ENDBRANCH   5  12
BRANCH  10  22
ATOM     22  O   UNL     1       3.850   1.869  27.652  0.00  0.00    -0.506 OA
ATOM     23  H   UNL     1       2.929   2.049  27.400  0.00  0.00    +0.292 HD
ENDBRANCH  10  22
BRANCH   6  24
ATOM     24  O   UNL     1       4.084  -3.207  26.637  0.00  0.00    -0.453 OA
BRANCH  24  25
ATOM     25  C   UNL     1       4.871  -4.168  27.366  0.00  0.00    +0.340 C 
ATOM     26  O   UNL     1       5.046  -5.380  26.626  0.00  0.00    -0.331 OA
ATOM     27  C   UNL     1       3.919  -6.258  26.601  0.00  0.00    +0.179 C 
ATOM     28  C   UNL     1       3.519  -6.669  28.022  0.00  0.00    +0.177 C 
ATOM     29  C   UNL     1       3.158  -5.413  28.817  0.00  0.00    +0.180 C 
ATOM     30  C   UNL     1       4.322  -4.421  28.794  0.00  0.00    +0.214 C 
BRANCH  28  31
ATOM     31  O   UNL     1       2.414  -7.581  27.993  0.00  0.00    -0.386 OA
ATOM     32  H   UNL     1       2.779  -8.487  28.040  0.00  0.00    +0.210 HD
ENDBRANCH  28  31
BRANCH  29  33
ATOM     33  O   UNL     1       2.811  -5.799  30.153  0.00  0.00    -0.386 OA
ATOM     34  H   UNL     1       1.903  -6.144  30.147  0.00  0.00    +0.210 HD
ENDBRANCH  29  33
BRANCH  30  35
ATOM     35  O   UNL     1       3.976  -3.208  29.469  0.00  0.00    -0.383 OA
ATOM     36  H   UNL     1       4.020  -2.483  28.819  0.00  0.00    +0.210 HD
ENDBRANCH  30  35
BRANCH  27  37
ATOM     37  C   UNL     1       4.268  -7.481  25.736  0.00  0.00    +0.190 C 
BRANCH  37  38
ATOM     38  O   UNL     1       3.128  -8.263  25.397  0.00  0.00    -0.392 OA
ATOM     39  H   UNL     1       3.024  -8.937  26.105  0.00  0.00    +0.210 HD
ENDBRANCH  37  38
ENDBRANCH  27  37
ENDBRANCH  24  25
ENDBRANCH   6  24
BRANCH   1  40
ATOM     40  O   UNL     1       6.232   3.939  24.200  0.00  0.00    -0.461 OA
BRANCH  40  44
ATOM     41  C   UNL     1       9.056   6.428  26.285  0.00  0.00    +0.041 C 
ATOM     42  C   UNL     1       8.824   6.478  24.776  0.00  0.00    +0.150 C 
ATOM     43  O   UNL     1       7.559   5.879  24.448  0.00  0.00    -0.334 OA
ATOM     44  C   UNL     1       7.507   4.456  24.595  0.00  0.00    +0.339 C 
ATOM     45  C   UNL     1       8.550   3.816  23.649  0.00  0.00    +0.214 C 
ATOM     46  C   UNL     1       9.943   4.322  24.052  0.00  0.00    +0.180 C 
ATOM     47  C   UNL     1       9.992   5.859  23.982  0.00  0.00    +0.174 C 
BRANCH  47  48
ATOM     48  O   UNL     1       9.935   6.299  22.617  0.00  0.00    -0.387 OA
ATOM     49  H   UNL     1      10.602   5.774  22.120  0.00  0.00    +0.210 HD
ENDBRANCH  47  48
BRANCH  46  50
ATOM     50  O   UNL     1      10.963   3.714  23.254  0.00  0.00    -0.386 OA
ATOM     51  H   UNL     1      11.446   3.078  23.816  0.00  0.00    +0.210 HD
ENDBRANCH  46  50
BRANCH  45  52
ATOM     52  O   UNL     1       8.266   4.212  22.283  0.00  0.00    -0.383 OA
ATOM     53  H   UNL     1       7.530   4.854  22.334  0.00  0.00    +0.210 HD
ENDBRANCH  45  52
ENDBRANCH  40  44
ENDBRANCH   1  40
TORSDOF 16
ENDMDL
MODEL 9
REMARK VINA RESULT:      -6.5      2.145      4.211
REMARK  Name = 
REMARK  17 active torsions:
REMARK  status: ('A' for Active; 'I' for Inactive)
REMARK    1  A    between atoms: C_1  and  C_2
REMARK    2  A    between atoms: C_3  and  O_48
REMARK    3  A    between atoms: C_5  and  O_47
REMARK    4  A    between atoms: C_7  and  O_46
REMARK    5  A    between atoms: C_8  and  O_11
REMARK    6  A    between atoms: O_11  and  C_12
REMARK    7  A    between atoms: C_14  and  O_45
REMARK    8  A    between atoms: C_19  and  C_37
REMARK    9  A    between atoms: C_20  and  O_23
REMARK   10  A    between atoms: O_23  and  C_24
REMARK   11  A    between atoms: C_26  and  O_36
REMARK   12  A    between atoms: C_27  and  O_35
REMARK   13  A    between atoms: C_28  and  O_34
REMARK   14  A    between atoms: C_30  and  C_32
REMARK   15  A    between atoms: C_32  and  O_33
REMARK   16  A    between atoms: C_39  and  O_44
REMARK   17  A    between atoms: C_40  and  O_43
REMARK                            x       y       z     vdW  Elec       q    Type
REMARK                         _______ _______ _______ _____ _____    ______ ____
ROOT
ATOM      1  C   UNL     1       4.679  -4.081  26.097  0.00  0.00    +0.131 A 
ATOM      2  C   UNL     1       5.497  -3.264  25.302  0.00  0.00    +0.093 A 
ATOM      3  C   UNL     1       5.461  -1.867  25.453  0.00  0.00    +0.147 A 
ATOM      4  O   UNL     1       6.249  -1.089  24.635  0.00  0.00    -0.451 OA
ATOM      5  C   UNL     1       6.356   0.293  24.893  0.00  0.00    +0.181 A 
ATOM      6  C   UNL     1       5.547   0.962  25.749  0.00  0.00    +0.214 A 
ATOM      7  C   UNL     1       4.423   0.144  26.317  0.00  0.00    +0.238 A 
ATOM      8  O   UNL     1       3.328   0.611  26.608  0.00  0.00    -0.283 OA
ATOM      9  C   UNL     1       4.603  -1.305  26.383  0.00  0.00    +0.109 A 
ATOM     10  C   UNL     1       3.845  -2.119  27.232  0.00  0.00    +0.135 A 
ATOM     11  C   UNL     1       3.880  -3.500  27.082  0.00  0.00    +0.092 A 
ENDROOT
BRANCH   5  12
ATOM     12  C   UNL     1       7.431   0.930  24.073  0.00  0.00    +0.025 A 
ATOM     13  C   UNL     1       8.540   1.546  24.687  0.00  0.00    +0.015 A 
ATOM     14  C   UNL     1       9.591   2.076  23.927  0.00  0.00    +0.050 A 
ATOM     15  C   UNL     1       9.536   2.005  22.545  0.00  0.00    +0.158 A 
ATOM     16  C   UNL     1       8.455   1.402  21.916  0.00  0.00    +0.159 A 
ATOM     17  C   UNL     1       7.417   0.855  22.670  0.00  0.00    +0.060 A 
BRANCH  15  18
ATOM     18  O   UNL     1      10.563   2.508  21.803  0.00  0.00    -0.503 OA
ATOM     19  H   UNL     1      11.361   2.365  22.352  0.00  0.00    +0.292 HD
ENDBRANCH  15  18
BRANCH  16  20
ATOM     20  O   UNL     1       8.461   1.360  20.549  0.00  0.00    -0.503 OA
ATOM     21  H   UNL     1       9.318   1.011  20.249  0.00  0.00    +0.292 HD
ENDBRANCH  16  20
ENDBRANCH   5  12
BRANCH  10  22
ATOM     22  O   UNL     1       3.081  -1.575  28.223  0.00  0.00    -0.506 OA
ATOM     23  H   UNL     1       3.189  -2.081  29.045  0.00  0.00    +0.292 HD
ENDBRANCH  10  22
BRANCH   6  24
ATOM     24  O   UNL     1       5.725   2.321  26.060  0.00  0.00    -0.453 OA
BRANCH  24  25
ATOM     25  C   UNL     1       4.866   3.287  25.424  0.00  0.00    +0.340 C 
ATOM     26  O   UNL     1       5.337   3.634  24.118  0.00  0.00    -0.331 OA
ATOM     27  C   UNL     1       6.447   4.533  24.079  0.00  0.00    +0.179 C 
ATOM     28  C   UNL     1       6.106   5.849  24.784  0.00  0.00    +0.177 C 
ATOM     29  C   UNL     1       5.752   5.553  26.243  0.00  0.00    +0.180 C 
ATOM     30  C   UNL     1       4.616   4.532  26.313  0.00  0.00    +0.214 C 
BRANCH  28  31
ATOM     31  O   UNL     1       7.207   6.764  24.709  0.00  0.00    -0.386 OA
ATOM     32  H   UNL     1       7.677   6.590  23.869  0.00  0.00    +0.210 HD
ENDBRANCH  28  31
BRANCH  29  33
ATOM     33  O   UNL     1       5.408   6.783  26.893  0.00  0.00    -0.386 OA
ATOM     34  H   UNL     1       6.227   7.218  27.181  0.00  0.00    +0.210 HD
ENDBRANCH  29  33
BRANCH  30  35
ATOM     35  O   UNL     1       4.322   4.185  27.670  0.00  0.00    -0.383 OA
ATOM     36  H   UNL     1       3.356   4.245  27.789  0.00  0.00    +0.210 HD
ENDBRANCH  30  35
BRANCH  27  37
ATOM     37  C   UNL     1       6.840   4.764  22.610  0.00  0.00    +0.190 C 
BRANCH  37  38
ATOM     38  O   UNL     1       8.197   5.166  22.457  0.00  0.00    -0.392 OA
ATOM     39  H   UNL     1       8.186   6.113  22.195  0.00  0.00    +0.210 HD
ENDBRANCH  37  38
ENDBRANCH  27  37
ENDBRANCH  24  25
ENDBRANCH   6  24
BRANCH   1  40
ATOM     40  O   UNL     1       4.533  -5.438  26.024  0.00  0.00    -0.461 OA
BRANCH  40  44
ATOM     41  C   UNL     1       0.463  -6.636  26.744  0.00  0.00    +0.041 C 
ATOM     42  C   UNL     1       1.609  -7.613  26.483  0.00  0.00    +0.150 C 
ATOM     43  O   UNL     1       2.873  -6.970  26.717  0.00  0.00    -0.334 OA
ATOM     44  C   UNL     1       3.242  -5.989  25.742  0.00  0.00    +0.339 C 
ATOM     45  C   UNL     1       3.351  -6.673  24.360  0.00  0.00    +0.214 C 
ATOM     46  C   UNL     1       1.978  -7.260  24.001  0.00  0.00    +0.180 C 
ATOM     47  C   UNL     1       1.525  -8.255  25.084  0.00  0.00    +0.174 C 
BRANCH  47  48
ATOM     48  O   UNL     1       2.336  -9.439  25.047  0.00  0.00    -0.387 OA
ATOM     49  H   UNL     1       3.249  -9.151  24.821  0.00  0.00    +0.210 HD
ENDBRANCH  47  48
BRANCH  46  50
ATOM     50  O   UNL     1       1.995  -7.853  22.698  0.00  0.00    -0.386 OA
ATOM     51  H   UNL     1       2.620  -8.601  22.716  0.00  0.00    +0.210 HD
ENDBRANCH  46  50
BRANCH  45  52
ATOM     52  O   UNL     1       4.332  -7.740  24.428  0.00  0.00    -0.383 OA
ATOM     53  H   UNL     1       5.142  -7.391  24.006  0.00  0.00    +0.210 HD
ENDBRANCH  45  52
ENDBRANCH  40  44
ENDBRANCH   1  40
TORSDOF 16
ENDMDL
