MODEL 1
REMARK VINA RESULT:      -7.5      0.000      0.000
REMARK  Name = 
REMARK  18 active torsions:
REMARK  status: ('A' for Active; 'I' for Inactive)
REMARK    1  A    between atoms: C_3  and  O_49
REMARK    2  A    between atoms: C_4  and  O_48
REMARK    3  A    between atoms: C_6  and  C_7
REMARK    4  A    between atoms: C_8  and  O_20
REMARK    5  A    between atoms: C_12  and  O_19
REMARK    6  A    between atoms: C_14  and  O_18
REMARK    7  A    between atoms: O_20  and  C_21
REMARK    8  A    between atoms: C_23  and  O_33
REMARK    9  A    between atoms: C_24  and  O_32
REMARK   10  A    between atoms: C_25  and  O_31
REMARK   11  A    between atoms: C_27  and  C_29
REMARK   12  A    between atoms: C_29  and  O_30
REMARK   13  A    between atoms: O_33  and  C_34
REMARK   14  A    between atoms: C_36  and  O_47
REMARK   15  A    between atoms: C_38  and  O_46
REMARK   16  A    between atoms: C_39  and  O_45
REMARK   17  A    between atoms: C_41  and  C_43
REMARK   18  A    between atoms: C_43  and  O_44
REMARK                            x       y       z     vdW  Elec       q    Type
REMARK                         _______ _______ _______ _____ _____    ______ ____
ROOT
ATOM      1  C   UNL     1       6.189  -2.991  26.749  0.00  0.00    +0.340 C 
ATOM      2  O   UNL     1       5.494  -3.223  28.020  0.00  0.00    -0.331 OA
ATOM      3  C   UNL     1       5.217  -4.584  28.525  0.00  0.00    +0.179 C 
ATOM      4  C   UNL     1       6.225  -5.695  28.079  0.00  0.00    +0.177 C 
ATOM      5  C   UNL     1       7.162  -5.104  27.047  0.00  0.00    +0.180 C 
ATOM      6  C   UNL     1       6.266  -4.307  26.032  0.00  0.00    +0.221 C 
ENDROOT
BRANCH   5   7
ATOM      7  O   UNL     1       8.096  -5.991  26.575  0.00  0.00    -0.386 OA
ATOM      8  H   UNL     1       8.722  -5.558  25.984  0.00  0.00    +0.210 HD
ENDBRANCH   5   7
BRANCH   4   9
ATOM      9  O   UNL     1       5.602  -6.842  27.493  0.00  0.00    -0.386 OA
ATOM     10  H   UNL     1       6.182  -7.149  26.772  0.00  0.00    +0.210 HD
ENDBRANCH   4   9
BRANCH   6  11
ATOM     11  O   UNL     1       6.502  -4.249  24.654  0.00  0.00    -0.337 OA
BRANCH  11  12
ATOM     12  C   UNL     1       5.769  -3.590  23.632  0.00  0.00    +0.282 C 
ATOM     13  O   UNL     1       4.477  -4.255  23.542  0.00  0.00    -0.341 OA
ATOM     14  C   UNL     1       4.647  -5.682  23.651  0.00  0.00    +0.178 C 
ATOM     15  C   UNL     1       5.570  -6.234  22.538  0.00  0.00    +0.177 C 
ATOM     16  C   UNL     1       6.775  -5.329  22.224  0.00  0.00    +0.179 C 
ATOM     17  C   UNL     1       6.446  -3.830  22.285  0.00  0.00    +0.201 C 
BRANCH  17  18
ATOM     18  O   UNL     1       5.666  -3.450  21.145  0.00  0.00    -0.384 OA
ATOM     19  H   UNL     1       5.876  -2.513  20.956  0.00  0.00    +0.210 HD
ENDBRANCH  17  18
BRANCH  16  20
ATOM     20  O   UNL     1       7.338  -5.697  20.959  0.00  0.00    -0.386 OA
ATOM     21  H   UNL     1       8.099  -6.280  21.160  0.00  0.00    +0.210 HD
ENDBRANCH  16  20
BRANCH  15  22
ATOM     22  O   UNL     1       4.870  -6.446  21.308  0.00  0.00    -0.386 OA
ATOM     23  H   UNL     1       4.723  -7.418  21.293  0.00  0.00    +0.210 HD
ENDBRANCH  15  22
BRANCH  14  24
ATOM     24  C   UNL     1       3.297  -6.395  23.749  0.00  0.00    +0.190 C 
BRANCH  24  25
ATOM     25  O   UNL     1       3.498  -7.811  23.800  0.00  0.00    -0.392 OA
ATOM     26  H   UNL     1       3.926  -8.076  22.969  0.00  0.00    +0.210 HD
ENDBRANCH  24  25
ENDBRANCH  14  24
ENDBRANCH  11  12
ENDBRANCH   6  11
BRANCH   3  27
ATOM     27  C   UNL     1       3.755  -5.141  28.434  0.00  0.00    +0.190 C 
BRANCH  27  28
ATOM     28  O   UNL     1       3.162  -5.085  27.145  0.00  0.00    -0.392 OA
ATOM     29  H   UNL     1       2.553  -4.331  27.116  0.00  0.00    +0.210 HD
ENDBRANCH  27  28
ENDBRANCH   3  27
BRANCH   1  30
ATOM     30  O   UNL     1       7.655  -2.645  26.729  0.00  0.00    -0.453 OA
BRANCH  30  41
ATOM     31  C   UNL     1       7.816  -0.200  26.385  0.00  0.00    +0.181 A 
ATOM     32  O   UNL     1       8.552   0.783  25.664  0.00  0.00    -0.451 OA
ATOM     33  C   UNL     1       8.987   0.499  24.402  0.00  0.00    +0.147 A 
ATOM     34  C   UNL     1       9.152  -0.796  23.972  0.00  0.00    +0.109 A 
ATOM     35  C   UNL     1       9.470  -1.104  22.659  0.00  0.00    +0.135 A 
ATOM     36  C   UNL     1       9.741  -0.071  21.775  0.00  0.00    +0.091 A 
ATOM     37  C   UNL     1       9.702   1.242  22.244  0.00  0.00    +0.124 A 
ATOM     38  C   UNL     1       9.047  -1.809  24.990  0.00  0.00    +0.238 A 
ATOM     39  O   UNL     1       9.651  -2.865  24.852  0.00  0.00    -0.283 OA
ATOM     40  C   UNL     1       9.300   1.543  23.546  0.00  0.00    +0.092 A 
ATOM     41  C   UNL     1       8.106  -1.517  26.112  0.00  0.00    +0.214 A 
BRANCH  31  43
ATOM     42  C   UNL     1       5.467   0.641  26.965  0.00  0.00    +0.015 A 
ATOM     43  C   UNL     1       6.853   0.595  27.344  0.00  0.00    +0.025 A 
ATOM     44  C   UNL     1       7.109   1.269  28.559  0.00  0.00    +0.060 A 
ATOM     45  C   UNL     1       6.068   1.910  29.309  0.00  0.00    +0.159 A 
ATOM     46  C   UNL     1       4.729   1.896  28.879  0.00  0.00    +0.158 A 
ATOM     47  C   UNL     1       4.439   1.262  27.698  0.00  0.00    +0.050 A 
BRANCH  46  48
ATOM     48  O   UNL     1       3.791   2.505  29.652  0.00  0.00    -0.503 OA
ATOM     49  H   UNL     1       3.281   1.811  30.119  0.00  0.00    +0.292 HD
ENDBRANCH  46  48
BRANCH  45  50
ATOM     50  O   UNL     1       6.329   2.557  30.484  0.00  0.00    -0.503 OA
ATOM     51  H   UNL     1       5.501   2.483  31.017  0.00  0.00    +0.292 HD
ENDBRANCH  45  50
ENDBRANCH  31  43
BRANCH  37  52
ATOM     52  O   UNL     1      10.066   2.282  21.442  0.00  0.00    -0.507 OA
ATOM     53  H   UNL     1       9.300   2.520  20.892  0.00  0.00    +0.292 HD
ENDBRANCH  37  52
BRANCH  35  54
ATOM     54  O   UNL     1       9.511  -2.385  22.182  0.00  0.00    -0.506 OA
ATOM     55  H   UNL     1      10.284  -2.463  21.577  0.00  0.00    +0.292 HD
ENDBRANCH  35  54
ENDBRANCH  30  41
ENDBRANCH   1  30
TORSDOF 18
ENDMDL
MODEL 2
REMARK VINA RESULT:      -7.0      2.267      5.853
REMARK  Name = 
REMARK  18 active torsions:
REMARK  status: ('A' for Active; 'I' for Inactive)
REMARK    1  A    between atoms: C_3  and  O_49
REMARK    2  A    between atoms: C_4  and  O_48
REMARK    3  A    between atoms: C_6  and  C_7
REMARK    4  A    between atoms: C_8  and  O_20
REMARK    5  A    between atoms: C_12  and  O_19
REMARK    6  A    between atoms: C_14  and  O_18
REMARK    7  A    between atoms: O_20  and  C_21
REMARK    8  A    between atoms: C_23  and  O_33
REMARK    9  A    between atoms: C_24  and  O_32
REMARK   10  A    between atoms: C_25  and  O_31
REMARK   11  A    between atoms: C_27  and  C_29
REMARK   12  A    between atoms: C_29  and  O_30
REMARK   13  A    between atoms: O_33  and  C_34
REMARK   14  A    between atoms: C_36  and  O_47
REMARK   15  A    between atoms: C_38  and  O_46
REMARK   16  A    between atoms: C_39  and  O_45
REMARK   17  A    between atoms: C_41  and  C_43
REMARK   18  A    between atoms: C_43  and  O_44
REMARK                            x       y       z     vdW  Elec       q    Type
REMARK                         _______ _______ _______ _____ _____    ______ ____
ROOT
ATOM      1  C   UNL     1       3.824  -1.759  26.406  0.00  0.00    +0.340 C 
ATOM      2  O   UNL     1       2.755  -0.755  26.402  0.00  0.00    -0.331 OA
ATOM      3  C   UNL     1       2.041  -0.364  27.636  0.00  0.00    +0.179 C 
ATOM      4  C   UNL     1       2.854  -0.497  28.965  0.00  0.00    +0.177 C 
ATOM      5  C   UNL     1       4.160  -1.199  28.659  0.00  0.00    +0.180 C 
ATOM      6  C   UNL     1       3.805  -2.430  27.750  0.00  0.00    +0.221 C 
ENDROOT
BRANCH   5   7
ATOM      7  O   UNL     1       4.963  -1.378  29.756  0.00  0.00    -0.386 OA
ATOM      8  H   UNL     1       5.780  -0.871  29.679  0.00  0.00    +0.210 HD
ENDBRANCH   5   7
BRANCH   4   9
ATOM      9  O   UNL     1       2.185  -1.250  29.982  0.00  0.00    -0.386 OA
ATOM     10  H   UNL     1       2.475  -0.896  30.842  0.00  0.00    +0.210 HD
ENDBRANCH   4   9
BRANCH   6  11
ATOM     11  O   UNL     1       4.439  -3.675  27.830  0.00  0.00    -0.337 OA
BRANCH  11  12
ATOM     12  C   UNL     1       4.274  -4.834  27.026  0.00  0.00    +0.282 C 
ATOM     13  O   UNL     1       3.716  -5.868  27.884  0.00  0.00    -0.341 OA
ATOM     14  C   UNL     1       4.359  -5.839  29.175  0.00  0.00    +0.178 C 
ATOM     15  C   UNL     1       5.886  -6.058  29.057  0.00  0.00    +0.177 C 
ATOM     16  C   UNL     1       6.526  -5.344  27.853  0.00  0.00    +0.179 C 
ATOM     17  C   UNL     1       5.643  -5.353  26.597  0.00  0.00    +0.201 C 
BRANCH  17  18
ATOM     18  O   UNL     1       5.631  -6.662  26.012  0.00  0.00    -0.384 OA
ATOM     19  H   UNL     1       5.688  -7.304  26.749  0.00  0.00    +0.210 HD
ENDBRANCH  17  18
BRANCH  16  20
ATOM     20  O   UNL     1       7.821  -5.900  27.594  0.00  0.00    -0.386 OA
ATOM     21  H   UNL     1       7.862  -6.737  28.102  0.00  0.00    +0.210 HD
ENDBRANCH  16  20
BRANCH  15  22
ATOM     22  O   UNL     1       6.229  -7.445  28.956  0.00  0.00    -0.386 OA
ATOM     23  H   UNL     1       6.484  -7.684  29.875  0.00  0.00    +0.210 HD
ENDBRANCH  15  22
BRANCH  14  24
ATOM     24  C   UNL     1       3.668  -6.784  30.159  0.00  0.00    +0.190 C 
BRANCH  24  25
ATOM     25  O   UNL     1       3.214  -7.955  29.471  0.00  0.00    -0.392 OA
ATOM     26  H   UNL     1       3.083  -7.713  28.538  0.00  0.00    +0.210 HD
ENDBRANCH  24  25
ENDBRANCH  14  24
ENDBRANCH  11  12
ENDBRANCH   6  11
BRANCH   3  27
ATOM     27  C   UNL     1       0.582  -0.890  27.863  0.00  0.00    +0.190 C 
BRANCH  27  28
ATOM     28  O   UNL     1       0.443  -2.303  27.894  0.00  0.00    -0.392 OA
ATOM     29  H   UNL     1       0.663  -2.617  28.785  0.00  0.00    +0.210 HD
ENDBRANCH  27  28
ENDBRANCH   3  27
BRANCH   1  30
ATOM     30  O   UNL     1       5.271  -1.339  26.392  0.00  0.00    -0.453 OA
BRANCH  30  41
ATOM     31  C   UNL     1       6.120  -1.564  24.079  0.00  0.00    +0.181 A 
ATOM     32  O   UNL     1       6.624  -0.795  22.992  0.00  0.00    -0.451 OA
ATOM     33  C   UNL     1       7.395   0.300  23.250  0.00  0.00    +0.147 A 
ATOM     34  C   UNL     1       7.337   0.953  24.459  0.00  0.00    +0.109 A 
ATOM     35  C   UNL     1       8.201   1.986  24.783  0.00  0.00    +0.135 A 
ATOM     36  C   UNL     1       9.079   2.454  23.817  0.00  0.00    +0.091 A 
ATOM     37  C   UNL     1       9.048   1.879  22.547  0.00  0.00    +0.124 A 
ATOM     38  C   UNL     1       6.272   0.544  25.337  0.00  0.00    +0.238 A 
ATOM     39  O   UNL     1       5.821   1.343  26.147  0.00  0.00    -0.283 OA
ATOM     40  C   UNL     1       8.233   0.785  22.257  0.00  0.00    +0.092 A 
ATOM     41  C   UNL     1       5.864  -0.890  25.251  0.00  0.00    +0.214 A 
BRANCH  31  43
ATOM     42  C   UNL     1       7.220  -3.731  23.271  0.00  0.00    +0.015 A 
ATOM     43  C   UNL     1       5.990  -3.039  23.544  0.00  0.00    +0.025 A 
ATOM     44  C   UNL     1       4.850  -3.838  23.303  0.00  0.00    +0.060 A 
ATOM     45  C   UNL     1       4.950  -5.192  22.843  0.00  0.00    +0.159 A 
ATOM     46  C   UNL     1       6.195  -5.806  22.614  0.00  0.00    +0.158 A 
ATOM     47  C   UNL     1       7.328  -5.062  22.825  0.00  0.00    +0.050 A 
BRANCH  46  48
ATOM     48  O   UNL     1       6.216  -7.100  22.199  0.00  0.00    -0.503 OA
ATOM     49  H   UNL     1       6.035  -7.673  22.974  0.00  0.00    +0.292 HD
ENDBRANCH  46  48
BRANCH  45  50
ATOM     50  O   UNL     1       3.839  -5.954  22.615  0.00  0.00    -0.503 OA
ATOM     51  H   UNL     1       3.532  -5.710  21.709  0.00  0.00    +0.292 HD
ENDBRANCH  45  50
ENDBRANCH  31  43
BRANCH  37  52
ATOM     52  O   UNL     1       9.814   2.377  21.536  0.00  0.00    -0.507 OA
ATOM     53  H   UNL     1      10.030   1.644  20.934  0.00  0.00    +0.292 HD
ENDBRANCH  37  52
BRANCH  35  54
ATOM     54  O   UNL     1       8.246   2.560  26.023  0.00  0.00    -0.506 OA
ATOM     55  H   UNL     1       8.032   3.516  25.928  0.00  0.00    +0.292 HD
ENDBRANCH  35  54
ENDBRANCH  30  41
ENDBRANCH   1  30
TORSDOF 18
ENDMDL
MODEL 3
REMARK VINA RESULT:      -7.0      2.622      8.253
REMARK  Name = 
REMARK  18 active torsions:
REMARK  status: ('A' for Active; 'I' for Inactive)
REMARK    1  A    between atoms: C_3  and  O_49
REMARK    2  A    between atoms: C_4  and  O_48
REMARK    3  A    between atoms: C_6  and  C_7
REMARK    4  A    between atoms: C_8  and  O_20
REMARK    5  A    between atoms: C_12  and  O_19
REMARK    6  A    between atoms: C_14  and  O_18
REMARK    7  A    between atoms: O_20  and  C_21
REMARK    8  A    between atoms: C_23  and  O_33
REMARK    9  A    between atoms: C_24  and  O_32
REMARK   10  A    between atoms: C_25  and  O_31
REMARK   11  A    between atoms: C_27  and  C_29
REMARK   12  A    between atoms: C_29  and  O_30
REMARK   13  A    between atoms: O_33  and  C_34
REMARK   14  A    between atoms: C_36  and  O_47
REMARK   15  A    between atoms: C_38  and  O_46
REMARK   16  A    between atoms: C_39  and  O_45
REMARK   17  A    between atoms: C_41  and  C_43
REMARK   18  A    between atoms: C_43  and  O_44
REMARK                            x       y       z     vdW  Elec       q    Type
REMARK                         _______ _______ _______ _____ _____    ______ ____
ROOT
ATOM      1  C   UNL     1       5.945   0.203  26.441  0.00  0.00    +0.340 C 
ATOM      2  O   UNL     1       5.334   1.013  27.501  0.00  0.00    -0.331 OA
ATOM      3  C   UNL     1       5.068   2.456  27.330  0.00  0.00    +0.179 C 
ATOM      4  C   UNL     1       4.805   2.933  25.864  0.00  0.00    +0.177 C 
ATOM      5  C   UNL     1       5.087   1.776  24.927  0.00  0.00    +0.180 C 
ATOM      6  C   UNL     1       6.451   1.148  25.389  0.00  0.00    +0.221 C 
ENDROOT
BRANCH   5   7
ATOM      7  O   UNL     1       4.894   2.076  23.603  0.00  0.00    -0.386 OA
ATOM      8  H   UNL     1       4.937   3.027  23.450  0.00  0.00    +0.210 HD
ENDBRANCH   5   7
BRANCH   4   9
ATOM      9  O   UNL     1       5.626   4.032  25.454  0.00  0.00    -0.386 OA
ATOM     10  H   UNL     1       6.305   4.157  26.141  0.00  0.00    +0.210 HD
ENDBRANCH   4   9
BRANCH   6  11
ATOM     11  O   UNL     1       7.419   0.641  24.515  0.00  0.00    -0.337 OA
BRANCH  11  12
ATOM     12  C   UNL     1       8.826   0.534  24.678  0.00  0.00    +0.282 C 
ATOM     13  O   UNL     1       9.369   1.880  24.569  0.00  0.00    -0.341 OA
ATOM     14  C   UNL     1       8.709   2.594  23.504  0.00  0.00    +0.178 C 
ATOM     15  C   UNL     1       8.880   1.876  22.144  0.00  0.00    +0.177 C 
ATOM     16  C   UNL     1       8.777   0.343  22.232  0.00  0.00    +0.179 C 
ATOM     17  C   UNL     1       9.415  -0.240  23.501  0.00  0.00    +0.201 C 
BRANCH  17  18
ATOM     18  O   UNL     1      10.844  -0.187  23.404  0.00  0.00    -0.384 OA
ATOM     19  H   UNL     1      11.127  -0.995  22.929  0.00  0.00    +0.210 HD
ENDBRANCH  17  18
BRANCH  16  20
ATOM     20  O   UNL     1       9.322  -0.247  21.046  0.00  0.00    -0.386 OA
ATOM     21  H   UNL     1       9.631  -1.140  21.305  0.00  0.00    +0.210 HD
ENDBRANCH  16  20
BRANCH  15  22
ATOM     22  O   UNL     1      10.135   2.179  21.524  0.00  0.00    -0.386 OA
ATOM     23  H   UNL     1      10.593   1.310  21.498  0.00  0.00    +0.210 HD
ENDBRANCH  15  22
BRANCH  14  24
ATOM     24  C   UNL     1       9.122   4.066  23.487  0.00  0.00    +0.190 C 
BRANCH  24  25
ATOM     25  O   UNL     1      10.546   4.171  23.378  0.00  0.00    -0.392 OA
ATOM     26  H   UNL     1      10.916   3.284  23.523  0.00  0.00    +0.210 HD
ENDBRANCH  24  25
ENDBRANCH  14  24
ENDBRANCH  11  12
ENDBRANCH   6  11
BRANCH   3  27
ATOM     27  C   UNL     1       6.000   3.487  28.053  0.00  0.00    +0.190 C 
BRANCH  27  28
ATOM     28  O   UNL     1       7.391   3.317  27.820  0.00  0.00    -0.392 OA
ATOM     29  H   UNL     1       7.667   3.932  27.122  0.00  0.00    +0.210 HD
ENDBRANCH  27  28
ENDBRANCH   3  27
BRANCH   1  30
ATOM     30  O   UNL     1       5.095  -0.672  25.557  0.00  0.00    -0.453 OA
BRANCH  30  41
ATOM     31  C   UNL     1       5.357  -3.057  26.163  0.00  0.00    +0.181 A 
ATOM     32  O   UNL     1       4.659  -4.142  26.765  0.00  0.00    -0.451 OA
ATOM     33  C   UNL     1       3.313  -4.260  26.570  0.00  0.00    +0.147 A 
ATOM     34  C   UNL     1       2.539  -3.178  26.223  0.00  0.00    +0.109 A 
ATOM     35  C   UNL     1       1.198  -3.304  25.898  0.00  0.00    +0.135 A 
ATOM     36  C   UNL     1       0.587  -4.541  26.036  0.00  0.00    +0.091 A 
ATOM     37  C   UNL     1       1.341  -5.612  26.515  0.00  0.00    +0.124 A 
ATOM     38  C   UNL     1       3.192  -1.897  26.290  0.00  0.00    +0.238 A 
ATOM     39  O   UNL     1       2.524  -0.893  26.506  0.00  0.00    -0.283 OA
ATOM     40  C   UNL     1       2.710  -5.494  26.759  0.00  0.00    +0.092 A 
ATOM     41  C   UNL     1       4.653  -1.888  25.984  0.00  0.00    +0.214 A 
BRANCH  31  43
ATOM     42  C   UNL     1       7.226  -4.744  26.629  0.00  0.00    +0.015 A 
ATOM     43  C   UNL     1       6.819  -3.575  25.897  0.00  0.00    +0.025 A 
ATOM     44  C   UNL     1       7.824  -3.102  25.025  0.00  0.00    +0.060 A 
ATOM     45  C   UNL     1       9.097  -3.750  24.903  0.00  0.00    +0.159 A 
ATOM     46  C   UNL     1       9.414  -4.903  25.643  0.00  0.00    +0.158 A 
ATOM     47  C   UNL     1       8.471  -5.390  26.512  0.00  0.00    +0.050 A 
BRANCH  46  48
ATOM     48  O   UNL     1      10.633  -5.479  25.462  0.00  0.00    -0.503 OA
ATOM     49  H   UNL     1      10.647  -5.892  24.574  0.00  0.00    +0.292 HD
ENDBRANCH  46  48
BRANCH  45  50
ATOM     50  O   UNL     1      10.060  -3.282  24.053  0.00  0.00    -0.503 OA
ATOM     51  H   UNL     1       9.763  -3.542  23.148  0.00  0.00    +0.292 HD
ENDBRANCH  45  50
ENDBRANCH  31  43
BRANCH  37  52
ATOM     52  O   UNL     1       0.760  -6.818  26.770  0.00  0.00    -0.507 OA
ATOM     53  H   UNL     1      -0.078  -6.654  27.237  0.00  0.00    +0.292 HD
ENDBRANCH  37  52
BRANCH  35  54
ATOM     54  O   UNL     1       0.444  -2.265  25.426  0.00  0.00    -0.506 OA
ATOM     55  H   UNL     1      -0.151  -1.963  26.150  0.00  0.00    +0.292 HD
ENDBRANCH  35  54
ENDBRANCH  30  41
ENDBRANCH   1  30
TORSDOF 18
ENDMDL
MODEL 4
REMARK VINA RESULT:      -6.8      1.114      2.256
REMARK  Name = 
REMARK  18 active torsions:
REMARK  status: ('A' for Active; 'I' for Inactive)
REMARK    1  A    between atoms: C_3  and  O_49
REMARK    2  A    between atoms: C_4  and  O_48
REMARK    3  A    between atoms: C_6  and  C_7
REMARK    4  A    between atoms: C_8  and  O_20
REMARK    5  A    between atoms: C_12  and  O_19
REMARK    6  A    between atoms: C_14  and  O_18
REMARK    7  A    between atoms: O_20  and  C_21
REMARK    8  A    between atoms: C_23  and  O_33
REMARK    9  A    between atoms: C_24  and  O_32
REMARK   10  A    between atoms: C_25  and  O_31
REMARK   11  A    between atoms: C_27  and  C_29
REMARK   12  A    between atoms: C_29  and  O_30
REMARK   13  A    between atoms: O_33  and  C_34
REMARK   14  A    between atoms: C_36  and  O_47
REMARK   15  A    between atoms: C_38  and  O_46
REMARK   16  A    between atoms: C_39  and  O_45
REMARK   17  A    between atoms: C_41  and  C_43
REMARK   18  A    between atoms: C_43  and  O_44
REMARK                            x       y       z     vdW  Elec       q    Type
REMARK                         _______ _______ _______ _____ _____    ______ ____
ROOT
ATOM      1  C   UNL     1       5.966  -3.073  26.960  0.00  0.00    +0.340 C 
ATOM      2  O   UNL     1       5.404  -3.199  28.309  0.00  0.00    -0.331 OA
ATOM      3  C   UNL     1       5.166  -4.514  28.940  0.00  0.00    +0.179 C 
ATOM      4  C   UNL     1       6.110  -5.673  28.478  0.00  0.00    +0.177 C 
ATOM      5  C   UNL     1       6.942  -5.176  27.313  0.00  0.00    +0.180 C 
ATOM      6  C   UNL     1       5.954  -4.440  26.339  0.00  0.00    +0.221 C 
ENDROOT
BRANCH   5   7
ATOM      7  O   UNL     1       7.812  -6.112  26.816  0.00  0.00    -0.386 OA
ATOM      8  H   UNL     1       8.520  -5.698  26.310  0.00  0.00    +0.210 HD
ENDBRANCH   5   7
BRANCH   4   9
ATOM      9  O   UNL     1       5.418  -6.849  28.045  0.00  0.00    -0.386 OA
ATOM     10  H   UNL     1       4.898  -6.605  27.258  0.00  0.00    +0.210 HD
ENDBRANCH   4   9
BRANCH   6  11
ATOM     11  O   UNL     1       6.046  -4.487  24.944  0.00  0.00    -0.337 OA
BRANCH  11  12
ATOM     12  C   UNL     1       7.140  -4.855  24.116  0.00  0.00    +0.282 C 
ATOM     13  O   UNL     1       7.470  -3.690  23.307  0.00  0.00    -0.341 OA
ATOM     14  C   UNL     1       6.263  -3.049  22.849  0.00  0.00    +0.178 C 
ATOM     15  C   UNL     1       5.390  -4.010  22.007  0.00  0.00    +0.177 C 
ATOM     16  C   UNL     1       5.348  -5.450  22.550  0.00  0.00    +0.179 C 
ATOM     17  C   UNL     1       6.689  -5.925  23.126  0.00  0.00    +0.201 C 
BRANCH  17  18
ATOM     18  O   UNL     1       7.616  -6.188  22.064  0.00  0.00    -0.384 OA
ATOM     19  H   UNL     1       8.415  -5.652  22.244  0.00  0.00    +0.210 HD
ENDBRANCH  17  18
BRANCH  16  20
ATOM     20  O   UNL     1       4.863  -6.335  21.533  0.00  0.00    -0.386 OA
ATOM     21  H   UNL     1       5.192  -5.976  20.683  0.00  0.00    +0.210 HD
ENDBRANCH  16  20
BRANCH  15  22
ATOM     22  O   UNL     1       5.826  -4.086  20.645  0.00  0.00    -0.386 OA
ATOM     23  H   UNL     1       5.794  -5.048  20.448  0.00  0.00    +0.210 HD
ENDBRANCH  15  22
BRANCH  14  24
ATOM     24  C   UNL     1       6.571  -1.720  22.158  0.00  0.00    +0.190 C 
BRANCH  24  25
ATOM     25  O   UNL     1       6.097  -0.633  22.960  0.00  0.00    -0.392 OA
ATOM     26  H   UNL     1       6.791  -0.424  23.608  0.00  0.00    +0.210 HD
ENDBRANCH  24  25
ENDBRANCH  14  24
ENDBRANCH  11  12
ENDBRANCH   6  11
BRANCH   3  27
ATOM     27  C   UNL     1       3.697  -5.049  29.042  0.00  0.00    +0.190 C 
BRANCH  27  28
ATOM     28  O   UNL     1       2.995  -5.137  27.810  0.00  0.00    -0.392 OA
ATOM     29  H   UNL     1       2.645  -6.037  27.715  0.00  0.00    +0.210 HD
ENDBRANCH  27  28
ENDBRANCH   3  27
BRANCH   1  30
ATOM     30  O   UNL     1       7.426  -2.756  26.764  0.00  0.00    -0.453 OA
BRANCH  30  41
ATOM     31  C   UNL     1       7.265  -0.339  26.263  0.00  0.00    +0.181 A 
ATOM     32  O   UNL     1       7.984   0.728  25.653  0.00  0.00    -0.451 OA
ATOM     33  C   UNL     1       8.752   0.473  24.554  0.00  0.00    +0.147 A 
ATOM     34  C   UNL     1       9.224  -0.789  24.283  0.00  0.00    +0.109 A 
ATOM     35  C   UNL     1       9.896  -1.091  23.110  0.00  0.00    +0.135 A 
ATOM     36  C   UNL     1      10.201  -0.064  22.229  0.00  0.00    +0.091 A 
ATOM     37  C   UNL     1       9.837   1.239  22.565  0.00  0.00    +0.124 A 
ATOM     38  C   UNL     1       9.042  -1.761  25.330  0.00  0.00    +0.238 A 
ATOM     39  O   UNL     1       9.825  -2.697  25.424  0.00  0.00    -0.283 OA
ATOM     40  C   UNL     1       9.089   1.519  23.709  0.00  0.00    +0.092 A 
ATOM     41  C   UNL     1       7.823  -1.594  26.176  0.00  0.00    +0.214 A 
BRANCH  31  43
ATOM     42  C   UNL     1       6.150   0.909  28.202  0.00  0.00    +0.015 A 
ATOM     43  C   UNL     1       5.984   0.312  26.904  0.00  0.00    +0.025 A 
ATOM     44  C   UNL     1       4.667   0.443  26.409  0.00  0.00    +0.060 A 
ATOM     45  C   UNL     1       3.637   1.115  27.148  0.00  0.00    +0.159 A 
ATOM     46  C   UNL     1       3.884   1.689  28.407  0.00  0.00    +0.158 A 
ATOM     47  C   UNL     1       5.147   1.575  28.930  0.00  0.00    +0.050 A 
BRANCH  46  48
ATOM     48  O   UNL     1       2.867   2.330  29.042  0.00  0.00    -0.503 OA
ATOM     49  H   UNL     1       3.184   2.609  29.926  0.00  0.00    +0.292 HD
ENDBRANCH  46  48
BRANCH  45  50
ATOM     50  O   UNL     1       2.368   1.236  26.656  0.00  0.00    -0.503 OA
ATOM     51  H   UNL     1       1.847   1.672  27.372  0.00  0.00    +0.292 HD
ENDBRANCH  45  50
ENDBRANCH  31  43
BRANCH  37  52
ATOM     52  O   UNL     1      10.211   2.293  21.785  0.00  0.00    -0.507 OA
ATOM     53  H   UNL     1      11.000   2.697  22.185  0.00  0.00    +0.292 HD
ENDBRANCH  37  52
BRANCH  35  54
ATOM     54  O   UNL     1      10.259  -2.363  22.763  0.00  0.00    -0.506 OA
ATOM     55  H   UNL     1      10.602  -2.816  23.567  0.00  0.00    +0.292 HD
ENDBRANCH  35  54
ENDBRANCH  30  41
ENDBRANCH   1  30
TORSDOF 18
ENDMDL
MODEL 5
REMARK VINA RESULT:      -6.8      2.494      6.616
REMARK  Name = 
REMARK  18 active torsions:
REMARK  status: ('A' for Active; 'I' for Inactive)
REMARK    1  A    between atoms: C_3  and  O_49
REMARK    2  A    between atoms: C_4  and  O_48
REMARK    3  A    between atoms: C_6  and  C_7
REMARK    4  A    between atoms: C_8  and  O_20
REMARK    5  A    between atoms: C_12  and  O_19
REMARK    6  A    between atoms: C_14  and  O_18
REMARK    7  A    between atoms: O_20  and  C_21
REMARK    8  A    between atoms: C_23  and  O_33
REMARK    9  A    between atoms: C_24  and  O_32
REMARK   10  A    between atoms: C_25  and  O_31
REMARK   11  A    between atoms: C_27  and  C_29
REMARK   12  A    between atoms: C_29  and  O_30
REMARK   13  A    between atoms: O_33  and  C_34
REMARK   14  A    between atoms: C_36  and  O_47
REMARK   15  A    between atoms: C_38  and  O_46
REMARK   16  A    between atoms: C_39  and  O_45
REMARK   17  A    between atoms: C_41  and  C_43
REMARK   18  A    between atoms: C_43  and  O_44
REMARK                            x       y       z     vdW  Elec       q    Type
REMARK                         _______ _______ _______ _____ _____    ______ ____
ROOT
ATOM      1  C   UNL     1       7.950  -0.149  25.420  0.00  0.00    +0.340 C 
ATOM      2  O   UNL     1       8.479   1.163  25.032  0.00  0.00    -0.331 OA
ATOM      3  C   UNL     1       9.345   1.339  23.847  0.00  0.00    +0.179 C 
ATOM      4  C   UNL     1       9.131   0.313  22.687  0.00  0.00    +0.177 C 
ATOM      5  C   UNL     1       8.179  -0.762  23.168  0.00  0.00    +0.180 C 
ATOM      6  C   UNL     1       8.666  -1.183  24.601  0.00  0.00    +0.221 C 
ENDROOT
BRANCH   5   7
ATOM      7  O   UNL     1       7.915  -1.728  22.231  0.00  0.00    -0.386 OA
ATOM      8  H   UNL     1       8.729  -2.090  21.863  0.00  0.00    +0.210 HD
ENDBRANCH   5   7
BRANCH   4   9
ATOM      9  O   UNL     1      10.332  -0.335  22.255  0.00  0.00    -0.386 OA
ATOM     10  H   UNL     1      10.262  -0.460  21.291  0.00  0.00    +0.210 HD
ENDBRANCH   4   9
BRANCH   6  11
ATOM     11  O   UNL     1       8.630  -2.494  25.089  0.00  0.00    -0.337 OA
BRANCH  11  12
ATOM     12  C   UNL     1       9.131  -3.693  24.514  0.00  0.00    +0.282 C 
ATOM     13  O   UNL     1       8.073  -4.233  23.672  0.00  0.00    -0.341 OA
ATOM     14  C   UNL     1       6.798  -4.099  24.334  0.00  0.00    +0.178 C 
ATOM     15  C   UNL     1       6.781  -4.839  25.693  0.00  0.00    +0.177 C 
ATOM     16  C   UNL     1       8.089  -4.703  26.492  0.00  0.00    +0.179 C 
ATOM     17  C   UNL     1       9.347  -4.730  25.613  0.00  0.00    +0.201 C 
BRANCH  17  18
ATOM     18  O   UNL     1       9.591  -6.061  25.141  0.00  0.00    -0.384 OA
ATOM     19  H   UNL     1       9.324  -6.083  24.199  0.00  0.00    +0.210 HD
ENDBRANCH  17  18
BRANCH  16  20
ATOM     20  O   UNL     1       8.136  -5.706  27.515  0.00  0.00    -0.386 OA
ATOM     21  H   UNL     1       7.821  -5.271  28.335  0.00  0.00    +0.210 HD
ENDBRANCH  16  20
BRANCH  15  22
ATOM     22  O   UNL     1       6.518  -6.238  25.546  0.00  0.00    -0.386 OA
ATOM     23  H   UNL     1       6.398  -6.347  24.576  0.00  0.00    +0.210 HD
ENDBRANCH  15  22
BRANCH  14  24
ATOM     24  C   UNL     1       5.648  -4.482  23.402  0.00  0.00    +0.190 C 
BRANCH  24  25
ATOM     25  O   UNL     1       5.870  -3.927  22.101  0.00  0.00    -0.392 OA
ATOM     26  H   UNL     1       5.138  -4.216  21.531  0.00  0.00    +0.210 HD
ENDBRANCH  24  25
ENDBRANCH  14  24
ENDBRANCH  11  12
ENDBRANCH   6  11
BRANCH   3  27
ATOM     27  C   UNL     1      10.880   1.569  24.062  0.00  0.00    +0.190 C 
BRANCH  27  28
ATOM     28  O   UNL     1      11.546   0.568  24.817  0.00  0.00    -0.392 OA
ATOM     29  H   UNL     1      11.549  -0.256  24.306  0.00  0.00    +0.210 HD
ENDBRANCH  27  28
ENDBRANCH   3  27
BRANCH   1  30
ATOM     30  O   UNL     1       6.536  -0.539  25.077  0.00  0.00    -0.453 OA
BRANCH  30  41
ATOM     31  C   UNL     1       5.131   1.496  25.167  0.00  0.00    +0.181 A 
ATOM     32  O   UNL     1       3.879   1.971  25.651  0.00  0.00    -0.451 OA
ATOM     33  C   UNL     1       3.395   1.492  26.833  0.00  0.00    +0.147 A 
ATOM     34  C   UNL     1       3.804   0.281  27.340  0.00  0.00    +0.109 A 
ATOM     35  C   UNL     1       3.421  -0.161  28.596  0.00  0.00    +0.135 A 
ATOM     36  C   UNL     1       2.506   0.587  29.321  0.00  0.00    +0.091 A 
ATOM     37  C   UNL     1       1.990   1.751  28.751  0.00  0.00    +0.124 A 
ATOM     38  C   UNL     1       4.595  -0.531  26.453  0.00  0.00    +0.238 A 
ATOM     39  O   UNL     1       4.573  -1.749  26.573  0.00  0.00    -0.283 OA
ATOM     40  C   UNL     1       2.445   2.230  27.522  0.00  0.00    +0.092 A 
ATOM     41  C   UNL     1       5.476   0.206  25.499  0.00  0.00    +0.214 A 
BRANCH  31  43
ATOM     42  C   UNL     1       6.042   2.400  22.951  0.00  0.00    +0.015 A 
ATOM     43  C   UNL     1       5.750   2.677  24.331  0.00  0.00    +0.025 A 
ATOM     44  C   UNL     1       6.055   4.008  24.696  0.00  0.00    +0.060 A 
ATOM     45  C   UNL     1       6.589   4.953  23.759  0.00  0.00    +0.159 A 
ATOM     46  C   UNL     1       6.832   4.609  22.417  0.00  0.00    +0.158 A 
ATOM     47  C   UNL     1       6.560   3.323  22.023  0.00  0.00    +0.050 A 
BRANCH  46  48
ATOM     48  O   UNL     1       7.318   5.561  21.578  0.00  0.00    -0.503 OA
ATOM     49  H   UNL     1       6.997   5.366  20.673  0.00  0.00    +0.292 HD
ENDBRANCH  46  48
BRANCH  45  50
ATOM     50  O   UNL     1       6.878   6.238  24.125  0.00  0.00    -0.503 OA
ATOM     51  H   UNL     1       6.082   6.560  24.611  0.00  0.00    +0.292 HD
ENDBRANCH  45  50
ENDBRANCH  31  43
BRANCH  37  52
ATOM     52  O   UNL     1       1.008   2.460  29.377  0.00  0.00    -0.507 OA
ATOM     53  H   UNL     1       1.213   3.406  29.279  0.00  0.00    +0.292 HD
ENDBRANCH  37  52
BRANCH  35  54
ATOM     54  O   UNL     1       3.918  -1.298  29.171  0.00  0.00    -0.506 OA
ATOM     55  H   UNL     1       4.890  -1.321  29.018  0.00  0.00    +0.292 HD
ENDBRANCH  35  54
ENDBRANCH  30  41
ENDBRANCH   1  30
TORSDOF 18
ENDMDL
MODEL 6
REMARK VINA RESULT:      -6.7      1.749      2.625
REMARK  Name = 
REMARK  18 active torsions:
REMARK  status: ('A' for Active; 'I' for Inactive)
REMARK    1  A    between atoms: C_3  and  O_49
REMARK    2  A    between atoms: C_4  and  O_48
REMARK    3  A    between atoms: C_6  and  C_7
REMARK    4  A    between atoms: C_8  and  O_20
REMARK    5  A    between atoms: C_12  and  O_19
REMARK    6  A    between atoms: C_14  and  O_18
REMARK    7  A    between atoms: O_20  and  C_21
REMARK    8  A    between atoms: C_23  and  O_33
REMARK    9  A    between atoms: C_24  and  O_32
REMARK   10  A    between atoms: C_25  and  O_31
REMARK   11  A    between atoms: C_27  and  C_29
REMARK   12  A    between atoms: C_29  and  O_30
REMARK   13  A    between atoms: O_33  and  C_34
REMARK   14  A    between atoms: C_36  and  O_47
REMARK   15  A    between atoms: C_38  and  O_46
REMARK   16  A    between atoms: C_39  and  O_45
REMARK   17  A    between atoms: C_41  and  C_43
REMARK   18  A    between atoms: C_43  and  O_44
REMARK                            x       y       z     vdW  Elec       q    Type
REMARK                         _______ _______ _______ _____ _____    ______ ____
ROOT
ATOM      1  C   UNL     1       4.807  -1.667  26.526  0.00  0.00    +0.340 C 
ATOM      2  O   UNL     1       4.003  -1.329  27.706  0.00  0.00    -0.331 OA
ATOM      3  C   UNL     1       3.480  -2.365  28.621  0.00  0.00    +0.179 C 
ATOM      4  C   UNL     1       4.324  -3.678  28.718  0.00  0.00    +0.177 C 
ATOM      5  C   UNL     1       5.408  -3.629  27.661  0.00  0.00    +0.180 C 
ATOM      6  C   UNL     1       4.718  -3.153  26.333  0.00  0.00    +0.221 C 
ENDROOT
BRANCH   5   7
ATOM      7  O   UNL     1       6.217  -4.737  27.646  0.00  0.00    -0.386 OA
ATOM      8  H   UNL     1       6.063  -5.271  26.859  0.00  0.00    +0.210 HD
ENDBRANCH   5   7
BRANCH   4   9
ATOM      9  O   UNL     1       3.565  -4.873  28.504  0.00  0.00    -0.386 OA
ATOM     10  H   UNL     1       4.091  -5.616  28.853  0.00  0.00    +0.210 HD
ENDBRANCH   4   9
BRANCH   6  11
ATOM     11  O   UNL     1       5.049  -3.634  25.061  0.00  0.00    -0.337 OA
BRANCH  11  12
ATOM     12  C   UNL     1       4.847  -4.920  24.493  0.00  0.00    +0.282 C 
ATOM     13  O   UNL     1       6.110  -5.636  24.608  0.00  0.00    -0.341 OA
ATOM     14  C   UNL     1       7.208  -4.755  24.298  0.00  0.00    +0.178 C 
ATOM     15  C   UNL     1       7.089  -4.179  22.865  0.00  0.00    +0.177 C 
ATOM     16  C   UNL     1       5.652  -3.803  22.463  0.00  0.00    +0.179 C 
ATOM     17  C   UNL     1       4.593  -4.779  22.995  0.00  0.00    +0.201 C 
BRANCH  17  18
ATOM     18  O   UNL     1       4.643  -6.009  22.260  0.00  0.00    -0.384 OA
ATOM     19  H   UNL     1       5.038  -6.679  22.854  0.00  0.00    +0.210 HD
ENDBRANCH  17  18
BRANCH  16  20
ATOM     20  O   UNL     1       5.572  -3.658  21.039  0.00  0.00    -0.386 OA
ATOM     21  H   UNL     1       4.908  -4.312  20.738  0.00  0.00    +0.210 HD
ENDBRANCH  16  20
BRANCH  15  22
ATOM     22  O   UNL     1       7.582  -5.087  21.874  0.00  0.00    -0.386 OA
ATOM     23  H   UNL     1       7.517  -5.963  22.314  0.00  0.00    +0.210 HD
ENDBRANCH  15  22
BRANCH  14  24
ATOM     24  C   UNL     1       8.552  -5.421  24.591  0.00  0.00    +0.190 C 
BRANCH  24  25
ATOM     25  O   UNL     1       9.616  -4.488  24.372  0.00  0.00    -0.392 OA
ATOM     26  H   UNL     1      10.444  -4.995  24.321  0.00  0.00    +0.210 HD
ENDBRANCH  24  25
ENDBRANCH  14  24
ENDBRANCH  11  12
ENDBRANCH   6  11
BRANCH   3  27
ATOM     27  C   UNL     1       1.957  -2.728  28.561  0.00  0.00    +0.190 C 
BRANCH  27  28
ATOM     28  O   UNL     1       1.481  -3.143  27.290  0.00  0.00    -0.392 OA
ATOM     29  H   UNL     1       0.745  -2.567  27.030  0.00  0.00    +0.210 HD
ENDBRANCH  27  28
ENDBRANCH   3  27
BRANCH   1  30
ATOM     30  O   UNL     1       6.307  -1.539  26.558  0.00  0.00    -0.453 OA
BRANCH  30  41
ATOM     31  C   UNL     1       6.574   0.790  25.767  0.00  0.00    +0.181 A 
ATOM     32  O   UNL     1       7.514   1.660  25.147  0.00  0.00    -0.451 OA
ATOM     33  C   UNL     1       8.365   1.162  24.205  0.00  0.00    +0.147 A 
ATOM     34  C   UNL     1       8.674  -0.177  24.149  0.00  0.00    +0.109 A 
ATOM     35  C   UNL     1       9.433  -0.718  23.125  0.00  0.00    +0.135 A 
ATOM     36  C   UNL     1       9.996   0.132  22.185  0.00  0.00    +0.091 A 
ATOM     37  C   UNL     1       9.792   1.505  22.316  0.00  0.00    +0.124 A 
ATOM     38  C   UNL     1       8.220  -0.967  25.264  0.00  0.00    +0.238 A 
ATOM     39  O   UNL     1       8.836  -1.979  25.574  0.00  0.00    -0.283 OA
ATOM     40  C   UNL     1       8.957   2.032  23.302  0.00  0.00    +0.092 A 
ATOM     41  C   UNL     1       6.943  -0.528  25.903  0.00  0.00    +0.214 A 
BRANCH  31  43
ATOM     42  C   UNL     1       4.603   2.257  25.043  0.00  0.00    +0.015 A 
ATOM     43  C   UNL     1       5.334   1.685  26.141  0.00  0.00    +0.025 A 
ATOM     44  C   UNL     1       4.778   2.016  27.397  0.00  0.00    +0.060 A 
ATOM     45  C   UNL     1       3.605   2.830  27.521  0.00  0.00    +0.159 A 
ATOM     46  C   UNL     1       2.934   3.339  26.395  0.00  0.00    +0.158 A 
ATOM     47  C   UNL     1       3.447   3.051  25.156  0.00  0.00    +0.050 A 
BRANCH  46  48
ATOM     48  O   UNL     1       1.814   4.086  26.586  0.00  0.00    -0.503 OA
ATOM     49  H   UNL     1       1.171   3.860  25.882  0.00  0.00    +0.292 HD
ENDBRANCH  46  48
BRANCH  45  50
ATOM     50  O   UNL     1       3.076   3.142  28.743  0.00  0.00    -0.503 OA
ATOM     51  H   UNL     1       3.746   2.844  29.405  0.00  0.00    +0.292 HD
ENDBRANCH  45  50
ENDBRANCH  31  43
BRANCH  37  52
ATOM     52  O   UNL     1      10.413   2.387  21.482  0.00  0.00    -0.507 OA
ATOM     53  H   UNL     1       9.916   2.411  20.646  0.00  0.00    +0.292 HD
ENDBRANCH  37  52
BRANCH  35  54
ATOM     54  O   UNL     1       9.642  -2.062  22.981  0.00  0.00    -0.506 OA
ATOM     55  H   UNL     1       9.831  -2.442  23.870  0.00  0.00    +0.292 HD
ENDBRANCH  35  54
ENDBRANCH  30  41
ENDBRANCH   1  30
TORSDOF 18
ENDMDL
MODEL 7
REMARK VINA RESULT:      -6.7      2.811      7.708
REMARK  Name = 
REMARK  18 active torsions:
REMARK  status: ('A' for Active; 'I' for Inactive)
REMARK    1  A    between atoms: C_3  and  O_49
REMARK    2  A    between atoms: C_4  and  O_48
REMARK    3  A    between atoms: C_6  and  C_7
REMARK    4  A    between atoms: C_8  and  O_20
REMARK    5  A    between atoms: C_12  and  O_19
REMARK    6  A    between atoms: C_14  and  O_18
REMARK    7  A    between atoms: O_20  and  C_21
REMARK    8  A    between atoms: C_23  and  O_33
REMARK    9  A    between atoms: C_24  and  O_32
REMARK   10  A    between atoms: C_25  and  O_31
REMARK   11  A    between atoms: C_27  and  C_29
REMARK   12  A    between atoms: C_29  and  O_30
REMARK   13  A    between atoms: O_33  and  C_34
REMARK   14  A    between atoms: C_36  and  O_47
REMARK   15  A    between atoms: C_38  and  O_46
REMARK   16  A    between atoms: C_39  and  O_45
REMARK   17  A    between atoms: C_41  and  C_43
REMARK   18  A    between atoms: C_43  and  O_44
REMARK                            x       y       z     vdW  Elec       q    Type
REMARK                         _______ _______ _______ _____ _____    ______ ____
ROOT
ATOM      1  C   UNL     1       6.535   0.749  26.713  0.00  0.00    +0.340 C 
ATOM      2  O   UNL     1       6.810   0.357  28.100  0.00  0.00    -0.331 OA
ATOM      3  C   UNL     1       6.179   1.041  29.248  0.00  0.00    +0.179 C 
ATOM      4  C   UNL     1       4.773   1.670  28.978  0.00  0.00    +0.177 C 
ATOM      5  C   UNL     1       4.485   1.579  27.494  0.00  0.00    +0.180 C 
ATOM      6  C   UNL     1       5.788   2.051  26.754  0.00  0.00    +0.221 C 
ENDROOT
BRANCH   5   7
ATOM      7  O   UNL     1       3.271   2.106  27.132  0.00  0.00    -0.386 OA
ATOM      8  H   UNL     1       3.137   2.977  27.524  0.00  0.00    +0.210 HD
ENDBRANCH   5   7
BRANCH   4   9
ATOM      9  O   UNL     1       4.671   3.048  29.354  0.00  0.00    -0.386 OA
ATOM     10  H   UNL     1       5.011   3.577  28.610  0.00  0.00    +0.210 HD
ENDBRANCH   4   9
BRANCH   6  11
ATOM     11  O   UNL     1       5.792   2.805  25.576  0.00  0.00    -0.337 OA
BRANCH  11  12
ATOM     12  C   UNL     1       5.627   4.204  25.390  0.00  0.00    +0.282 C 
ATOM     13  O   UNL     1       4.679   4.377  24.298  0.00  0.00    -0.341 OA
ATOM     14  C   UNL     1       4.956   3.428  23.249  0.00  0.00    +0.178 C 
ATOM     15  C   UNL     1       6.392   3.593  22.695  0.00  0.00    +0.177 C 
ATOM     16  C   UNL     1       7.447   3.885  23.777  0.00  0.00    +0.179 C 
ATOM     17  C   UNL     1       6.937   4.808  24.893  0.00  0.00    +0.201 C 
BRANCH  17  18
ATOM     18  O   UNL     1       6.832   6.154  24.411  0.00  0.00    -0.384 OA
ATOM     19  H   UNL     1       5.898   6.425  24.525  0.00  0.00    +0.210 HD
ENDBRANCH  17  18
BRANCH  16  20
ATOM     20  O   UNL     1       8.636   4.401  23.165  0.00  0.00    -0.386 OA
ATOM     21  H   UNL     1       8.377   4.677  22.261  0.00  0.00    +0.210 HD
ENDBRANCH  16  20
BRANCH  15  22
ATOM     22  O   UNL     1       6.481   4.641  21.723  0.00  0.00    -0.386 OA
ATOM     23  H   UNL     1       6.501   5.458  22.270  0.00  0.00    +0.210 HD
ENDBRANCH  15  22
BRANCH  14  24
ATOM     24  C   UNL     1       3.868   3.456  22.175  0.00  0.00    +0.190 C 
BRANCH  24  25
ATOM     25  O   UNL     1       3.643   4.804  21.746  0.00  0.00    -0.392 OA
ATOM     26  H   UNL     1       4.310   5.009  21.068  0.00  0.00    +0.210 HD
ENDBRANCH  24  25
ENDBRANCH  14  24
ENDBRANCH  11  12
ENDBRANCH   6  11
BRANCH   3  27
ATOM     27  C   UNL     1       7.039   2.034  30.101  0.00  0.00    +0.190 C 
BRANCH  27  28
ATOM     28  O   UNL     1       7.697   3.055  29.366  0.00  0.00    -0.392 OA
ATOM     29  H   UNL     1       7.466   3.914  29.752  0.00  0.00    +0.210 HD
ENDBRANCH  27  28
ENDBRANCH   3  27
BRANCH   1  30
ATOM     30  O   UNL     1       5.561  -0.035  25.873  0.00  0.00    -0.453 OA
BRANCH  30  41
ATOM     31  C   UNL     1       7.026  -1.206  24.259  0.00  0.00    +0.181 A 
ATOM     32  O   UNL     1       7.304  -2.499  23.734  0.00  0.00    -0.451 OA
ATOM     33  C   UNL     1       6.280  -3.385  23.562  0.00  0.00    +0.147 A 
ATOM     34  C   UNL     1       5.107  -3.274  24.270  0.00  0.00    +0.109 A 
ATOM     35  C   UNL     1       4.012  -4.084  24.019  0.00  0.00    +0.135 A 
ATOM     36  C   UNL     1       4.138  -5.116  23.101  0.00  0.00    +0.091 A 
ATOM     37  C   UNL     1       5.370  -5.312  22.477  0.00  0.00    +0.124 A 
ATOM     38  C   UNL     1       5.114  -2.311  25.341  0.00  0.00    +0.238 A 
ATOM     39  O   UNL     1       4.379  -2.479  26.306  0.00  0.00    -0.283 OA
ATOM     40  C   UNL     1       6.440  -4.439  22.676  0.00  0.00    +0.092 A 
ATOM     41  C   UNL     1       5.969  -1.104  25.133  0.00  0.00    +0.214 A 
BRANCH  31  43
ATOM     42  C   UNL     1       7.916   0.140  22.270  0.00  0.00    +0.015 A 
ATOM     43  C   UNL     1       8.110  -0.245  23.642  0.00  0.00    +0.025 A 
ATOM     44  C   UNL     1       9.257   0.346  24.217  0.00  0.00    +0.060 A 
ATOM     45  C   UNL     1      10.107   1.236  23.481  0.00  0.00    +0.159 A 
ATOM     46  C   UNL     1       9.839   1.579  22.144  0.00  0.00    +0.158 A 
ATOM     47  C   UNL     1       8.741   1.018  21.543  0.00  0.00    +0.050 A 
BRANCH  46  48
ATOM     48  O   UNL     1      10.676   2.446  21.514  0.00  0.00    -0.503 OA
ATOM     49  H   UNL     1      11.489   2.535  22.054  0.00  0.00    +0.292 HD
ENDBRANCH  46  48
BRANCH  45  50
ATOM     50  O   UNL     1      11.213   1.802  24.051  0.00  0.00    -0.503 OA
ATOM     51  H   UNL     1      11.795   2.062  23.297  0.00  0.00    +0.292 HD
ENDBRANCH  45  50
ENDBRANCH  31  43
BRANCH  37  52
ATOM     52  O   UNL     1       5.574  -6.377  21.651  0.00  0.00    -0.507 OA
ATOM     53  H   UNL     1       6.332  -6.881  21.993  0.00  0.00    +0.292 HD
ENDBRANCH  37  52
BRANCH  35  54
ATOM     54  O   UNL     1       2.797  -3.906  24.620  0.00  0.00    -0.506 OA
ATOM     55  H   UNL     1       2.385  -3.093  24.246  0.00  0.00    +0.292 HD
ENDBRANCH  35  54
ENDBRANCH  30  41
ENDBRANCH   1  30
TORSDOF 18
ENDMDL
MODEL 8
REMARK VINA RESULT:      -6.6      1.879      6.030
REMARK  Name = 
REMARK  18 active torsions:
REMARK  status: ('A' for Active; 'I' for Inactive)
REMARK    1  A    between atoms: C_3  and  O_49
REMARK    2  A    between atoms: C_4  and  O_48
REMARK    3  A    between atoms: C_6  and  C_7
REMARK    4  A    between atoms: C_8  and  O_20
REMARK    5  A    between atoms: C_12  and  O_19
REMARK    6  A    between atoms: C_14  and  O_18
REMARK    7  A    between atoms: O_20  and  C_21
REMARK    8  A    between atoms: C_23  and  O_33
REMARK    9  A    between atoms: C_24  and  O_32
REMARK   10  A    between atoms: C_25  and  O_31
REMARK   11  A    between atoms: C_27  and  C_29
REMARK   12  A    between atoms: C_29  and  O_30
REMARK   13  A    between atoms: O_33  and  C_34
REMARK   14  A    between atoms: C_36  and  O_47
REMARK   15  A    between atoms: C_38  and  O_46
REMARK   16  A    between atoms: C_39  and  O_45
REMARK   17  A    between atoms: C_41  and  C_43
REMARK   18  A    between atoms: C_43  and  O_44
REMARK                            x       y       z     vdW  Elec       q    Type
REMARK                         _______ _______ _______ _____ _____    ______ ____
ROOT
ATOM      1  C   UNL     1       6.185  -3.215  25.253  0.00  0.00    +0.340 C 
ATOM      2  O   UNL     1       7.646  -3.316  25.167  0.00  0.00    -0.331 OA
ATOM      3  C   UNL     1       8.315  -4.187  24.178  0.00  0.00    +0.179 C 
ATOM      4  C   UNL     1       7.529  -4.439  22.849  0.00  0.00    +0.177 C 
ATOM      5  C   UNL     1       6.140  -3.853  22.997  0.00  0.00    +0.180 C 
ATOM      6  C   UNL     1       5.608  -4.310  24.403  0.00  0.00    +0.221 C 
ENDROOT
BRANCH   5   7
ATOM      7  O   UNL     1       5.349  -4.017  21.888  0.00  0.00    -0.386 OA
ATOM      8  H   UNL     1       5.840  -4.427  21.166  0.00  0.00    +0.210 HD
ENDBRANCH   5   7
BRANCH   4   9
ATOM      9  O   UNL     1       7.382  -5.823  22.515  0.00  0.00    -0.386 OA
ATOM     10  H   UNL     1       6.845  -6.234  23.216  0.00  0.00    +0.210 HD
ENDBRANCH   4   9
BRANCH   6  11
ATOM     11  O   UNL     1       4.279  -4.662  24.663  0.00  0.00    -0.337 OA
BRANCH  11  12
ATOM     12  C   UNL     1       3.603  -5.891  24.439  0.00  0.00    +0.282 C 
ATOM     13  O   UNL     1       2.264  -5.744  24.991  0.00  0.00    -0.341 OA
ATOM     14  C   UNL     1       2.323  -5.048  26.252  0.00  0.00    +0.178 C 
ATOM     15  C   UNL     1       3.206  -5.799  27.278  0.00  0.00    +0.177 C 
ATOM     16  C   UNL     1       4.478  -6.416  26.671  0.00  0.00    +0.179 C 
ATOM     17  C   UNL     1       4.265  -6.992  25.263  0.00  0.00    +0.201 C 
BRANCH  17  18
ATOM     18  O   UNL     1       3.521  -8.215  25.339  0.00  0.00    -0.384 OA
ATOM     19  H   UNL     1       2.823  -8.082  26.013  0.00  0.00    +0.210 HD
ENDBRANCH  17  18
BRANCH  16  20
ATOM     20  O   UNL     1       5.016  -7.394  27.568  0.00  0.00    -0.386 OA
ATOM     21  H   UNL     1       4.251  -7.764  28.056  0.00  0.00    +0.210 HD
ENDBRANCH  16  20
BRANCH  15  22
ATOM     22  O   UNL     1       2.496  -6.855  27.934  0.00  0.00    -0.386 OA
ATOM     23  H   UNL     1       1.556  -6.574  27.869  0.00  0.00    +0.210 HD
ENDBRANCH  15  22
BRANCH  14  24
ATOM     24  C   UNL     1       0.922  -4.711  26.765  0.00  0.00    +0.190 C 
BRANCH  24  25
ATOM     25  O   UNL     1       0.966  -4.467  28.175  0.00  0.00    -0.392 OA
ATOM     26  H   UNL     1       0.133  -4.030  28.422  0.00  0.00    +0.210 HD
ENDBRANCH  24  25
ENDBRANCH  14  24
ENDBRANCH  11  12
ENDBRANCH   6  11
BRANCH   3  27
ATOM     27  C   UNL     1       8.956  -5.530  24.666  0.00  0.00    +0.190 C 
BRANCH  27  28
ATOM     28  O   UNL     1      10.226  -5.407  25.290  0.00  0.00    -0.392 OA
ATOM     29  H   UNL     1      10.188  -5.836  26.159  0.00  0.00    +0.210 HD
ENDBRANCH  27  28
ENDBRANCH   3  27
BRANCH   1  30
ATOM     30  O   UNL     1       5.458  -2.051  24.633  0.00  0.00    -0.453 OA
BRANCH  30  41
ATOM     31  C   UNL     1       6.166   0.304  24.905  0.00  0.00    +0.181 A 
ATOM     32  O   UNL     1       5.844   1.494  25.618  0.00  0.00    -0.451 OA
ATOM     33  C   UNL     1       5.391   1.403  26.901  0.00  0.00    +0.147 A 
ATOM     34  C   UNL     1       4.806   0.252  27.377  0.00  0.00    +0.109 A 
ATOM     35  C   UNL     1       4.456   0.098  28.709  0.00  0.00    +0.135 A 
ATOM     36  C   UNL     1       4.595   1.177  29.568  0.00  0.00    +0.091 A 
ATOM     37  C   UNL     1       5.066   2.386  29.057  0.00  0.00    +0.124 A 
ATOM     38  C   UNL     1       4.513  -0.752  26.389  0.00  0.00    +0.238 A 
ATOM     39  O   UNL     1       3.588  -1.531  26.580  0.00  0.00    -0.283 OA
ATOM     40  C   UNL     1       5.493   2.506  27.734  0.00  0.00    +0.092 A 
ATOM     41  C   UNL     1       5.450  -0.825  25.228  0.00  0.00    +0.214 A 
BRANCH  31  43
ATOM     42  C   UNL     1       7.724   2.073  23.906  0.00  0.00    +0.015 A 
ATOM     43  C   UNL     1       7.303   0.699  23.891  0.00  0.00    +0.025 A 
ATOM     44  C   UNL     1       8.023  -0.082  22.960  0.00  0.00    +0.060 A 
ATOM     45  C   UNL     1       9.063   0.472  22.142  0.00  0.00    +0.159 A 
ATOM     46  C   UNL     1       9.430   1.827  22.228  0.00  0.00    +0.158 A 
ATOM     47  C   UNL     1       8.747   2.624  23.111  0.00  0.00    +0.050 A 
BRANCH  46  48
ATOM     48  O   UNL     1      10.440   2.280  21.437  0.00  0.00    -0.503 OA
ATOM     49  H   UNL     1      10.817   1.515  20.955  0.00  0.00    +0.292 HD
ENDBRANCH  46  48
BRANCH  45  50
ATOM     50  O   UNL     1       9.753  -0.296  21.246  0.00  0.00    -0.503 OA
ATOM     51  H   UNL     1      10.358  -0.856  21.789  0.00  0.00    +0.292 HD
ENDBRANCH  45  50
ENDBRANCH  31  43
BRANCH  37  52
ATOM     52  O   UNL     1       5.116   3.503  29.837  0.00  0.00    -0.507 OA
ATOM     53  H   UNL     1       4.535   4.173  29.438  0.00  0.00    +0.292 HD
ENDBRANCH  37  52
BRANCH  35  54
ATOM     54  O   UNL     1       3.995  -1.080  29.227  0.00  0.00    -0.506 OA
ATOM     55  H   UNL     1       3.593  -1.602  28.496  0.00  0.00    +0.292 HD
ENDBRANCH  35  54
ENDBRANCH  30  41
ENDBRANCH   1  30
TORSDOF 18
ENDMDL
MODEL 9
REMARK VINA RESULT:      -6.6      1.883      6.081
REMARK  Name = 
REMARK  18 active torsions:
REMARK  status: ('A' for Active; 'I' for Inactive)
REMARK    1  A    between atoms: C_3  and  O_49
REMARK    2  A    between atoms: C_4  and  O_48
REMARK    3  A    between atoms: C_6  and  C_7
REMARK    4  A    between atoms: C_8  and  O_20
REMARK    5  A    between atoms: C_12  and  O_19
REMARK    6  A    between atoms: C_14  and  O_18
REMARK    7  A    between atoms: O_20  and  C_21
REMARK    8  A    between atoms: C_23  and  O_33
REMARK    9  A    between atoms: C_24  and  O_32
REMARK   10  A    between atoms: C_25  and  O_31
REMARK   11  A    between atoms: C_27  and  C_29
REMARK   12  A    between atoms: C_29  and  O_30
REMARK   13  A    between atoms: O_33  and  C_34
REMARK   14  A    between atoms: C_36  and  O_47
REMARK   15  A    between atoms: C_38  and  O_46
REMARK   16  A    between atoms: C_39  and  O_45
REMARK   17  A    between atoms: C_41  and  C_43
REMARK   18  A    between atoms: C_43  and  O_44
REMARK                            x       y       z     vdW  Elec       q    Type
REMARK                         _______ _______ _______ _____ _____    ______ ____
ROOT
ATOM      1  C   UNL     1       6.820  -2.080  25.489  0.00  0.00    +0.340 C 
ATOM      2  O   UNL     1       8.064  -1.445  25.041  0.00  0.00    -0.331 OA
ATOM      3  C   UNL     1       8.709  -1.801  23.761  0.00  0.00    +0.179 C 
ATOM      4  C   UNL     1       7.752  -2.309  22.633  0.00  0.00    +0.177 C 
ATOM      5  C   UNL     1       6.370  -2.492  23.225  0.00  0.00    +0.180 C 
ATOM      6  C   UNL     1       6.563  -3.252  24.587  0.00  0.00    +0.221 C 
ENDROOT
BRANCH   5   7
ATOM      7  O   UNL     1       5.437  -2.942  22.325  0.00  0.00    -0.386 OA
ATOM      8  H   UNL     1       5.225  -2.264  21.673  0.00  0.00    +0.210 HD
ENDBRANCH   5   7
BRANCH   4   9
ATOM      9  O   UNL     1       8.145  -3.558  22.056  0.00  0.00    -0.386 OA
ATOM     10  H   UNL     1       8.573  -4.079  22.759  0.00  0.00    +0.210 HD
ENDBRANCH   4   9
BRANCH   6  11
ATOM     11  O   UNL     1       5.687  -4.228  25.072  0.00  0.00    -0.337 OA
BRANCH  11  12
ATOM     12  C   UNL     1       4.289  -4.156  25.316  0.00  0.00    +0.282 C 
ATOM     13  O   UNL     1       4.066  -4.669  26.660  0.00  0.00    -0.341 OA
ATOM     14  C   UNL     1       4.890  -5.830  26.888  0.00  0.00    +0.178 C 
ATOM     15  C   UNL     1       4.585  -6.955  25.869  0.00  0.00    +0.177 C 
ATOM     16  C   UNL     1       4.338  -6.446  24.437  0.00  0.00    +0.179 C 
ATOM     17  C   UNL     1       3.562  -5.122  24.385  0.00  0.00    +0.201 C 
BRANCH  17  18
ATOM     18  O   UNL     1       2.184  -5.346  24.710  0.00  0.00    -0.384 OA
ATOM     19  H   UNL     1       1.805  -5.889  23.989  0.00  0.00    +0.210 HD
ENDBRANCH  17  18
BRANCH  16  20
ATOM     20  O   UNL     1       3.695  -7.469  23.666  0.00  0.00    -0.386 OA
ATOM     21  H   UNL     1       4.191  -8.295  23.845  0.00  0.00    +0.210 HD
ENDBRANCH  16  20
BRANCH  15  22
ATOM     22  O   UNL     1       3.443  -7.732  26.244  0.00  0.00    -0.386 OA
ATOM     23  H   UNL     1       3.301  -7.489  27.186  0.00  0.00    +0.210 HD
ENDBRANCH  15  22
BRANCH  14  24
ATOM     24  C   UNL     1       4.821  -6.279  28.349  0.00  0.00    +0.190 C 
BRANCH  24  25
ATOM     25  O   UNL     1       5.380  -7.591  28.481  0.00  0.00    -0.392 OA
ATOM     26  H   UNL     1       5.075  -7.953  29.330  0.00  0.00    +0.210 HD
ENDBRANCH  24  25
ENDBRANCH  14  24
ENDBRANCH  11  12
ENDBRANCH   6  11
BRANCH   3  27
ATOM     27  C   UNL     1      10.000  -2.689  23.786  0.00  0.00    +0.190 C 
BRANCH  27  28
ATOM     28  O   UNL     1       9.862  -3.944  24.435  0.00  0.00    -0.392 OA
ATOM     29  H   UNL     1      10.050  -4.648  23.794  0.00  0.00    +0.210 HD
ENDBRANCH  27  28
ENDBRANCH   3  27
BRANCH   1  30
ATOM     30  O   UNL     1       5.497  -1.379  25.321  0.00  0.00    -0.453 OA
BRANCH  30  41
ATOM     31  C   UNL     1       5.903   1.061  25.271  0.00  0.00    +0.181 A 
ATOM     32  O   UNL     1       5.415   2.287  25.804  0.00  0.00    -0.451 OA
ATOM     33  C   UNL     1       4.932   2.316  27.080  0.00  0.00    +0.147 A 
ATOM     34  C   UNL     1       4.476   1.178  27.703  0.00  0.00    +0.109 A 
ATOM     35  C   UNL     1       4.103   1.165  29.037  0.00  0.00    +0.135 A 
ATOM     36  C   UNL     1       4.080   2.361  29.739  0.00  0.00    +0.091 A 
ATOM     37  C   UNL     1       4.416   3.538  29.071  0.00  0.00    +0.124 A 
ATOM     38  C   UNL     1       4.342   0.018  26.861  0.00  0.00    +0.238 A 
ATOM     39  O   UNL     1       3.512  -0.837  27.144  0.00  0.00    -0.283 OA
ATOM     40  C   UNL     1       4.871   3.528  27.752  0.00  0.00    +0.092 A 
ATOM     41  C   UNL     1       5.320  -0.095  25.738  0.00  0.00    +0.214 A 
BRANCH  31  43
ATOM     42  C   UNL     1       8.202   2.067  24.764  0.00  0.00    +0.015 A 
ATOM     43  C   UNL     1       7.017   1.452  24.231  0.00  0.00    +0.025 A 
ATOM     44  C   UNL     1       7.076   1.280  22.830  0.00  0.00    +0.060 A 
ATOM     45  C   UNL     1       8.217   1.679  22.059  0.00  0.00    +0.159 A 
ATOM     46  C   UNL     1       9.349   2.260  22.659  0.00  0.00    +0.158 A 
ATOM     47  C   UNL     1       9.329   2.456  24.016  0.00  0.00    +0.050 A 
BRANCH  46  48
ATOM     48  O   UNL     1      10.404   2.594  21.869  0.00  0.00    -0.503 OA
ATOM     49  H   UNL     1      10.087   2.659  20.944  0.00  0.00    +0.292 HD
ENDBRANCH  46  48
BRANCH  45  50
ATOM     50  O   UNL     1       8.261   1.505  20.704  0.00  0.00    -0.503 OA
ATOM     51  H   UNL     1       7.846   2.314  20.319  0.00  0.00    +0.292 HD
ENDBRANCH  45  50
ENDBRANCH  31  43
BRANCH  37  52
ATOM     52  O   UNL     1       4.304   4.748  29.687  0.00  0.00    -0.507 OA
ATOM     53  H   UNL     1       5.145   4.935  30.138  0.00  0.00    +0.292 HD
ENDBRANCH  37  52
BRANCH  35  54
ATOM     54  O   UNL     1       3.771   0.021  29.708  0.00  0.00    -0.506 OA
ATOM     55  H   UNL     1       3.948  -0.746  29.116  0.00  0.00    +0.292 HD
ENDBRANCH  35  54
ENDBRANCH  30  41
ENDBRANCH   1  30
TORSDOF 18
ENDMDL
