MODEL 1
REMARK VINA RESULT:      -7.8      0.000      0.000
REMARK  Name = 
REMARK  22 active torsions:
REMARK  status: ('A' for Active; 'I' for Inactive)
REMARK    1  A    between atoms: C_1  and  C_2
REMARK    2  A    between atoms: C_4  and  O_64
REMARK    3  A    between atoms: C_6  and  O_63
REMARK    4  A    between atoms: C_8  and  O_62
REMARK    5  A    between atoms: C_10  and  O_13
REMARK    6  A    between atoms: O_13  and  C_14
REMARK    7  A    between atoms: C_14  and  C_15
REMARK    8  A    between atoms: C_17  and  O_61
REMARK    9  A    between atoms: C_19  and  O_60
REMARK   10  A    between atoms: C_21  and  O_48
REMARK   11  A    between atoms: C_23  and  O_26
REMARK   12  A    between atoms: O_26  and  C_27
REMARK   13  A    between atoms: C_28  and  C_40
REMARK   14  A    between atoms: C_32  and  O_39
REMARK   15  A    between atoms: C_34  and  O_38
REMARK   16  A    between atoms: C_42  and  O_47
REMARK   17  A    between atoms: C_43  and  O_46
REMARK   18  A    between atoms: O_48  and  C_49
REMARK   19  A    between atoms: C_51  and  O_59
REMARK   20  A    between atoms: C_53  and  C_56
REMARK   21  A    between atoms: C_53  and  O_58
REMARK   22  A    between atoms: C_56  and  O_57
REMARK                            x       y       z     vdW  Elec       q    Type
REMARK                         _______ _______ _______ _____ _____    ______ ____
ROOT
ATOM      1  C   UNL     1       9.628  -1.733  23.641  0.00  0.00    +0.179 C 
ATOM      2  O   UNL     1       9.034  -1.868  24.927  0.00  0.00    -0.331 OA
ATOM      3  C   UNL     1       8.511  -3.168  25.153  0.00  0.00    +0.340 C 
ATOM      4  C   UNL     1       7.283  -3.401  24.226  0.00  0.00    +0.221 C 
ATOM      5  C   UNL     1       7.732  -3.058  22.765  0.00  0.00    +0.180 C 
ATOM      6  C   UNL     1       8.486  -1.721  22.639  0.00  0.00    +0.177 C 
ENDROOT
BRANCH   5   7
ATOM      7  O   UNL     1       6.615  -3.020  21.860  0.00  0.00    -0.386 OA
ATOM      8  H   UNL     1       5.892  -3.464  22.349  0.00  0.00    +0.210 HD
ENDBRANCH   5   7
BRANCH   6   9
ATOM      9  O   UNL     1       8.962  -1.575  21.295  0.00  0.00    -0.386 OA
ATOM     10  H   UNL     1       8.918  -0.622  21.094  0.00  0.00    +0.210 HD
ENDBRANCH   6   9
BRANCH   4  11
ATOM     11  O   UNL     1       6.888  -4.795  24.175  0.00  0.00    -0.337 OA
BRANCH  11  12
ATOM     12  C   UNL     1       5.639  -5.051  23.556  0.00  0.00    +0.282 C 
ATOM     13  O   UNL     1       4.679  -4.039  23.850  0.00  0.00    -0.346 OA
ATOM     14  C   UNL     1       3.444  -4.622  24.264  0.00  0.00    +0.202 C 
ATOM     15  C   UNL     1       3.543  -6.102  23.929  0.00  0.00    +0.142 C 
ATOM     16  C   UNL     1       5.038  -6.355  24.101  0.00  0.00    +0.206 C 
BRANCH  16  17
ATOM     17  O   UNL     1       5.470  -7.521  23.401  0.00  0.00    -0.384 OA
ATOM     18  H   UNL     1       6.413  -7.651  23.618  0.00  0.00    +0.210 HD
ENDBRANCH  16  17
BRANCH  15  19
ATOM     19  O   UNL     1       3.191  -6.340  22.547  0.00  0.00    -0.381 OA
ATOM     20  H   UNL     1       3.557  -7.203  22.278  0.00  0.00    +0.210 HD
ENDBRANCH  15  19
BRANCH  15  21
ATOM     21  C   UNL     1       2.640  -6.952  24.822  0.00  0.00    +0.195 C 
BRANCH  21  22
ATOM     22  O   UNL     1       3.239  -8.191  25.186  0.00  0.00    -0.392 OA
ATOM     23  H   UNL     1       3.964  -8.365  24.558  0.00  0.00    +0.210 HD
ENDBRANCH  21  22
ENDBRANCH  15  21
ENDBRANCH  11  12
ENDBRANCH   4  11
BRANCH   3  24
ATOM     24  O   UNL     1       8.311  -3.228  26.575  0.00  0.00    -0.453 OA
BRANCH  24  25
ATOM     25  C   UNL     1       6.985  -3.498  26.975  0.00  0.00    +0.214 A 
ATOM     26  C   UNL     1       6.576  -4.864  27.496  0.00  0.00    +0.238 A 
ATOM     27  O   UNL     1       7.361  -5.751  27.804  0.00  0.00    -0.283 OA
ATOM     28  C   UNL     1       5.165  -5.158  27.699  0.00  0.00    +0.109 A 
ATOM     29  C   UNL     1       4.281  -4.097  27.614  0.00  0.00    +0.147 A 
ATOM     30  C   UNL     1       2.918  -4.301  27.881  0.00  0.00    +0.092 A 
ATOM     31  C   UNL     1       2.482  -5.579  28.232  0.00  0.00    +0.124 A 
ATOM     32  C   UNL     1       3.362  -6.649  28.310  0.00  0.00    +0.091 A 
ATOM     33  O   UNL     1       4.678  -2.829  27.303  0.00  0.00    -0.451 OA
ATOM     34  C   UNL     1       4.705  -6.441  28.035  0.00  0.00    +0.135 A 
ATOM     35  C   UNL     1       6.006  -2.555  26.949  0.00  0.00    +0.181 A 
BRANCH  35  36
ATOM     36  C   UNL     1       6.160  -1.085  26.645  0.00  0.00    +0.025 A 
ATOM     37  C   UNL     1       5.461  -0.539  25.535  0.00  0.00    +0.015 A 
ATOM     38  C   UNL     1       5.306   0.841  25.354  0.00  0.00    +0.050 A 
ATOM     39  C   UNL     1       5.883   1.703  26.264  0.00  0.00    +0.158 A 
ATOM     40  C   UNL     1       6.682   1.206  27.286  0.00  0.00    +0.159 A 
ATOM     41  C   UNL     1       6.817  -0.173  27.491  0.00  0.00    +0.060 A 
BRANCH  39  42
ATOM     42  O   UNL     1       5.639   3.042  26.166  0.00  0.00    -0.503 OA
ATOM     43  H   UNL     1       4.739   3.156  26.533  0.00  0.00    +0.292 HD
ENDBRANCH  39  42
BRANCH  40  44
ATOM     44  O   UNL     1       7.301   2.121  28.094  0.00  0.00    -0.503 OA
ATOM     45  H   UNL     1       7.987   2.560  27.562  0.00  0.00    +0.292 HD
ENDBRANCH  40  44
ENDBRANCH  35  36
BRANCH  34  46
ATOM     46  O   UNL     1       5.550  -7.515  28.093  0.00  0.00    -0.506 OA
ATOM     47  H   UNL     1       6.127  -7.539  27.315  0.00  0.00    +0.292 HD
ENDBRANCH  34  46
BRANCH  31  48
ATOM     48  O   UNL     1       1.177  -5.843  28.515  0.00  0.00    -0.507 OA
ATOM     49  H   UNL     1       0.689  -5.006  28.553  0.00  0.00    +0.292 HD
ENDBRANCH  31  48
ENDBRANCH  24  25
ENDBRANCH   3  24
BRANCH   1  50
ATOM     50  C   UNL     1      10.462  -0.458  23.686  0.00  0.00    +0.197 C 
BRANCH  50  51
ATOM     51  O   UNL     1      10.251   0.240  22.464  0.00  0.00    -0.346 OA
BRANCH  51  55
ATOM     52  C   UNL     1      11.176   4.423  23.119  0.00  0.00    +0.041 C 
ATOM     53  C   UNL     1      10.514   3.482  24.119  0.00  0.00    +0.149 C 
ATOM     54  O   UNL     1      10.735   2.106  23.790  0.00  0.00    -0.343 OA
ATOM     55  C   UNL     1      10.041   1.636  22.635  0.00  0.00    +0.282 C 
ATOM     56  C   UNL     1       8.514   1.819  22.754  0.00  0.00    +0.201 C 
ATOM     57  C   UNL     1       8.148   3.241  23.187  0.00  0.00    +0.179 C 
ATOM     58  C   UNL     1       9.015   3.712  24.361  0.00  0.00    +0.174 C 
BRANCH  56  59
ATOM     59  O   UNL     1       7.878   1.503  21.500  0.00  0.00    -0.384 OA
ATOM     60  H   UNL     1       7.417   0.649  21.606  0.00  0.00    +0.210 HD
ENDBRANCH  56  59
BRANCH  57  61
ATOM     61  O   UNL     1       8.209   4.143  22.071  0.00  0.00    -0.386 OA
ATOM     62  H   UNL     1       8.947   4.766  22.186  0.00  0.00    +0.210 HD
ENDBRANCH  57  61
BRANCH  58  63
ATOM     63  O   UNL     1       8.640   2.963  25.532  0.00  0.00    -0.387 OA
ATOM     64  H   UNL     1       7.843   2.439  25.312  0.00  0.00    +0.210 HD
ENDBRANCH  58  63
ENDBRANCH  51  55
ENDBRANCH  50  51
ENDBRANCH   1  50
TORSDOF 21
ENDMDL
MODEL 2
REMARK VINA RESULT:      -7.8      2.652      9.443
REMARK  Name = 
REMARK  22 active torsions:
REMARK  status: ('A' for Active; 'I' for Inactive)
REMARK    1  A    between atoms: C_1  and  C_2
REMARK    2  A    between atoms: C_4  and  O_64
REMARK    3  A    between atoms: C_6  and  O_63
REMARK    4  A    between atoms: C_8  and  O_62
REMARK    5  A    between atoms: C_10  and  O_13
REMARK    6  A    between atoms: O_13  and  C_14
REMARK    7  A    between atoms: C_14  and  C_15
REMARK    8  A    between atoms: C_17  and  O_61
REMARK    9  A    between atoms: C_19  and  O_60
REMARK   10  A    between atoms: C_21  and  O_48
REMARK   11  A    between atoms: C_23  and  O_26
REMARK   12  A    between atoms: O_26  and  C_27
REMARK   13  A    between atoms: C_28  and  C_40
REMARK   14  A    between atoms: C_32  and  O_39
REMARK   15  A    between atoms: C_34  and  O_38
REMARK   16  A    between atoms: C_42  and  O_47
REMARK   17  A    between atoms: C_43  and  O_46
REMARK   18  A    between atoms: O_48  and  C_49
REMARK   19  A    between atoms: C_51  and  O_59
REMARK   20  A    between atoms: C_53  and  C_56
REMARK   21  A    between atoms: C_53  and  O_58
REMARK   22  A    between atoms: C_56  and  O_57
REMARK                            x       y       z     vdW  Elec       q    Type
REMARK                         _______ _______ _______ _____ _____    ______ ____
ROOT
ATOM      1  C   UNL     1       5.228   0.007  26.165  0.00  0.00    +0.179 C 
ATOM      2  O   UNL     1       5.617   0.349  24.839  0.00  0.00    -0.331 OA
ATOM      3  C   UNL     1       5.907   1.730  24.694  0.00  0.00    +0.340 C 
ATOM      4  C   UNL     1       4.595   2.554  24.846  0.00  0.00    +0.221 C 
ATOM      5  C   UNL     1       3.917   2.105  26.185  0.00  0.00    +0.180 C 
ATOM      6  C   UNL     1       3.833   0.578  26.363  0.00  0.00    +0.177 C 
ENDROOT
BRANCH   5   7
ATOM      7  O   UNL     1       2.587   2.637  26.312  0.00  0.00    -0.386 OA
ATOM      8  H   UNL     1       2.224   2.192  27.106  0.00  0.00    +0.210 HD
ENDBRANCH   5   7
BRANCH   6   9
ATOM      9  O   UNL     1       3.323   0.284  27.670  0.00  0.00    -0.386 OA
ATOM     10  H   UNL     1       4.066   0.423  28.287  0.00  0.00    +0.210 HD
ENDBRANCH   6   9
BRANCH   4  11
ATOM     11  O   UNL     1       4.851   3.971  25.017  0.00  0.00    -0.337 OA
BRANCH  11  12
ATOM     12  C   UNL     1       4.258   4.817  24.047  0.00  0.00    +0.282 C 
ATOM     13  O   UNL     1       2.977   5.288  24.462  0.00  0.00    -0.346 OA
ATOM     14  C   UNL     1       2.016   5.117  23.420  0.00  0.00    +0.202 C 
ATOM     15  C   UNL     1       2.810   4.785  22.166  0.00  0.00    +0.142 C 
ATOM     16  C   UNL     1       4.004   4.037  22.749  0.00  0.00    +0.206 C 
BRANCH  16  17
ATOM     17  O   UNL     1       5.120   4.029  21.860  0.00  0.00    -0.384 OA
ATOM     18  H   UNL     1       5.795   3.442  22.253  0.00  0.00    +0.210 HD
ENDBRANCH  16  17
BRANCH  15  19
ATOM     19  O   UNL     1       3.288   5.990  21.526  0.00  0.00    -0.381 OA
ATOM     20  H   UNL     1       4.244   5.896  21.364  0.00  0.00    +0.210 HD
ENDBRANCH  15  19
BRANCH  15  21
ATOM     21  C   UNL     1       1.980   3.987  21.160  0.00  0.00    +0.195 C 
BRANCH  21  22
ATOM     22  O   UNL     1       2.331   2.608  21.133  0.00  0.00    -0.392 OA
ATOM     23  H   UNL     1       3.218   2.520  21.528  0.00  0.00    +0.210 HD
ENDBRANCH  21  22
ENDBRANCH  15  21
ENDBRANCH  11  12
ENDBRANCH   4  11
BRANCH   3  24
ATOM     24  O   UNL     1       6.623   1.815  23.451  0.00  0.00    -0.453 OA
BRANCH  24  25
ATOM     25  C   UNL     1       7.943   2.299  23.560  0.00  0.00    +0.214 A 
ATOM     26  C   UNL     1       8.243   3.788  23.583  0.00  0.00    +0.238 A 
ATOM     27  O   UNL     1       7.398   4.662  23.718  0.00  0.00    -0.283 OA
ATOM     28  C   UNL     1       9.623   4.240  23.487  0.00  0.00    +0.109 A 
ATOM     29  C   UNL     1      10.611   3.279  23.600  0.00  0.00    +0.147 A 
ATOM     30  C   UNL     1      11.962   3.662  23.599  0.00  0.00    +0.092 A 
ATOM     31  C   UNL     1      12.280   5.016  23.484  0.00  0.00    +0.124 A 
ATOM     32  C   UNL     1      11.294   5.983  23.360  0.00  0.00    +0.091 A 
ATOM     33  O   UNL     1      10.336   1.949  23.744  0.00  0.00    -0.451 OA
ATOM     34  C   UNL     1       9.963   5.596  23.353  0.00  0.00    +0.135 A 
ATOM     35  C   UNL     1       9.018   1.476  23.681  0.00  0.00    +0.181 A 
BRANCH  35  36
ATOM     36  C   UNL     1       9.006  -0.023  23.857  0.00  0.00    +0.025 A 
ATOM     37  C   UNL     1       9.499  -0.840  22.805  0.00  0.00    +0.015 A 
ATOM     38  C   UNL     1       9.801  -2.195  22.988  0.00  0.00    +0.050 A 
ATOM     39  C   UNL     1       9.577  -2.768  24.223  0.00  0.00    +0.158 A 
ATOM     40  C   UNL     1       8.974  -2.031  25.235  0.00  0.00    +0.159 A 
ATOM     41  C   UNL     1       8.697  -0.668  25.069  0.00  0.00    +0.060 A 
BRANCH  39  42
ATOM     42  O   UNL     1       9.977  -4.053  24.449  0.00  0.00    -0.503 OA
ATOM     43  H   UNL     1       9.906  -4.490  23.576  0.00  0.00    +0.292 HD
ENDBRANCH  39  42
BRANCH  40  44
ATOM     44  O   UNL     1       8.693  -2.688  26.403  0.00  0.00    -0.503 OA
ATOM     45  H   UNL     1       8.555  -2.013  27.089  0.00  0.00    +0.292 HD
ENDBRANCH  40  44
ENDBRANCH  35  36
BRANCH  34  46
ATOM     46  O   UNL     1       9.009   6.564  23.204  0.00  0.00    -0.506 OA
ATOM     47  H   UNL     1       8.533   6.707  24.037  0.00  0.00    +0.292 HD
ENDBRANCH  34  46
BRANCH  31  48
ATOM     48  O   UNL     1      13.568   5.456  23.487  0.00  0.00    -0.507 OA
ATOM     49  H   UNL     1      13.713   5.996  24.280  0.00  0.00    +0.292 HD
ENDBRANCH  31  48
ENDBRANCH  24  25
ENDBRANCH   3  24
BRANCH   1  50
ATOM     50  C   UNL     1       5.325  -1.511  26.262  0.00  0.00    +0.197 C 
BRANCH  50  51
ATOM     51  O   UNL     1       4.228  -2.061  25.543  0.00  0.00    -0.346 OA
BRANCH  51  55
ATOM     52  C   UNL     1       3.967  -6.213  24.326  0.00  0.00    +0.041 C 
ATOM     53  C   UNL     1       5.044  -5.603  25.216  0.00  0.00    +0.149 C 
ATOM     54  O   UNL     1       4.632  -4.353  25.780  0.00  0.00    -0.343 OA
ATOM     55  C   UNL     1       4.544  -3.268  24.859  0.00  0.00    +0.282 C 
ATOM     56  C   UNL     1       5.880  -3.003  24.135  0.00  0.00    +0.201 C 
ATOM     57  C   UNL     1       6.472  -4.290  23.554  0.00  0.00    +0.179 C 
ATOM     58  C   UNL     1       6.428  -5.437  24.571  0.00  0.00    +0.174 C 
BRANCH  56  59
ATOM     59  O   UNL     1       5.693  -2.027  23.092  0.00  0.00    -0.384 OA
ATOM     60  H   UNL     1       6.074  -2.391  22.271  0.00  0.00    +0.210 HD
ENDBRANCH  56  59
BRANCH  57  61
ATOM     61  O   UNL     1       5.825  -4.633  22.319  0.00  0.00    -0.386 OA
ATOM     62  H   UNL     1       6.103  -5.520  22.032  0.00  0.00    +0.210 HD
ENDBRANCH  57  61
BRANCH  58  63
ATOM     63  O   UNL     1       7.370  -5.151  25.621  0.00  0.00    -0.387 OA
ATOM     64  H   UNL     1       8.218  -5.580  25.389  0.00  0.00    +0.210 HD
ENDBRANCH  58  63
ENDBRANCH  51  55
ENDBRANCH  50  51
ENDBRANCH   1  50
TORSDOF 21
ENDMDL
MODEL 3
REMARK VINA RESULT:      -7.7      2.232      5.439
REMARK  Name = 
REMARK  22 active torsions:
REMARK  status: ('A' for Active; 'I' for Inactive)
REMARK    1  A    between atoms: C_1  and  C_2
REMARK    2  A    between atoms: C_4  and  O_64
REMARK    3  A    between atoms: C_6  and  O_63
REMARK    4  A    between atoms: C_8  and  O_62
REMARK    5  A    between atoms: C_10  and  O_13
REMARK    6  A    between atoms: O_13  and  C_14
REMARK    7  A    between atoms: C_14  and  C_15
REMARK    8  A    between atoms: C_17  and  O_61
REMARK    9  A    between atoms: C_19  and  O_60
REMARK   10  A    between atoms: C_21  and  O_48
REMARK   11  A    between atoms: C_23  and  O_26
REMARK   12  A    between atoms: O_26  and  C_27
REMARK   13  A    between atoms: C_28  and  C_40
REMARK   14  A    between atoms: C_32  and  O_39
REMARK   15  A    between atoms: C_34  and  O_38
REMARK   16  A    between atoms: C_42  and  O_47
REMARK   17  A    between atoms: C_43  and  O_46
REMARK   18  A    between atoms: O_48  and  C_49
REMARK   19  A    between atoms: C_51  and  O_59
REMARK   20  A    between atoms: C_53  and  C_56
REMARK   21  A    between atoms: C_53  and  O_58
REMARK   22  A    between atoms: C_56  and  O_57
REMARK                            x       y       z     vdW  Elec       q    Type
REMARK                         _______ _______ _______ _____ _____    ______ ____
ROOT
ATOM      1  C   UNL     1       8.314   1.163  23.351  0.00  0.00    +0.179 C 
ATOM      2  O   UNL     1       7.627   0.378  24.319  0.00  0.00    -0.331 OA
ATOM      3  C   UNL     1       8.479  -0.549  24.974  0.00  0.00    +0.340 C 
ATOM      4  C   UNL     1       8.930  -1.643  23.963  0.00  0.00    +0.221 C 
ATOM      5  C   UNL     1       9.510  -0.906  22.709  0.00  0.00    +0.180 C 
ATOM      6  C   UNL     1       8.618   0.236  22.186  0.00  0.00    +0.177 C 
ENDROOT
BRANCH   5   7
ATOM      7  O   UNL     1       9.746  -1.814  21.620  0.00  0.00    -0.386 OA
ATOM      8  H   UNL     1      10.058  -2.636  22.053  0.00  0.00    +0.210 HD
ENDBRANCH   5   7
BRANCH   6   9
ATOM      9  O   UNL     1       9.305   0.921  21.130  0.00  0.00    -0.386 OA
ATOM     10  H   UNL     1       9.305   1.865  21.377  0.00  0.00    +0.210 HD
ENDBRANCH   6   9
BRANCH   4  11
ATOM     11  O   UNL     1      10.030  -2.440  24.468  0.00  0.00    -0.337 OA
BRANCH  11  12
ATOM     12  C   UNL     1       9.771  -3.828  24.590  0.00  0.00    +0.282 C 
ATOM     13  O   UNL     1       8.873  -4.294  23.586  0.00  0.00    -0.346 OA
ATOM     14  C   UNL     1       7.835  -5.083  24.166  0.00  0.00    +0.202 C 
ATOM     15  C   UNL     1       8.273  -5.373  25.593  0.00  0.00    +0.142 C 
ATOM     16  C   UNL     1       9.074  -4.119  25.927  0.00  0.00    +0.206 C 
BRANCH  16  17
ATOM     17  O   UNL     1       9.979  -4.331  27.010  0.00  0.00    -0.384 OA
ATOM     18  H   UNL     1       9.849  -3.596  27.639  0.00  0.00    +0.210 HD
ENDBRANCH  16  17
BRANCH  15  19
ATOM     19  O   UNL     1       9.162  -6.513  25.635  0.00  0.00    -0.381 OA
ATOM     20  H   UNL     1       8.624  -7.324  25.681  0.00  0.00    +0.210 HD
ENDBRANCH  15  19
BRANCH  15  21
ATOM     21  C   UNL     1       7.082  -5.640  26.513  0.00  0.00    +0.195 C 
BRANCH  21  22
ATOM     22  O   UNL     1       7.479  -6.036  27.821  0.00  0.00    -0.392 OA
ATOM     23  H   UNL     1       8.315  -5.580  28.028  0.00  0.00    +0.210 HD
ENDBRANCH  21  22
ENDBRANCH  15  21
ENDBRANCH  11  12
ENDBRANCH   4  11
BRANCH   3  24
ATOM     24  O   UNL     1       7.734  -0.960  26.133  0.00  0.00    -0.453 OA
BRANCH  24  25
ATOM     25  C   UNL     1       6.489  -0.316  26.295  0.00  0.00    +0.214 A 
ATOM     26  C   UNL     1       6.384   1.063  26.923  0.00  0.00    +0.238 A 
ATOM     27  O   UNL     1       7.338   1.798  27.141  0.00  0.00    -0.283 OA
ATOM     28  C   UNL     1       5.073   1.597  27.259  0.00  0.00    +0.109 A 
ATOM     29  C   UNL     1       3.971   0.908  26.784  0.00  0.00    +0.147 A 
ATOM     30  C   UNL     1       2.681   1.418  27.003  0.00  0.00    +0.092 A 
ATOM     31  C   UNL     1       2.539   2.619  27.699  0.00  0.00    +0.124 A 
ATOM     32  C   UNL     1       3.639   3.309  28.186  0.00  0.00    +0.091 A 
ATOM     33  O   UNL     1       4.075  -0.253  26.074  0.00  0.00    -0.451 OA
ATOM     34  C   UNL     1       4.909   2.794  27.973  0.00  0.00    +0.135 A 
ATOM     35  C   UNL     1       5.319  -0.867  25.876  0.00  0.00    +0.181 A 
BRANCH  35  36
ATOM     36  C   UNL     1       5.141  -2.134  25.074  0.00  0.00    +0.025 A 
ATOM     37  C   UNL     1       4.389  -3.199  25.637  0.00  0.00    +0.015 A 
ATOM     38  C   UNL     1       3.924  -4.275  24.870  0.00  0.00    +0.050 A 
ATOM     39  C   UNL     1       4.240  -4.322  23.527  0.00  0.00    +0.158 A 
ATOM     40  C   UNL     1       5.081  -3.365  22.975  0.00  0.00    +0.159 A 
ATOM     41  C   UNL     1       5.524  -2.271  23.727  0.00  0.00    +0.060 A 
BRANCH  39  42
ATOM     42  O   UNL     1       3.695  -5.298  22.745  0.00  0.00    -0.503 OA
ATOM     43  H   UNL     1       2.762  -5.028  22.628  0.00  0.00    +0.292 HD
ENDBRANCH  39  42
BRANCH  40  44
ATOM     44  O   UNL     1       5.430  -3.525  21.660  0.00  0.00    -0.503 OA
ATOM     45  H   UNL     1       6.389  -3.378  21.595  0.00  0.00    +0.292 HD
ENDBRANCH  40  44
ENDBRANCH  35  36
BRANCH  34  46
ATOM     46  O   UNL     1       5.977   3.478  28.484  0.00  0.00    -0.506 OA
ATOM     47  H   UNL     1       6.336   3.023  29.261  0.00  0.00    +0.292 HD
ENDBRANCH  34  46
BRANCH  31  48
ATOM     48  O   UNL     1       1.319   3.174  27.936  0.00  0.00    -0.507 OA
ATOM     49  H   UNL     1       0.659   2.466  28.002  0.00  0.00    +0.292 HD
ENDBRANCH  31  48
ENDBRANCH  24  25
ENDBRANCH   3  24
BRANCH   1  50
ATOM     50  C   UNL     1       7.398   2.336  23.023  0.00  0.00    +0.197 C 
BRANCH  50  51
ATOM     51  O   UNL     1       7.147   3.040  24.233  0.00  0.00    -0.346 OA
BRANCH  51  55
ATOM     52  C   UNL     1       7.045   7.089  22.693  0.00  0.00    +0.041 C 
ATOM     53  C   UNL     1       8.240   6.143  22.655  0.00  0.00    +0.149 C 
ATOM     54  O   UNL     1       7.850   4.777  22.834  0.00  0.00    -0.343 OA
ATOM     55  C   UNL     1       7.409   4.435  24.146  0.00  0.00    +0.282 C 
ATOM     56  C   UNL     1       8.476   4.730  25.220  0.00  0.00    +0.201 C 
ATOM     57  C   UNL     1       9.039   6.147  25.082  0.00  0.00    +0.179 C 
ATOM     58  C   UNL     1       9.385   6.475  23.624  0.00  0.00    +0.174 C 
BRANCH  56  59
ATOM     59  O   UNL     1       7.921   4.541  26.535  0.00  0.00    -0.384 OA
ATOM     60  H   UNL     1       8.320   5.208  27.126  0.00  0.00    +0.210 HD
ENDBRANCH  56  59
BRANCH  57  61
ATOM     61  O   UNL     1       8.139   7.108  25.656  0.00  0.00    -0.386 OA
ATOM     62  H   UNL     1       8.325   7.213  26.605  0.00  0.00    +0.210 HD
ENDBRANCH  57  61
BRANCH  58  63
ATOM     63  O   UNL     1      10.527   5.688  23.239  0.00  0.00    -0.387 OA
ATOM     64  H   UNL     1      10.530   4.875  23.784  0.00  0.00    +0.210 HD
ENDBRANCH  58  63
ENDBRANCH  51  55
ENDBRANCH  50  51
ENDBRANCH   1  50
TORSDOF 21
ENDMDL
MODEL 4
REMARK VINA RESULT:      -7.7      1.649      5.248
REMARK  Name = 
REMARK  22 active torsions:
REMARK  status: ('A' for Active; 'I' for Inactive)
REMARK    1  A    between atoms: C_1  and  C_2
REMARK    2  A    between atoms: C_4  and  O_64
REMARK    3  A    between atoms: C_6  and  O_63
REMARK    4  A    between atoms: C_8  and  O_62
REMARK    5  A    between atoms: C_10  and  O_13
REMARK    6  A    between atoms: O_13  and  C_14
REMARK    7  A    between atoms: C_14  and  C_15
REMARK    8  A    between atoms: C_17  and  O_61
REMARK    9  A    between atoms: C_19  and  O_60
REMARK   10  A    between atoms: C_21  and  O_48
REMARK   11  A    between atoms: C_23  and  O_26
REMARK   12  A    between atoms: O_26  and  C_27
REMARK   13  A    between atoms: C_28  and  C_40
REMARK   14  A    between atoms: C_32  and  O_39
REMARK   15  A    between atoms: C_34  and  O_38
REMARK   16  A    between atoms: C_42  and  O_47
REMARK   17  A    between atoms: C_43  and  O_46
REMARK   18  A    between atoms: O_48  and  C_49
REMARK   19  A    between atoms: C_51  and  O_59
REMARK   20  A    between atoms: C_53  and  C_56
REMARK   21  A    between atoms: C_53  and  O_58
REMARK   22  A    between atoms: C_56  and  O_57
REMARK                            x       y       z     vdW  Elec       q    Type
REMARK                         _______ _______ _______ _____ _____    ______ ____
ROOT
ATOM      1  C   UNL     1       7.314  -3.095  23.261  0.00  0.00    +0.179 C 
ATOM      2  O   UNL     1       6.228  -2.218  23.543  0.00  0.00    -0.331 OA
ATOM      3  C   UNL     1       5.244  -2.817  24.372  0.00  0.00    +0.340 C 
ATOM      4  C   UNL     1       4.522  -3.948  23.584  0.00  0.00    +0.221 C 
ATOM      5  C   UNL     1       5.630  -4.889  23.002  0.00  0.00    +0.180 C 
ATOM      6  C   UNL     1       6.780  -4.142  22.299  0.00  0.00    +0.177 C 
ENDROOT
BRANCH   5   7
ATOM      7  O   UNL     1       5.086  -5.838  22.068  0.00  0.00    -0.386 OA
ATOM      8  H   UNL     1       4.597  -6.475  22.628  0.00  0.00    +0.210 HD
ENDBRANCH   5   7
BRANCH   6   9
ATOM      9  O   UNL     1       7.794  -5.085  21.927  0.00  0.00    -0.386 OA
ATOM     10  H   UNL     1       8.563  -4.892  22.496  0.00  0.00    +0.210 HD
ENDBRANCH   6   9
BRANCH   4  11
ATOM     11  O   UNL     1       3.728  -4.800  24.447  0.00  0.00    -0.337 OA
BRANCH  11  12
ATOM     12  C   UNL     1       2.940  -5.773  23.784  0.00  0.00    +0.282 C 
ATOM     13  O   UNL     1       1.552  -5.446  23.812  0.00  0.00    -0.346 OA
ATOM     14  C   UNL     1       0.778  -6.573  24.222  0.00  0.00    +0.202 C 
ATOM     15  C   UNL     1       1.714  -7.770  24.167  0.00  0.00    +0.142 C 
ATOM     16  C   UNL     1       3.055  -7.125  24.503  0.00  0.00    +0.206 C 
BRANCH  16  17
ATOM     17  O   UNL     1       4.158  -7.915  24.061  0.00  0.00    -0.384 OA
ATOM     18  H   UNL     1       4.385  -8.522  24.791  0.00  0.00    +0.210 HD
ENDBRANCH  16  17
BRANCH  15  19
ATOM     19  O   UNL     1       1.784  -8.306  22.826  0.00  0.00    -0.381 OA
ATOM     20  H   UNL     1       2.191  -9.191  22.866  0.00  0.00    +0.210 HD
ENDBRANCH  15  19
BRANCH  15  21
ATOM     21  C   UNL     1       1.277  -8.881  25.121  0.00  0.00    +0.195 C 
BRANCH  21  22
ATOM     22  O   UNL     1       2.256  -9.907  25.250  0.00  0.00    -0.392 OA
ATOM     23  H   UNL     1       2.969  -9.567  25.820  0.00  0.00    +0.210 HD
ENDBRANCH  21  22
ENDBRANCH  15  21
ENDBRANCH  11  12
ENDBRANCH   4  11
BRANCH   3  24
ATOM     24  O   UNL     1       4.458  -1.710  24.846  0.00  0.00    -0.453 OA
BRANCH  24  25
ATOM     25  C   UNL     1       5.051  -0.968  25.890  0.00  0.00    +0.214 A 
ATOM     26  C   UNL     1       5.023   0.550  25.899  0.00  0.00    +0.238 A 
ATOM     27  O   UNL     1       4.334   1.234  25.153  0.00  0.00    -0.283 OA
ATOM     28  C   UNL     1       5.821   1.274  26.878  0.00  0.00    +0.109 A 
ATOM     29  C   UNL     1       6.396   0.533  27.894  0.00  0.00    +0.147 A 
ATOM     30  C   UNL     1       7.108   1.182  28.915  0.00  0.00    +0.092 A 
ATOM     31  C   UNL     1       7.219   2.573  28.882  0.00  0.00    +0.124 A 
ATOM     32  C   UNL     1       6.653   3.320  27.860  0.00  0.00    +0.091 A 
ATOM     33  O   UNL     1       6.282  -0.826  27.974  0.00  0.00    -0.451 OA
ATOM     34  C   UNL     1       5.959   2.671  26.851  0.00  0.00    +0.135 A 
ATOM     35  C   UNL     1       5.652  -1.557  26.957  0.00  0.00    +0.181 A 
BRANCH  35  36
ATOM     36  C   UNL     1       5.680  -3.028  27.295  0.00  0.00    +0.025 A 
ATOM     37  C   UNL     1       4.482  -3.651  27.736  0.00  0.00    +0.015 A 
ATOM     38  C   UNL     1       4.337  -5.043  27.785  0.00  0.00    +0.050 A 
ATOM     39  C   UNL     1       5.407  -5.838  27.429  0.00  0.00    +0.158 A 
ATOM     40  C   UNL     1       6.632  -5.261  27.119  0.00  0.00    +0.159 A 
ATOM     41  C   UNL     1       6.776  -3.871  27.038  0.00  0.00    +0.060 A 
BRANCH  39  42
ATOM     42  O   UNL     1       5.242  -7.191  27.358  0.00  0.00    -0.503 OA
ATOM     43  H   UNL     1       5.723  -7.456  26.548  0.00  0.00    +0.292 HD
ENDBRANCH  39  42
BRANCH  40  44
ATOM     44  O   UNL     1       7.676  -6.111  26.869  0.00  0.00    -0.503 OA
ATOM     45  H   UNL     1       7.536  -6.489  25.984  0.00  0.00    +0.292 HD
ENDBRANCH  40  44
ENDBRANCH  35  36
BRANCH  34  46
ATOM     46  O   UNL     1       5.431   3.425  25.840  0.00  0.00    -0.506 OA
ATOM     47  H   UNL     1       6.119   3.964  25.420  0.00  0.00    +0.292 HD
ENDBRANCH  34  46
BRANCH  31  48
ATOM     48  O   UNL     1       7.885   3.265  29.845  0.00  0.00    -0.507 OA
ATOM     49  H   UNL     1       8.460   3.922  29.420  0.00  0.00    +0.292 HD
ENDBRANCH  31  48
ENDBRANCH  24  25
ENDBRANCH   3  24
BRANCH   1  50
ATOM     50  C   UNL     1       8.437  -2.224  22.712  0.00  0.00    +0.197 C 
BRANCH  50  51
ATOM     51  O   UNL     1       8.946  -1.445  23.788  0.00  0.00    -0.346 OA
BRANCH  51  55
ATOM     52  C   UNL     1       6.676   2.110  22.789  0.00  0.00    +0.041 C 
ATOM     53  C   UNL     1       7.986   1.669  22.146  0.00  0.00    +0.149 C 
ATOM     54  O   UNL     1       8.255   0.281  22.368  0.00  0.00    -0.343 OA
ATOM     55  C   UNL     1       8.602  -0.067  23.707  0.00  0.00    +0.282 C 
ATOM     56  C   UNL     1       9.839   0.704  24.211  0.00  0.00    +0.201 C 
ATOM     57  C   UNL     1       9.711   2.208  23.953  0.00  0.00    +0.179 C 
ATOM     58  C   UNL     1       9.226   2.493  22.526  0.00  0.00    +0.174 C 
BRANCH  56  59
ATOM     59  O   UNL     1      10.038   0.457  25.617  0.00  0.00    -0.384 OA
ATOM     60  H   UNL     1      10.962   0.686  25.832  0.00  0.00    +0.210 HD
ENDBRANCH  56  59
BRANCH  57  61
ATOM     61  O   UNL     1       8.874   2.823  24.944  0.00  0.00    -0.386 OA
ATOM     62  H   UNL     1       8.522   3.665  24.606  0.00  0.00    +0.210 HD
ENDBRANCH  57  61
BRANCH  58  63
ATOM     63  O   UNL     1      10.281   2.145  21.609  0.00  0.00    -0.387 OA
ATOM     64  H   UNL     1       9.941   2.265  20.700  0.00  0.00    +0.210 HD
ENDBRANCH  58  63
ENDBRANCH  51  55
ENDBRANCH  50  51
ENDBRANCH   1  50
TORSDOF 21
ENDMDL
MODEL 5
REMARK VINA RESULT:      -7.6      1.728      2.860
REMARK  Name = 
REMARK  22 active torsions:
REMARK  status: ('A' for Active; 'I' for Inactive)
REMARK    1  A    between atoms: C_1  and  C_2
REMARK    2  A    between atoms: C_4  and  O_64
REMARK    3  A    between atoms: C_6  and  O_63
REMARK    4  A    between atoms: C_8  and  O_62
REMARK    5  A    between atoms: C_10  and  O_13
REMARK    6  A    between atoms: O_13  and  C_14
REMARK    7  A    between atoms: C_14  and  C_15
REMARK    8  A    between atoms: C_17  and  O_61
REMARK    9  A    between atoms: C_19  and  O_60
REMARK   10  A    between atoms: C_21  and  O_48
REMARK   11  A    between atoms: C_23  and  O_26
REMARK   12  A    between atoms: O_26  and  C_27
REMARK   13  A    between atoms: C_28  and  C_40
REMARK   14  A    between atoms: C_32  and  O_39
REMARK   15  A    between atoms: C_34  and  O_38
REMARK   16  A    between atoms: C_42  and  O_47
REMARK   17  A    between atoms: C_43  and  O_46
REMARK   18  A    between atoms: O_48  and  C_49
REMARK   19  A    between atoms: C_51  and  O_59
REMARK   20  A    between atoms: C_53  and  C_56
REMARK   21  A    between atoms: C_53  and  O_58
REMARK   22  A    between atoms: C_56  and  O_57
REMARK                            x       y       z     vdW  Elec       q    Type
REMARK                         _______ _______ _______ _____ _____    ______ ____
ROOT
ATOM      1  C   UNL     1       9.966   0.819  23.971  0.00  0.00    +0.179 C 
ATOM      2  O   UNL     1       9.251   0.234  25.054  0.00  0.00    -0.331 OA
ATOM      3  C   UNL     1       9.389  -1.177  25.100  0.00  0.00    +0.340 C 
ATOM      4  C   UNL     1       8.659  -1.810  23.880  0.00  0.00    +0.221 C 
ATOM      5  C   UNL     1       9.187  -1.084  22.596  0.00  0.00    +0.180 C 
ATOM      6  C   UNL     1       9.205   0.452  22.707  0.00  0.00    +0.177 C 
ENDROOT
BRANCH   5   7
ATOM      7  O   UNL     1       8.415  -1.432  21.434  0.00  0.00    -0.386 OA
ATOM      8  H   UNL     1       7.490  -1.454  21.755  0.00  0.00    +0.210 HD
ENDBRANCH   5   7
BRANCH   6   9
ATOM      9  O   UNL     1       9.827   1.000  21.538  0.00  0.00    -0.386 OA
ATOM     10  H   UNL     1      10.764   1.139  21.770  0.00  0.00    +0.210 HD
ENDBRANCH   6   9
BRANCH   4  11
ATOM     11  O   UNL     1       9.010  -3.203  23.690  0.00  0.00    -0.337 OA
BRANCH  11  12
ATOM     12  C   UNL     1       7.919  -4.108  23.662  0.00  0.00    +0.282 C 
ATOM     13  O   UNL     1       8.351  -5.466  23.685  0.00  0.00    -0.346 OA
ATOM     14  C   UNL     1       7.687  -6.222  22.672  0.00  0.00    +0.202 C 
ATOM     15  C   UNL     1       6.550  -5.347  22.170  0.00  0.00    +0.142 C 
ATOM     16  C   UNL     1       7.137  -3.950  22.350  0.00  0.00    +0.206 C 
BRANCH  16  17
ATOM     17  O   UNL     1       6.126  -2.945  22.405  0.00  0.00    -0.384 OA
ATOM     18  H   UNL     1       5.320  -3.369  22.759  0.00  0.00    +0.210 HD
ENDBRANCH  16  17
BRANCH  15  19
ATOM     19  O   UNL     1       5.390  -5.473  23.024  0.00  0.00    -0.381 OA
ATOM     20  H   UNL     1       4.933  -4.613  23.055  0.00  0.00    +0.210 HD
ENDBRANCH  15  19
BRANCH  15  21
ATOM     21  C   UNL     1       6.150  -5.697  20.737  0.00  0.00    +0.195 C 
BRANCH  21  22
ATOM     22  O   UNL     1       5.806  -4.548  19.969  0.00  0.00    -0.392 OA
ATOM     23  H   UNL     1       6.011  -3.761  20.505  0.00  0.00    +0.210 HD
ENDBRANCH  21  22
ENDBRANCH  15  21
ENDBRANCH  11  12
ENDBRANCH   4  11
BRANCH   3  24
ATOM     24  O   UNL     1       8.944  -1.535  26.419  0.00  0.00    -0.453 OA
BRANCH  24  25
ATOM     25  C   UNL     1       7.619  -2.014  26.487  0.00  0.00    +0.214 A 
ATOM     26  C   UNL     1       7.317  -3.490  26.676  0.00  0.00    +0.238 A 
ATOM     27  O   UNL     1       8.149  -4.332  26.987  0.00  0.00    -0.283 OA
ATOM     28  C   UNL     1       5.949  -3.964  26.533  0.00  0.00    +0.109 A 
ATOM     29  C   UNL     1       4.955  -3.005  26.446  0.00  0.00    +0.147 A 
ATOM     30  C   UNL     1       3.608  -3.398  26.390  0.00  0.00    +0.092 A 
ATOM     31  C   UNL     1       3.300  -4.758  26.424  0.00  0.00    +0.124 A 
ATOM     32  C   UNL     1       4.292  -5.724  26.501  0.00  0.00    +0.091 A 
ATOM     33  O   UNL     1       5.220  -1.665  26.441  0.00  0.00    -0.451 OA
ATOM     34  C   UNL     1       5.620  -5.328  26.547  0.00  0.00    +0.135 A 
ATOM     35  C   UNL     1       6.539  -1.192  26.419  0.00  0.00    +0.181 A 
BRANCH  35  36
ATOM     36  C   UNL     1       6.538   0.318  26.403  0.00  0.00    +0.025 A 
ATOM     37  C   UNL     1       5.747   0.991  25.435  0.00  0.00    +0.015 A 
ATOM     38  C   UNL     1       5.451   2.357  25.529  0.00  0.00    +0.050 A 
ATOM     39  C   UNL     1       5.978   3.084  26.578  0.00  0.00    +0.158 A 
ATOM     40  C   UNL     1       6.860   2.484  27.468  0.00  0.00    +0.159 A 
ATOM     41  C   UNL     1       7.136   1.113  27.398  0.00  0.00    +0.060 A 
BRANCH  39  42
ATOM     42  O   UNL     1       5.602   4.384  26.747  0.00  0.00    -0.503 OA
ATOM     43  H   UNL     1       4.624   4.358  26.766  0.00  0.00    +0.292 HD
ENDBRANCH  39  42
BRANCH  40  44
ATOM     44  O   UNL     1       7.420   3.285  28.427  0.00  0.00    -0.503 OA
ATOM     45  H   UNL     1       8.371   3.347  28.233  0.00  0.00    +0.292 HD
ENDBRANCH  40  44
ENDBRANCH  35  36
BRANCH  34  46
ATOM     46  O   UNL     1       6.582  -6.299  26.597  0.00  0.00    -0.506 OA
ATOM     47  H   UNL     1       7.430  -5.958  26.274  0.00  0.00    +0.292 HD
ENDBRANCH  34  46
BRANCH  31  48
ATOM     48  O   UNL     1       2.015  -5.206  26.384  0.00  0.00    -0.507 OA
ATOM     49  H   UNL     1       1.766  -5.363  25.460  0.00  0.00    +0.292 HD
ENDBRANCH  31  48
ENDBRANCH  24  25
ENDBRANCH   3  24
BRANCH   1  50
ATOM     50  C   UNL     1      10.046   2.312  24.266  0.00  0.00    +0.197 C 
BRANCH  50  51
ATOM     51  O   UNL     1       8.717   2.792  24.431  0.00  0.00    -0.346 OA
BRANCH  51  55
ATOM     52  C   UNL     1       9.092   7.107  24.298  0.00  0.00    +0.041 C 
ATOM     53  C   UNL     1       7.850   6.325  24.712  0.00  0.00    +0.149 C 
ATOM     54  O   UNL     1       8.160   4.973  25.066  0.00  0.00    -0.343 OA
ATOM     55  C   UNL     1       8.533   4.128  23.980  0.00  0.00    +0.282 C 
ATOM     56  C   UNL     1       7.444   4.057  22.890  0.00  0.00    +0.201 C 
ATOM     57  C   UNL     1       6.963   5.452  22.481  0.00  0.00    +0.179 C 
ATOM     58  C   UNL     1       6.689   6.334  23.706  0.00  0.00    +0.174 C 
BRANCH  56  59
ATOM     59  O   UNL     1       7.939   3.346  21.739  0.00  0.00    -0.384 OA
ATOM     60  H   UNL     1       7.286   3.449  21.021  0.00  0.00    +0.210 HD
ENDBRANCH  56  59
BRANCH  57  61
ATOM     61  O   UNL     1       7.890   6.062  21.570  0.00  0.00    -0.386 OA
ATOM     62  H   UNL     1       7.408   6.519  20.860  0.00  0.00    +0.210 HD
ENDBRANCH  57  61
BRANCH  58  63
ATOM     63  O   UNL     1       5.522   5.827  24.379  0.00  0.00    -0.387 OA
ATOM     64  H   UNL     1       5.051   5.234  23.761  0.00  0.00    +0.210 HD
ENDBRANCH  58  63
ENDBRANCH  51  55
ENDBRANCH  50  51
ENDBRANCH   1  50
TORSDOF 21
ENDMDL
MODEL 6
REMARK VINA RESULT:      -7.4      2.379      9.724
REMARK  Name = 
REMARK  22 active torsions:
REMARK  status: ('A' for Active; 'I' for Inactive)
REMARK    1  A    between atoms: C_1  and  C_2
REMARK    2  A    between atoms: C_4  and  O_64
REMARK    3  A    between atoms: C_6  and  O_63
REMARK    4  A    between atoms: C_8  and  O_62
REMARK    5  A    between atoms: C_10  and  O_13
REMARK    6  A    between atoms: O_13  and  C_14
REMARK    7  A    between atoms: C_14  and  C_15
REMARK    8  A    between atoms: C_17  and  O_61
REMARK    9  A    between atoms: C_19  and  O_60
REMARK   10  A    between atoms: C_21  and  O_48
REMARK   11  A    between atoms: C_23  and  O_26
REMARK   12  A    between atoms: O_26  and  C_27
REMARK   13  A    between atoms: C_28  and  C_40
REMARK   14  A    between atoms: C_32  and  O_39
REMARK   15  A    between atoms: C_34  and  O_38
REMARK   16  A    between atoms: C_42  and  O_47
REMARK   17  A    between atoms: C_43  and  O_46
REMARK   18  A    between atoms: O_48  and  C_49
REMARK   19  A    between atoms: C_51  and  O_59
REMARK   20  A    between atoms: C_53  and  C_56
REMARK   21  A    between atoms: C_53  and  O_58
REMARK   22  A    between atoms: C_56  and  O_57
REMARK                            x       y       z     vdW  Elec       q    Type
REMARK                         _______ _______ _______ _____ _____    ______ ____
ROOT
ATOM      1  C   UNL     1       5.181  -0.407  26.276  0.00  0.00    +0.179 C 
ATOM      2  O   UNL     1       5.430   0.159  24.994  0.00  0.00    -0.331 OA
ATOM      3  C   UNL     1       5.798   1.527  25.063  0.00  0.00    +0.340 C 
ATOM      4  C   UNL     1       4.575   2.369  25.533  0.00  0.00    +0.221 C 
ATOM      5  C   UNL     1       4.034   1.709  26.846  0.00  0.00    +0.180 C 
ATOM      6  C   UNL     1       3.864   0.181  26.755  0.00  0.00    +0.177 C 
ENDROOT
BRANCH   5   7
ATOM      7  O   UNL     1       2.770   2.269  27.241  0.00  0.00    -0.386 OA
ATOM      8  H   UNL     1       2.972   2.771  28.058  0.00  0.00    +0.210 HD
ENDBRANCH   5   7
BRANCH   6   9
ATOM      9  O   UNL     1       3.496  -0.328  28.044  0.00  0.00    -0.386 OA
ATOM     10  H   UNL     1       4.018   0.179  28.694  0.00  0.00    +0.210 HD
ENDBRANCH   6   9
BRANCH   4  11
ATOM     11  O   UNL     1       4.949   3.715  25.920  0.00  0.00    -0.337 OA
BRANCH  11  12
ATOM     12  C   UNL     1       5.440   3.853  27.242  0.00  0.00    +0.282 C 
ATOM     13  O   UNL     1       4.567   4.631  28.057  0.00  0.00    -0.346 OA
ATOM     14  C   UNL     1       5.298   5.631  28.767  0.00  0.00    +0.202 C 
ATOM     15  C   UNL     1       6.767   5.270  28.610  0.00  0.00    +0.142 C 
ATOM     16  C   UNL     1       6.774   4.613  27.233  0.00  0.00    +0.206 C 
BRANCH  16  17
ATOM     17  O   UNL     1       7.911   3.771  27.045  0.00  0.00    -0.384 OA
ATOM     18  H   UNL     1       8.703   4.329  27.165  0.00  0.00    +0.210 HD
ENDBRANCH  16  17
BRANCH  15  19
ATOM     19  O   UNL     1       7.162   4.285  29.592  0.00  0.00    -0.381 OA
ATOM     20  H   UNL     1       7.017   4.659  30.481  0.00  0.00    +0.210 HD
ENDBRANCH  15  19
BRANCH  15  21
ATOM     21  C   UNL     1       7.673   6.493  28.744  0.00  0.00    +0.195 C 
BRANCH  21  22
ATOM     22  O   UNL     1       8.668   6.552  27.727  0.00  0.00    -0.392 OA
ATOM     23  H   UNL     1       8.214   6.694  26.877  0.00  0.00    +0.210 HD
ENDBRANCH  21  22
ENDBRANCH  15  21
ENDBRANCH  11  12
ENDBRANCH   4  11
BRANCH   3  24
ATOM     24  O   UNL     1       6.363   1.810  23.772  0.00  0.00    -0.453 OA
BRANCH  24  25
ATOM     25  C   UNL     1       7.677   2.322  23.800  0.00  0.00    +0.214 A 
ATOM     26  C   UNL     1       7.946   3.815  23.858  0.00  0.00    +0.238 A 
ATOM     27  O   UNL     1       7.095   4.663  24.089  0.00  0.00    -0.283 OA
ATOM     28  C   UNL     1       9.305   4.304  23.676  0.00  0.00    +0.109 A 
ATOM     29  C   UNL     1      10.319   3.363  23.678  0.00  0.00    +0.147 A 
ATOM     30  C   UNL     1      11.658   3.779  23.590  0.00  0.00    +0.092 A 
ATOM     31  C   UNL     1      11.936   5.143  23.504  0.00  0.00    +0.124 A 
ATOM     32  C   UNL     1      10.924   6.090  23.491  0.00  0.00    +0.091 A 
ATOM     33  O   UNL     1      10.083   2.023  23.791  0.00  0.00    -0.451 OA
ATOM     34  C   UNL     1       9.604   5.671  23.569  0.00  0.00    +0.135 A 
ATOM     35  C   UNL     1       8.775   1.520  23.809  0.00  0.00    +0.181 A 
BRANCH  35  36
ATOM     36  C   UNL     1       8.808   0.016  23.928  0.00  0.00    +0.025 A 
ATOM     37  C   UNL     1       9.275  -0.747  22.825  0.00  0.00    +0.015 A 
ATOM     38  C   UNL     1       9.619  -2.100  22.943  0.00  0.00    +0.050 A 
ATOM     39  C   UNL     1       9.463  -2.724  24.163  0.00  0.00    +0.158 A 
ATOM     40  C   UNL     1       8.888  -2.041  25.227  0.00  0.00    +0.159 A 
ATOM     41  C   UNL     1       8.570  -0.681  25.126  0.00  0.00    +0.060 A 
BRANCH  39  42
ATOM     42  O   UNL     1       9.905  -4.005  24.322  0.00  0.00    -0.503 OA
ATOM     43  H   UNL     1      10.816  -3.911  24.667  0.00  0.00    +0.292 HD
ENDBRANCH  39  42
BRANCH  40  44
ATOM     44  O   UNL     1       8.675  -2.749  26.380  0.00  0.00    -0.503 OA
ATOM     45  H   UNL     1       8.989  -2.199  27.119  0.00  0.00    +0.292 HD
ENDBRANCH  40  44
ENDBRANCH  35  36
BRANCH  34  46
ATOM     46  O   UNL     1       8.621   6.621  23.530  0.00  0.00    -0.506 OA
ATOM     47  H   UNL     1       7.840   6.286  23.064  0.00  0.00    +0.292 HD
ENDBRANCH  34  46
BRANCH  31  48
ATOM     48  O   UNL     1      13.211   5.614  23.427  0.00  0.00    -0.507 OA
ATOM     49  H   UNL     1      13.207   6.565  23.620  0.00  0.00    +0.292 HD
ENDBRANCH  31  48
ENDBRANCH  24  25
ENDBRANCH   3  24
BRANCH   1  50
ATOM     50  C   UNL     1       5.183  -1.919  26.085  0.00  0.00    +0.197 C 
BRANCH  50  51
ATOM     51  O   UNL     1       4.175  -2.235  25.131  0.00  0.00    -0.346 OA
BRANCH  51  55
ATOM     52  C   UNL     1       3.940  -6.205  23.409  0.00  0.00    +0.041 C 
ATOM     53  C   UNL     1       5.008  -5.706  24.375  0.00  0.00    +0.149 C 
ATOM     54  O   UNL     1       4.587  -4.537  25.086  0.00  0.00    -0.343 OA
ATOM     55  C   UNL     1       4.500  -3.347  24.306  0.00  0.00    +0.282 C 
ATOM     56  C   UNL     1       5.840  -2.989  23.630  0.00  0.00    +0.201 C 
ATOM     57  C   UNL     1       6.442  -4.193  22.899  0.00  0.00    +0.179 C 
ATOM     58  C   UNL     1       6.396  -5.457  23.765  0.00  0.00    +0.174 C 
BRANCH  56  59
ATOM     59  O   UNL     1       5.657  -1.893  22.714  0.00  0.00    -0.384 OA
ATOM     60  H   UNL     1       4.713  -1.865  22.467  0.00  0.00    +0.210 HD
ENDBRANCH  56  59
BRANCH  57  61
ATOM     61  O   UNL     1       5.805  -4.383  21.626  0.00  0.00    -0.386 OA
ATOM     62  H   UNL     1       5.508  -5.305  21.537  0.00  0.00    +0.210 HD
ENDBRANCH  57  61
BRANCH  58  63
ATOM     63  O   UNL     1       7.330  -5.300  24.850  0.00  0.00    -0.387 OA
ATOM     64  H   UNL     1       7.959  -4.592  24.605  0.00  0.00    +0.210 HD
ENDBRANCH  58  63
ENDBRANCH  51  55
ENDBRANCH  50  51
ENDBRANCH   1  50
TORSDOF 21
ENDMDL
MODEL 7
REMARK VINA RESULT:      -7.2      1.939      6.494
REMARK  Name = 
REMARK  22 active torsions:
REMARK  status: ('A' for Active; 'I' for Inactive)
REMARK    1  A    between atoms: C_1  and  C_2
REMARK    2  A    between atoms: C_4  and  O_64
REMARK    3  A    between atoms: C_6  and  O_63
REMARK    4  A    between atoms: C_8  and  O_62
REMARK    5  A    between atoms: C_10  and  O_13
REMARK    6  A    between atoms: O_13  and  C_14
REMARK    7  A    between atoms: C_14  and  C_15
REMARK    8  A    between atoms: C_17  and  O_61
REMARK    9  A    between atoms: C_19  and  O_60
REMARK   10  A    between atoms: C_21  and  O_48
REMARK   11  A    between atoms: C_23  and  O_26
REMARK   12  A    between atoms: O_26  and  C_27
REMARK   13  A    between atoms: C_28  and  C_40
REMARK   14  A    between atoms: C_32  and  O_39
REMARK   15  A    between atoms: C_34  and  O_38
REMARK   16  A    between atoms: C_42  and  O_47
REMARK   17  A    between atoms: C_43  and  O_46
REMARK   18  A    between atoms: O_48  and  C_49
REMARK   19  A    between atoms: C_51  and  O_59
REMARK   20  A    between atoms: C_53  and  C_56
REMARK   21  A    between atoms: C_53  and  O_58
REMARK   22  A    between atoms: C_56  and  O_57
REMARK                            x       y       z     vdW  Elec       q    Type
REMARK                         _______ _______ _______ _____ _____    ______ ____
ROOT
ATOM      1  C   UNL     1       4.016   0.345  26.657  0.00  0.00    +0.179 C 
ATOM      2  O   UNL     1       4.963  -0.634  27.070  0.00  0.00    -0.331 OA
ATOM      3  C   UNL     1       4.399  -1.932  27.168  0.00  0.00    +0.340 C 
ATOM      4  C   UNL     1       3.389  -1.971  28.351  0.00  0.00    +0.221 C 
ATOM      5  C   UNL     1       2.396  -0.776  28.152  0.00  0.00    +0.180 C 
ATOM      6  C   UNL     1       3.084   0.565  27.837  0.00  0.00    +0.177 C 
ENDROOT
BRANCH   5   7
ATOM      7  O   UNL     1       1.561  -0.581  29.307  0.00  0.00    -0.386 OA
ATOM      8  H   UNL     1       1.508  -1.467  29.720  0.00  0.00    +0.210 HD
ENDBRANCH   5   7
BRANCH   6   9
ATOM      9  O   UNL     1       2.084   1.549  27.544  0.00  0.00    -0.386 OA
ATOM     10  H   UNL     1       2.200   1.780  26.604  0.00  0.00    +0.210 HD
ENDBRANCH   6   9
BRANCH   4  11
ATOM     11  O   UNL     1       2.554  -3.156  28.324  0.00  0.00    -0.337 OA
BRANCH  11  12
ATOM     12  C   UNL     1       2.914  -4.174  29.241  0.00  0.00    +0.282 C 
ATOM     13  O   UNL     1       3.857  -3.715  30.206  0.00  0.00    -0.346 OA
ATOM     14  C   UNL     1       4.943  -4.634  30.326  0.00  0.00    +0.202 C 
ATOM     15  C   UNL     1       4.508  -5.897  29.600  0.00  0.00    +0.142 C 
ATOM     16  C   UNL     1       3.612  -5.326  28.504  0.00  0.00    +0.206 C 
BRANCH  16  17
ATOM     17  O   UNL     1       2.711  -6.302  27.984  0.00  0.00    -0.384 OA
ATOM     18  H   UNL     1       1.825  -6.089  28.336  0.00  0.00    +0.210 HD
ENDBRANCH  16  17
BRANCH  15  19
ATOM     19  O   UNL     1       3.705  -6.735  30.462  0.00  0.00    -0.381 OA
ATOM     20  H   UNL     1       3.281  -7.423  29.918  0.00  0.00    +0.210 HD
ENDBRANCH  15  19
BRANCH  15  21
ATOM     21  C   UNL     1       5.703  -6.706  29.097  0.00  0.00    +0.195 C 
BRANCH  21  22
ATOM     22  O   UNL     1       5.318  -7.772  28.235  0.00  0.00    -0.392 OA
ATOM     23  H   UNL     1       6.057  -8.407  28.200  0.00  0.00    +0.210 HD
ENDBRANCH  21  22
ENDBRANCH  15  21
ENDBRANCH  11  12
ENDBRANCH   4  11
BRANCH   3  24
ATOM     24  O   UNL     1       5.536  -2.811  27.215  0.00  0.00    -0.453 OA
BRANCH  24  25
ATOM     25  C   UNL     1       6.386  -2.740  26.091  0.00  0.00    +0.214 A 
ATOM     26  C   UNL     1       7.651  -1.899  26.105  0.00  0.00    +0.238 A 
ATOM     27  O   UNL     1       8.139  -1.401  27.110  0.00  0.00    -0.283 OA
ATOM     28  C   UNL     1       8.383  -1.690  24.865  0.00  0.00    +0.109 A 
ATOM     29  C   UNL     1       8.006  -2.453  23.774  0.00  0.00    +0.147 A 
ATOM     30  C   UNL     1       8.728  -2.358  22.572  0.00  0.00    +0.092 A 
ATOM     31  C   UNL     1       9.818  -1.490  22.507  0.00  0.00    +0.124 A 
ATOM     32  C   UNL     1      10.194  -0.715  23.594  0.00  0.00    +0.091 A 
ATOM     33  O   UNL     1       6.964  -3.334  23.813  0.00  0.00    -0.451 OA
ATOM     34  C   UNL     1       9.471  -0.809  24.774  0.00  0.00    +0.135 A 
ATOM     35  C   UNL     1       6.148  -3.435  24.948  0.00  0.00    +0.181 A 
BRANCH  35  36
ATOM     36  C   UNL     1       5.074  -4.469  24.713  0.00  0.00    +0.025 A 
ATOM     37  C   UNL     1       4.193  -4.303  23.611  0.00  0.00    +0.015 A 
ATOM     38  C   UNL     1       3.375  -5.339  23.144  0.00  0.00    +0.050 A 
ATOM     39  C   UNL     1       3.395  -6.553  23.800  0.00  0.00    +0.158 A 
ATOM     40  C   UNL     1       4.147  -6.708  24.957  0.00  0.00    +0.159 A 
ATOM     41  C   UNL     1       4.991  -5.687  25.413  0.00  0.00    +0.060 A 
BRANCH  39  42
ATOM     42  O   UNL     1       2.695  -7.605  23.284  0.00  0.00    -0.503 OA
ATOM     43  H   UNL     1       1.878  -7.644  23.822  0.00  0.00    +0.292 HD
ENDBRANCH  39  42
BRANCH  40  44
ATOM     44  O   UNL     1       4.048  -7.907  25.610  0.00  0.00    -0.503 OA
ATOM     45  H   UNL     1       3.972  -7.714  26.560  0.00  0.00    +0.292 HD
ENDBRANCH  40  44
ENDBRANCH  35  36
BRANCH  34  46
ATOM     46  O   UNL     1       9.845  -0.017  25.824  0.00  0.00    -0.506 OA
ATOM     47  H   UNL     1       9.139   0.608  26.050  0.00  0.00    +0.292 HD
ENDBRANCH  34  46
BRANCH  31  48
ATOM     48  O   UNL     1      10.566  -1.358  21.377  0.00  0.00    -0.507 OA
ATOM     49  H   UNL     1      10.785  -2.241  21.041  0.00  0.00    +0.292 HD
ENDBRANCH  31  48
ENDBRANCH  24  25
ENDBRANCH   3  24
BRANCH   1  50
ATOM     50  C   UNL     1       4.821   1.567  26.231  0.00  0.00    +0.197 C 
BRANCH  50  51
ATOM     51  O   UNL     1       4.981   1.508  24.819  0.00  0.00    -0.346 OA
BRANCH  51  55
ATOM     52  C   UNL     1       8.542   3.979  24.869  0.00  0.00    +0.041 C 
ATOM     53  C   UNL     1       7.245   4.285  24.127  0.00  0.00    +0.149 C 
ATOM     54  O   UNL     1       6.141   3.532  24.640  0.00  0.00    -0.343 OA
ATOM     55  C   UNL     1       6.171   2.135  24.354  0.00  0.00    +0.282 C 
ATOM     56  C   UNL     1       6.231   1.847  22.839  0.00  0.00    +0.201 C 
ATOM     57  C   UNL     1       7.329   2.665  22.153  0.00  0.00    +0.179 C 
ATOM     58  C   UNL     1       7.298   4.132  22.599  0.00  0.00    +0.174 C 
BRANCH  56  59
ATOM     59  O   UNL     1       6.443   0.441  22.610  0.00  0.00    -0.384 OA
ATOM     60  H   UNL     1       6.036  -0.047  23.350  0.00  0.00    +0.210 HD
ENDBRANCH  56  59
BRANCH  57  61
ATOM     61  O   UNL     1       8.615   2.061  22.360  0.00  0.00    -0.386 OA
ATOM     62  H   UNL     1       9.110   2.037  21.523  0.00  0.00    +0.210 HD
ENDBRANCH  57  61
BRANCH  58  63
ATOM     63  O   UNL     1       6.116   4.748  22.055  0.00  0.00    -0.387 OA
ATOM     64  H   UNL     1       5.658   5.215  22.782  0.00  0.00    +0.210 HD
ENDBRANCH  58  63
ENDBRANCH  51  55
ENDBRANCH  50  51
ENDBRANCH   1  50
TORSDOF 21
ENDMDL
MODEL 8
REMARK VINA RESULT:      -7.2      2.131      5.106
REMARK  Name = 
REMARK  22 active torsions:
REMARK  status: ('A' for Active; 'I' for Inactive)
REMARK    1  A    between atoms: C_1  and  C_2
REMARK    2  A    between atoms: C_4  and  O_64
REMARK    3  A    between atoms: C_6  and  O_63
REMARK    4  A    between atoms: C_8  and  O_62
REMARK    5  A    between atoms: C_10  and  O_13
REMARK    6  A    between atoms: O_13  and  C_14
REMARK    7  A    between atoms: C_14  and  C_15
REMARK    8  A    between atoms: C_17  and  O_61
REMARK    9  A    between atoms: C_19  and  O_60
REMARK   10  A    between atoms: C_21  and  O_48
REMARK   11  A    between atoms: C_23  and  O_26
REMARK   12  A    between atoms: O_26  and  C_27
REMARK   13  A    between atoms: C_28  and  C_40
REMARK   14  A    between atoms: C_32  and  O_39
REMARK   15  A    between atoms: C_34  and  O_38
REMARK   16  A    between atoms: C_42  and  O_47
REMARK   17  A    between atoms: C_43  and  O_46
REMARK   18  A    between atoms: O_48  and  C_49
REMARK   19  A    between atoms: C_51  and  O_59
REMARK   20  A    between atoms: C_53  and  C_56
REMARK   21  A    between atoms: C_53  and  O_58
REMARK   22  A    between atoms: C_56  and  O_57
REMARK                            x       y       z     vdW  Elec       q    Type
REMARK                         _______ _______ _______ _____ _____    ______ ____
ROOT
ATOM      1  C   UNL     1       9.093   0.789  24.659  0.00  0.00    +0.179 C 
ATOM      2  O   UNL     1       7.759   0.440  24.307  0.00  0.00    -0.331 OA
ATOM      3  C   UNL     1       7.482  -0.936  24.517  0.00  0.00    +0.340 C 
ATOM      4  C   UNL     1       8.295  -1.790  23.501  0.00  0.00    +0.221 C 
ATOM      5  C   UNL     1       9.791  -1.340  23.610  0.00  0.00    +0.180 C 
ATOM      6  C   UNL     1       9.989   0.187  23.590  0.00  0.00    +0.177 C 
ENDROOT
BRANCH   5   7
ATOM      7  O   UNL     1      10.594  -1.902  22.558  0.00  0.00    -0.386 OA
ATOM      8  H   UNL     1      11.510  -1.857  22.902  0.00  0.00    +0.210 HD
ENDBRANCH   5   7
BRANCH   6   9
ATOM      9  O   UNL     1      11.371   0.485  23.829  0.00  0.00    -0.386 OA
ATOM     10  H   UNL     1      11.427   0.782  24.757  0.00  0.00    +0.210 HD
ENDBRANCH   6   9
BRANCH   4  11
ATOM     11  O   UNL     1       8.304  -3.197  23.848  0.00  0.00    -0.337 OA
BRANCH  11  12
ATOM     12  C   UNL     1       7.662  -4.056  22.921  0.00  0.00    +0.282 C 
ATOM     13  O   UNL     1       6.773  -3.345  22.062  0.00  0.00    -0.346 OA
ATOM     14  C   UNL     1       5.506  -3.998  21.996  0.00  0.00    +0.202 C 
ATOM     15  C   UNL     1       5.704  -5.368  22.627  0.00  0.00    +0.142 C 
ATOM     16  C   UNL     1       6.783  -5.072  23.665  0.00  0.00    +0.206 C 
BRANCH  16  17
ATOM     17  O   UNL     1       7.484  -6.250  24.062  0.00  0.00    -0.384 OA
ATOM     18  H   UNL     1       7.414  -6.886  23.325  0.00  0.00    +0.210 HD
ENDBRANCH  16  17
BRANCH  15  19
ATOM     19  O   UNL     1       6.236  -6.305  21.663  0.00  0.00    -0.381 OA
ATOM     20  H   UNL     1       5.491  -6.754  21.224  0.00  0.00    +0.210 HD
ENDBRANCH  15  19
BRANCH  15  21
ATOM     21  C   UNL     1       4.402  -5.929  23.196  0.00  0.00    +0.195 C 
BRANCH  21  22
ATOM     22  O   UNL     1       4.591  -7.162  23.882  0.00  0.00    -0.392 OA
ATOM     23  H   UNL     1       4.645  -6.966  24.835  0.00  0.00    +0.210 HD
ENDBRANCH  21  22
ENDBRANCH  15  21
ENDBRANCH  11  12
ENDBRANCH   4  11
BRANCH   3  24
ATOM     24  O   UNL     1       6.047  -1.019  24.480  0.00  0.00    -0.453 OA
BRANCH  24  25
ATOM     25  C   UNL     1       5.391  -0.428  25.581  0.00  0.00    +0.214 A 
ATOM     26  C   UNL     1       4.912   1.012  25.540  0.00  0.00    +0.238 A 
ATOM     27  O   UNL     1       4.859   1.695  24.526  0.00  0.00    -0.283 OA
ATOM     28  C   UNL     1       4.431   1.640  26.762  0.00  0.00    +0.109 A 
ATOM     29  C   UNL     1       4.231   0.819  27.856  0.00  0.00    +0.147 A 
ATOM     30  C   UNL     1       3.690   1.350  29.039  0.00  0.00    +0.092 A 
ATOM     31  C   UNL     1       3.363   2.705  29.082  0.00  0.00    +0.124 A 
ATOM     32  C   UNL     1       3.571   3.536  27.991  0.00  0.00    +0.091 A 
ATOM     33  O   UNL     1       4.512  -0.518  27.839  0.00  0.00    -0.451 OA
ATOM     34  C   UNL     1       4.114   3.006  26.830  0.00  0.00    +0.135 A 
ATOM     35  C   UNL     1       5.122  -1.111  26.726  0.00  0.00    +0.181 A 
BRANCH  35  36
ATOM     36  C   UNL     1       5.326  -2.584  26.981  0.00  0.00    +0.025 A 
ATOM     37  C   UNL     1       4.203  -3.451  26.921  0.00  0.00    +0.015 A 
ATOM     38  C   UNL     1       4.335  -4.844  26.849  0.00  0.00    +0.050 A 
ATOM     39  C   UNL     1       5.600  -5.396  26.875  0.00  0.00    +0.158 A 
ATOM     40  C   UNL     1       6.711  -4.585  27.064  0.00  0.00    +0.159 A 
ATOM     41  C   UNL     1       6.590  -3.191  27.106  0.00  0.00    +0.060 A 
BRANCH  39  42
ATOM     42  O   UNL     1       5.748  -6.740  26.685  0.00  0.00    -0.503 OA
ATOM     43  H   UNL     1       5.529  -6.881  25.742  0.00  0.00    +0.292 HD
ENDBRANCH  39  42
BRANCH  40  44
ATOM     44  O   UNL     1       7.926  -5.208  27.176  0.00  0.00    -0.503 OA
ATOM     45  H   UNL     1       8.051  -5.745  26.375  0.00  0.00    +0.292 HD
ENDBRANCH  40  44
ENDBRANCH  35  36
BRANCH  34  46
ATOM     46  O   UNL     1       4.333   3.848  25.776  0.00  0.00    -0.506 OA
ATOM     47  H   UNL     1       4.972   3.463  25.157  0.00  0.00    +0.292 HD
ENDBRANCH  34  46
BRANCH  31  48
ATOM     48  O   UNL     1       2.825   3.282  30.192  0.00  0.00    -0.507 OA
ATOM     49  H   UNL     1       2.083   2.738  30.499  0.00  0.00    +0.292 HD
ENDBRANCH  31  48
ENDBRANCH  24  25
ENDBRANCH   3  24
BRANCH   1  50
ATOM     50  C   UNL     1       9.128   2.310  24.751  0.00  0.00    +0.197 C 
BRANCH  50  51
ATOM     51  O   UNL     1       7.802   2.785  24.548  0.00  0.00    -0.346 OA
BRANCH  51  55
ATOM     52  C   UNL     1       8.088   7.108  24.687  0.00  0.00    +0.041 C 
ATOM     53  C   UNL     1       6.800   6.293  24.645  0.00  0.00    +0.149 C 
ATOM     54  O   UNL     1       7.012   4.932  25.036  0.00  0.00    -0.343 OA
ATOM     55  C   UNL     1       7.742   4.136  24.106  0.00  0.00    +0.282 C 
ATOM     56  C   UNL     1       7.072   4.092  22.717  0.00  0.00    +0.201 C 
ATOM     57  C   UNL     1       6.716   5.496  22.219  0.00  0.00    +0.179 C 
ATOM     58  C   UNL     1       6.033   6.325  23.314  0.00  0.00    +0.174 C 
BRANCH  56  59
ATOM     59  O   UNL     1       7.935   3.434  21.771  0.00  0.00    -0.384 OA
ATOM     60  H   UNL     1       8.455   4.120  21.313  0.00  0.00    +0.210 HD
ENDBRANCH  56  59
BRANCH  57  61
ATOM     61  O   UNL     1       7.874   6.153  21.683  0.00  0.00    -0.386 OA
ATOM     62  H   UNL     1       8.195   5.676  20.898  0.00  0.00    +0.210 HD
ENDBRANCH  57  61
BRANCH  58  63
ATOM     63  O   UNL     1       4.723   5.776  23.550  0.00  0.00    -0.387 OA
ATOM     64  H   UNL     1       4.099   6.212  22.935  0.00  0.00    +0.210 HD
ENDBRANCH  58  63
ENDBRANCH  51  55
ENDBRANCH  50  51
ENDBRANCH   1  50
TORSDOF 21
ENDMDL
MODEL 9
REMARK VINA RESULT:      -7.1      1.785      5.188
REMARK  Name = 
REMARK  22 active torsions:
REMARK  status: ('A' for Active; 'I' for Inactive)
REMARK    1  A    between atoms: C_1  and  C_2
REMARK    2  A    between atoms: C_4  and  O_64
REMARK    3  A    between atoms: C_6  and  O_63
REMARK    4  A    between atoms: C_8  and  O_62
REMARK    5  A    between atoms: C_10  and  O_13
REMARK    6  A    between atoms: O_13  and  C_14
REMARK    7  A    between atoms: C_14  and  C_15
REMARK    8  A    between atoms: C_17  and  O_61
REMARK    9  A    between atoms: C_19  and  O_60
REMARK   10  A    between atoms: C_21  and  O_48
REMARK   11  A    between atoms: C_23  and  O_26
REMARK   12  A    between atoms: O_26  and  C_27
REMARK   13  A    between atoms: C_28  and  C_40
REMARK   14  A    between atoms: C_32  and  O_39
REMARK   15  A    between atoms: C_34  and  O_38
REMARK   16  A    between atoms: C_42  and  O_47
REMARK   17  A    between atoms: C_43  and  O_46
REMARK   18  A    between atoms: O_48  and  C_49
REMARK   19  A    between atoms: C_51  and  O_59
REMARK   20  A    between atoms: C_53  and  C_56
REMARK   21  A    between atoms: C_53  and  O_58
REMARK   22  A    between atoms: C_56  and  O_57
REMARK                            x       y       z     vdW  Elec       q    Type
REMARK                         _______ _______ _______ _____ _____    ______ ____
ROOT
ATOM      1  C   UNL     1       8.956  -1.315  24.891  0.00  0.00    +0.179 C 
ATOM      2  O   UNL     1       7.752  -1.383  25.647  0.00  0.00    -0.331 OA
ATOM      3  C   UNL     1       7.825  -2.325  26.706  0.00  0.00    +0.340 C 
ATOM      4  C   UNL     1       7.892  -3.764  26.116  0.00  0.00    +0.221 C 
ATOM      5  C   UNL     1       9.054  -3.781  25.066  0.00  0.00    +0.180 C 
ATOM      6  C   UNL     1       9.025  -2.598  24.080  0.00  0.00    +0.177 C 
ENDROOT
BRANCH   5   7
ATOM      7  O   UNL     1       9.058  -4.995  24.296  0.00  0.00    -0.386 OA
ATOM      8  H   UNL     1       9.851  -5.478  24.609  0.00  0.00    +0.210 HD
ENDBRANCH   5   7
BRANCH   6   9
ATOM      9  O   UNL     1      10.200  -2.642  23.259  0.00  0.00    -0.386 OA
ATOM     10  H   UNL     1      10.216  -3.531  22.858  0.00  0.00    +0.210 HD
ENDBRANCH   6   9
BRANCH   4  11
ATOM     11  O   UNL     1       8.273  -4.748  27.108  0.00  0.00    -0.337 OA
BRANCH  11  12
ATOM     12  C   UNL     1       7.373  -5.832  27.267  0.00  0.00    +0.282 C 
ATOM     13  O   UNL     1       6.753  -6.196  26.036  0.00  0.00    -0.346 OA
ATOM     14  C   UNL     1       5.341  -6.324  26.201  0.00  0.00    +0.202 C 
ATOM     15  C   UNL     1       5.092  -6.326  27.702  0.00  0.00    +0.142 C 
ATOM     16  C   UNL     1       6.222  -5.430  28.200  0.00  0.00    +0.206 C 
BRANCH  16  17
ATOM     17  O   UNL     1       6.506  -5.642  29.582  0.00  0.00    -0.384 OA
ATOM     18  H   UNL     1       7.026  -4.874  29.888  0.00  0.00    +0.210 HD
ENDBRANCH  16  17
BRANCH  15  19
ATOM     19  O   UNL     1       5.276  -7.650  28.252  0.00  0.00    -0.381 OA
ATOM     20  H   UNL     1       4.714  -8.273  27.756  0.00  0.00    +0.210 HD
ENDBRANCH  15  19
BRANCH  15  21
ATOM     21  C   UNL     1       3.685  -5.839  28.047  0.00  0.00    +0.195 C 
BRANCH  21  22
ATOM     22  O   UNL     1       3.690  -4.791  29.011  0.00  0.00    -0.392 OA
ATOM     23  H   UNL     1       4.454  -4.933  29.599  0.00  0.00    +0.210 HD
ENDBRANCH  21  22
ENDBRANCH  15  21
ENDBRANCH  11  12
ENDBRANCH   4  11
BRANCH   3  24
ATOM     24  O   UNL     1       6.715  -1.990  27.556  0.00  0.00    -0.453 OA
BRANCH  24  25
ATOM     25  C   UNL     1       5.945  -0.891  27.119  0.00  0.00    +0.214 A 
ATOM     26  C   UNL     1       6.234   0.521  27.598  0.00  0.00    +0.238 A 
ATOM     27  O   UNL     1       7.242   0.852  28.207  0.00  0.00    -0.283 OA
ATOM     28  C   UNL     1       5.292   1.587  27.288  0.00  0.00    +0.109 A 
ATOM     29  C   UNL     1       4.288   1.297  26.382  0.00  0.00    +0.147 A 
ATOM     30  C   UNL     1       3.399   2.307  25.979  0.00  0.00    +0.092 A 
ATOM     31  C   UNL     1       3.551   3.590  26.505  0.00  0.00    +0.124 A 
ATOM     32  C   UNL     1       4.550   3.884  27.421  0.00  0.00    +0.091 A 
ATOM     33  O   UNL     1       4.129   0.061  25.825  0.00  0.00    -0.451 OA
ATOM     34  C   UNL     1       5.418   2.879  27.821  0.00  0.00    +0.135 A 
ATOM     35  C   UNL     1       4.926  -1.019  26.229  0.00  0.00    +0.181 A 
BRANCH  35  36
ATOM     36  C   UNL     1       4.529  -2.259  25.465  0.00  0.00    +0.025 A 
ATOM     37  C   UNL     1       3.374  -2.975  25.876  0.00  0.00    +0.015 A 
ATOM     38  C   UNL     1       2.767  -3.945  25.067  0.00  0.00    +0.050 A 
ATOM     39  C   UNL     1       3.333  -4.242  23.844  0.00  0.00    +0.158 A 
ATOM     40  C   UNL     1       4.534  -3.654  23.469  0.00  0.00    +0.159 A 
ATOM     41  C   UNL     1       5.130  -2.662  24.258  0.00  0.00    +0.060 A 
BRANCH  39  42
ATOM     42  O   UNL     1       2.686  -5.096  22.998  0.00  0.00    -0.503 OA
ATOM     43  H   UNL     1       3.323  -5.824  22.849  0.00  0.00    +0.292 HD
ENDBRANCH  39  42
BRANCH  40  44
ATOM     44  O   UNL     1       5.087  -4.066  22.286  0.00  0.00    -0.503 OA
ATOM     45  H   UNL     1       4.372  -4.448  21.749  0.00  0.00    +0.292 HD
ENDBRANCH  40  44
ENDBRANCH  35  36
BRANCH  34  46
ATOM     46  O   UNL     1       6.379   3.186  28.744  0.00  0.00    -0.506 OA
ATOM     47  H   UNL     1       6.453   4.146  28.856  0.00  0.00    +0.292 HD
ENDBRANCH  34  46
BRANCH  31  48
ATOM     48  O   UNL     1       2.731   4.616  26.149  0.00  0.00    -0.507 OA
ATOM     49  H   UNL     1       2.459   4.495  25.225  0.00  0.00    +0.292 HD
ENDBRANCH  31  48
ENDBRANCH  24  25
ENDBRANCH   3  24
BRANCH   1  50
ATOM     50  C   UNL     1       8.875  -0.034  24.070  0.00  0.00    +0.197 C 
BRANCH  50  51
ATOM     51  O   UNL     1       9.714   0.932  24.692  0.00  0.00    -0.346 OA
BRANCH  51  55
ATOM     52  C   UNL     1       8.010   4.727  25.906  0.00  0.00    +0.041 C 
ATOM     53  C   UNL     1       7.313   3.651  25.081  0.00  0.00    +0.149 C 
ATOM     54  O   UNL     1       7.949   2.376  25.212  0.00  0.00    -0.343 OA
ATOM     55  C   UNL     1       9.226   2.263  24.587  0.00  0.00    +0.282 C 
ATOM     56  C   UNL     1       9.168   2.570  23.076  0.00  0.00    +0.201 C 
ATOM     57  C   UNL     1       8.430   3.882  22.795  0.00  0.00    +0.179 C 
ATOM     58  C   UNL     1       7.122   3.972  23.591  0.00  0.00    +0.174 C 
BRANCH  56  59
ATOM     59  O   UNL     1      10.500   2.623  22.530  0.00  0.00    -0.384 OA
ATOM     60  H   UNL     1      11.127   2.434  23.253  0.00  0.00    +0.210 HD
ENDBRANCH  56  59
BRANCH  57  61
ATOM     61  O   UNL     1       9.289   5.008  23.031  0.00  0.00    -0.386 OA
ATOM     62  H   UNL     1       9.205   5.649  22.304  0.00  0.00    +0.210 HD
ENDBRANCH  57  61
BRANCH  58  63
ATOM     63  O   UNL     1       6.194   3.014  23.051  0.00  0.00    -0.387 OA
ATOM     64  H   UNL     1       6.423   2.135  23.415  0.00  0.00    +0.210 HD
ENDBRANCH  58  63
ENDBRANCH  51  55
ENDBRANCH  50  51
ENDBRANCH   1  50
TORSDOF 21
ENDMDL
