MODEL 1
REMARK VINA RESULT:      -8.1      0.000      0.000
REMARK  Name = 
REMARK  17 active torsions:
REMARK  status: ('A' for Active; 'I' for Inactive)
REMARK    1  A    between atoms: C_1  and  C_2
REMARK    2  A    between atoms: C_4  and  O_53
REMARK    3  A    between atoms: C_6  and  O_52
REMARK    4  A    between atoms: C_8  and  O_51
REMARK    5  A    between atoms: C_10  and  O_13
REMARK    6  A    between atoms: O_13  and  C_14
REMARK    7  A    between atoms: C_14  and  C_15
REMARK    8  A    between atoms: C_17  and  O_50
REMARK    9  A    between atoms: C_19  and  O_49
REMARK   10  A    between atoms: C_21  and  O_48
REMARK   11  A    between atoms: C_23  and  O_26
REMARK   12  A    between atoms: O_26  and  C_27
REMARK   13  A    between atoms: C_29  and  O_47
REMARK   14  A    between atoms: C_34  and  C_39
REMARK   15  A    between atoms: C_35  and  O_38
REMARK   16  A    between atoms: C_41  and  O_46
REMARK   17  A    between atoms: C_42  and  O_45
REMARK                            x       y       z     vdW  Elec       q    Type
REMARK                         _______ _______ _______ _____ _____    ______ ____
ROOT
ATOM      1  C   UNL     1       3.122  -5.182  26.176  0.00  0.00    +0.179 C 
ATOM      2  O   UNL     1       3.912  -4.864  25.009  0.00  0.00    -0.331 OA
ATOM      3  C   UNL     1       3.331  -5.393  23.806  0.00  0.00    +0.339 C 
ATOM      4  C   UNL     1       3.306  -6.937  23.868  0.00  0.00    +0.214 C 
ATOM      5  C   UNL     1       2.617  -7.390  25.168  0.00  0.00    +0.180 C 
ATOM      6  C   UNL     1       3.196  -6.692  26.405  0.00  0.00    +0.177 C 
ENDROOT
BRANCH   6   7
ATOM      7  O   UNL     1       4.546  -7.123  26.615  0.00  0.00    -0.386 OA
ATOM      8  H   UNL     1       4.526  -7.868  27.249  0.00  0.00    +0.210 HD
ENDBRANCH   6   7
BRANCH   5   9
ATOM      9  O   UNL     1       2.682  -8.818  25.272  0.00  0.00    -0.386 OA
ATOM     10  H   UNL     1       1.777  -9.141  25.454  0.00  0.00    +0.210 HD
ENDBRANCH   5   9
BRANCH   4  11
ATOM     11  O   UNL     1       2.573  -7.470  22.752  0.00  0.00    -0.383 OA
ATOM     12  H   UNL     1       3.181  -8.086  22.297  0.00  0.00    +0.210 HD
ENDBRANCH   4  11
BRANCH   3  13
ATOM     13  O   UNL     1       4.089  -4.985  22.647  0.00  0.00    -0.461 OA
BRANCH  13  14
ATOM     14  C   UNL     1       5.342  -4.482  22.892  0.00  0.00    +0.131 A 
ATOM     15  C   UNL     1       5.500  -3.095  22.752  0.00  0.00    +0.093 A 
ATOM     16  C   UNL     1       6.747  -2.485  22.979  0.00  0.00    +0.147 A 
ATOM     17  O   UNL     1       6.816  -1.122  22.809  0.00  0.00    -0.451 OA
ATOM     18  C   UNL     1       8.009  -0.466  23.085  0.00  0.00    +0.181 A 
ATOM     19  C   UNL     1       9.127  -1.097  23.512  0.00  0.00    +0.208 A 
ATOM     20  C   UNL     1       9.124  -2.587  23.609  0.00  0.00    +0.238 A 
ATOM     21  O   UNL     1      10.158  -3.184  23.890  0.00  0.00    -0.283 OA
ATOM     22  C   UNL     1       7.841  -3.267  23.356  0.00  0.00    +0.109 A 
ATOM     23  C   UNL     1       7.683  -4.655  23.475  0.00  0.00    +0.135 A 
ATOM     24  C   UNL     1       6.447  -5.260  23.230  0.00  0.00    +0.092 A 
BRANCH  18  25
ATOM     25  C   UNL     1       7.943   1.019  22.853  0.00  0.00    +0.025 A 
ATOM     26  C   UNL     1       6.803   1.618  22.279  0.00  0.00    +0.015 A 
ATOM     27  C   UNL     1       6.759   2.990  22.004  0.00  0.00    +0.050 A 
ATOM     28  C   UNL     1       7.832   3.784  22.360  0.00  0.00    +0.158 A 
ATOM     29  C   UNL     1       8.939   3.226  22.988  0.00  0.00    +0.159 A 
ATOM     30  C   UNL     1       9.006   1.852  23.227  0.00  0.00    +0.060 A 
BRANCH  29  31
ATOM     31  O   UNL     1       9.943   4.080  23.359  0.00  0.00    -0.503 OA
ATOM     32  H   UNL     1      10.630   3.567  23.816  0.00  0.00    +0.292 HD
ENDBRANCH  29  31
BRANCH  28  33
ATOM     33  O   UNL     1       7.781   5.125  22.106  0.00  0.00    -0.503 OA
ATOM     34  H   UNL     1       8.453   5.517  22.698  0.00  0.00    +0.292 HD
ENDBRANCH  28  33
ENDBRANCH  18  25
BRANCH  23  35
ATOM     35  O   UNL     1       8.725  -5.454  23.850  0.00  0.00    -0.506 OA
ATOM     36  H   UNL     1       9.121  -5.127  24.674  0.00  0.00    +0.292 HD
ENDBRANCH  23  35
BRANCH  19  37
ATOM     37  O   UNL     1      10.307  -0.468  23.878  0.00  0.00    -0.501 OA
ATOM     38  H   UNL     1      11.047  -0.892  23.415  0.00  0.00    +0.292 HD
ENDBRANCH  19  37
ENDBRANCH  13  14
ENDBRANCH   3  13
BRANCH   1  39
ATOM     39  C   UNL     1       3.655  -4.397  27.377  0.00  0.00    +0.197 C 
BRANCH  39  40
ATOM     40  O   UNL     1       5.030  -4.101  27.108  0.00  0.00    -0.346 OA
BRANCH  40  44
ATOM     41  C   UNL     1       4.635  -0.068  28.721  0.00  0.00    +0.041 C 
ATOM     42  C   UNL     1       4.421  -0.516  27.279  0.00  0.00    +0.149 C 
ATOM     43  O   UNL     1       4.216  -1.930  27.177  0.00  0.00    -0.343 OA
ATOM     44  C   UNL     1       5.371  -2.741  27.396  0.00  0.00    +0.282 C 
ATOM     45  C   UNL     1       6.542  -2.371  26.457  0.00  0.00    +0.201 C 
ATOM     46  C   UNL     1       6.806  -0.861  26.432  0.00  0.00    +0.179 C 
ATOM     47  C   UNL     1       5.503  -0.068  26.284  0.00  0.00    +0.174 C 
BRANCH  47  48
ATOM     48  O   UNL     1       4.998  -0.273  24.953  0.00  0.00    -0.387 OA
ATOM     49  H   UNL     1       4.343   0.425  24.767  0.00  0.00    +0.210 HD
ENDBRANCH  47  48
BRANCH  46  50
ATOM     50  O   UNL     1       7.564  -0.447  27.578  0.00  0.00    -0.386 OA
ATOM     51  H   UNL     1       7.827  -1.219  28.105  0.00  0.00    +0.210 HD
ENDBRANCH  46  50
BRANCH  45  52
ATOM     52  O   UNL     1       7.736  -3.075  26.844  0.00  0.00    -0.384 OA
ATOM     53  H   UNL     1       7.635  -3.349  27.776  0.00  0.00    +0.210 HD
ENDBRANCH  45  52
ENDBRANCH  40  44
ENDBRANCH  39  40
ENDBRANCH   1  39
TORSDOF 16
ENDMDL
MODEL 2
REMARK VINA RESULT:      -7.6      1.847      4.216
REMARK  Name = 
REMARK  17 active torsions:
REMARK  status: ('A' for Active; 'I' for Inactive)
REMARK    1  A    between atoms: C_1  and  C_2
REMARK    2  A    between atoms: C_4  and  O_53
REMARK    3  A    between atoms: C_6  and  O_52
REMARK    4  A    between atoms: C_8  and  O_51
REMARK    5  A    between atoms: C_10  and  O_13
REMARK    6  A    between atoms: O_13  and  C_14
REMARK    7  A    between atoms: C_14  and  C_15
REMARK    8  A    between atoms: C_17  and  O_50
REMARK    9  A    between atoms: C_19  and  O_49
REMARK   10  A    between atoms: C_21  and  O_48
REMARK   11  A    between atoms: C_23  and  O_26
REMARK   12  A    between atoms: O_26  and  C_27
REMARK   13  A    between atoms: C_29  and  O_47
REMARK   14  A    between atoms: C_34  and  C_39
REMARK   15  A    between atoms: C_35  and  O_38
REMARK   16  A    between atoms: C_41  and  O_46
REMARK   17  A    between atoms: C_42  and  O_45
REMARK                            x       y       z     vdW  Elec       q    Type
REMARK                         _______ _______ _______ _____ _____    ______ ____
ROOT
ATOM      1  C   UNL     1       4.914  -6.744  26.370  0.00  0.00    +0.179 C 
ATOM      2  O   UNL     1       5.362  -5.377  26.502  0.00  0.00    -0.331 OA
ATOM      3  C   UNL     1       5.995  -5.139  27.770  0.00  0.00    +0.339 C 
ATOM      4  C   UNL     1       4.974  -5.341  28.913  0.00  0.00    +0.214 C 
ATOM      5  C   UNL     1       4.312  -6.724  28.776  0.00  0.00    +0.180 C 
ATOM      6  C   UNL     1       3.771  -6.969  27.362  0.00  0.00    +0.177 C 
ENDROOT
BRANCH   6   7
ATOM      7  O   UNL     1       2.674  -6.084  27.103  0.00  0.00    -0.386 OA
ATOM      8  H   UNL     1       1.962  -6.298  27.740  0.00  0.00    +0.210 HD
ENDBRANCH   6   7
BRANCH   5   9
ATOM      9  O   UNL     1       3.297  -6.872  29.776  0.00  0.00    -0.386 OA
ATOM     10  H   UNL     1       3.733  -7.182  30.594  0.00  0.00    +0.210 HD
ENDBRANCH   5   9
BRANCH   4  11
ATOM     11  O   UNL     1       5.634  -5.275  30.189  0.00  0.00    -0.383 OA
ATOM     12  H   UNL     1       6.084  -4.408  30.218  0.00  0.00    +0.210 HD
ENDBRANCH   4  11
BRANCH   3  13
ATOM     13  O   UNL     1       6.512  -3.793  27.840  0.00  0.00    -0.461 OA
BRANCH  13  14
ATOM     14  C   UNL     1       7.347  -3.413  26.820  0.00  0.00    +0.131 A 
ATOM     15  C   UNL     1       7.112  -2.151  26.254  0.00  0.00    +0.093 A 
ATOM     16  C   UNL     1       7.914  -1.673  25.201  0.00  0.00    +0.147 A 
ATOM     17  O   UNL     1       7.608  -0.431  24.697  0.00  0.00    -0.451 OA
ATOM     18  C   UNL     1       8.411   0.112  23.701  0.00  0.00    +0.181 A 
ATOM     19  C   UNL     1       9.489  -0.521  23.184  0.00  0.00    +0.208 A 
ATOM     20  C   UNL     1       9.792  -1.914  23.629  0.00  0.00    +0.238 A 
ATOM     21  O   UNL     1      10.699  -2.543  23.095  0.00  0.00    -0.283 OA
ATOM     22  C   UNL     1       8.960  -2.460  24.717  0.00  0.00    +0.109 A 
ATOM     23  C   UNL     1       9.178  -3.729  25.272  0.00  0.00    +0.135 A 
ATOM     24  C   UNL     1       8.368  -4.209  26.305  0.00  0.00    +0.092 A 
BRANCH  18  25
ATOM     25  C   UNL     1       7.960   1.472  23.244  0.00  0.00    +0.025 A 
ATOM     26  C   UNL     1       6.726   1.648  22.583  0.00  0.00    +0.015 A 
ATOM     27  C   UNL     1       6.329   2.901  22.100  0.00  0.00    +0.050 A 
ATOM     28  C   UNL     1       7.135   3.999  22.330  0.00  0.00    +0.158 A 
ATOM     29  C   UNL     1       8.323   3.861  23.037  0.00  0.00    +0.159 A 
ATOM     30  C   UNL     1       8.745   2.607  23.485  0.00  0.00    +0.060 A 
BRANCH  29  31
ATOM     31  O   UNL     1       9.046   4.999  23.272  0.00  0.00    -0.503 OA
ATOM     32  H   UNL     1       8.709   5.416  24.084  0.00  0.00    +0.292 HD
ENDBRANCH  29  31
BRANCH  28  33
ATOM     33  O   UNL     1       6.738   5.222  21.872  0.00  0.00    -0.503 OA
ATOM     34  H   UNL     1       6.128   5.027  21.134  0.00  0.00    +0.292 HD
ENDBRANCH  28  33
ENDBRANCH  18  25
BRANCH  23  35
ATOM     35  O   UNL     1      10.196  -4.526  24.833  0.00  0.00    -0.506 OA
ATOM     36  H   UNL     1      10.942  -4.493  25.454  0.00  0.00    +0.292 HD
ENDBRANCH  23  35
BRANCH  19  37
ATOM     37  O   UNL     1      10.361   0.022  22.253  0.00  0.00    -0.501 OA
ATOM     38  H   UNL     1      11.016   0.569  22.715  0.00  0.00    +0.292 HD
ENDBRANCH  19  37
ENDBRANCH  13  14
ENDBRANCH   3  13
BRANCH   1  39
ATOM     39  C   UNL     1       4.473  -6.995  24.926  0.00  0.00    +0.197 C 
BRANCH  39  40
ATOM     40  O   UNL     1       4.084  -5.730  24.380  0.00  0.00    -0.346 OA
BRANCH  40  44
ATOM     41  C   UNL     1       5.776  -6.173  20.385  0.00  0.00    +0.041 C 
ATOM     42  C   UNL     1       6.502  -6.300  21.720  0.00  0.00    +0.149 C 
ATOM     43  O   UNL     1       5.597  -6.518  22.809  0.00  0.00    -0.343 OA
ATOM     44  C   UNL     1       4.811  -5.390  23.195  0.00  0.00    +0.282 C 
ATOM     45  C   UNL     1       5.675  -4.156  23.545  0.00  0.00    +0.201 C 
ATOM     46  C   UNL     1       6.734  -3.872  22.475  0.00  0.00    +0.179 C 
ATOM     47  C   UNL     1       7.466  -5.152  22.057  0.00  0.00    +0.174 C 
BRANCH  47  48
ATOM     48  O   UNL     1       8.298  -5.574  23.151  0.00  0.00    -0.387 OA
ATOM     49  H   UNL     1       7.776  -6.176  23.714  0.00  0.00    +0.210 HD
ENDBRANCH  47  48
BRANCH  46  50
ATOM     50  O   UNL     1       6.165  -3.182  21.352  0.00  0.00    -0.386 OA
ATOM     51  H   UNL     1       5.957  -3.810  20.641  0.00  0.00    +0.210 HD
ENDBRANCH  46  50
BRANCH  45  52
ATOM     52  O   UNL     1       4.842  -2.999  23.736  0.00  0.00    -0.384 OA
ATOM     53  H   UNL     1       4.291  -3.152  24.528  0.00  0.00    +0.210 HD
ENDBRANCH  45  52
ENDBRANCH  40  44
ENDBRANCH  39  40
ENDBRANCH   1  39
TORSDOF 16
ENDMDL
MODEL 3
REMARK VINA RESULT:      -7.5      1.475      2.203
REMARK  Name = 
REMARK  17 active torsions:
REMARK  status: ('A' for Active; 'I' for Inactive)
REMARK    1  A    between atoms: C_1  and  C_2
REMARK    2  A    between atoms: C_4  and  O_53
REMARK    3  A    between atoms: C_6  and  O_52
REMARK    4  A    between atoms: C_8  and  O_51
REMARK    5  A    between atoms: C_10  and  O_13
REMARK    6  A    between atoms: O_13  and  C_14
REMARK    7  A    between atoms: C_14  and  C_15
REMARK    8  A    between atoms: C_17  and  O_50
REMARK    9  A    between atoms: C_19  and  O_49
REMARK   10  A    between atoms: C_21  and  O_48
REMARK   11  A    between atoms: C_23  and  O_26
REMARK   12  A    between atoms: O_26  and  C_27
REMARK   13  A    between atoms: C_29  and  O_47
REMARK   14  A    between atoms: C_34  and  C_39
REMARK   15  A    between atoms: C_35  and  O_38
REMARK   16  A    between atoms: C_41  and  O_46
REMARK   17  A    between atoms: C_42  and  O_45
REMARK                            x       y       z     vdW  Elec       q    Type
REMARK                         _______ _______ _______ _____ _____    ______ ____
ROOT
ATOM      1  C   UNL     1       4.659  -4.390  25.924  0.00  0.00    +0.179 C 
ATOM      2  O   UNL     1       5.431  -3.907  24.802  0.00  0.00    -0.331 OA
ATOM      3  C   UNL     1       4.822  -4.247  23.545  0.00  0.00    +0.339 C 
ATOM      4  C   UNL     1       4.785  -5.784  23.378  0.00  0.00    +0.214 C 
ATOM      5  C   UNL     1       4.115  -6.420  24.609  0.00  0.00    +0.180 C 
ATOM      6  C   UNL     1       4.722  -5.918  25.924  0.00  0.00    +0.177 C 
ENDROOT
BRANCH   6   7
ATOM      7  O   UNL     1       6.073  -6.384  26.043  0.00  0.00    -0.386 OA
ATOM      8  H   UNL     1       6.300  -6.403  26.994  0.00  0.00    +0.210 HD
ENDBRANCH   6   7
BRANCH   5   9
ATOM      9  O   UNL     1       4.168  -7.848  24.499  0.00  0.00    -0.386 OA
ATOM     10  H   UNL     1       3.907  -8.220  25.364  0.00  0.00    +0.210 HD
ENDBRANCH   5   9
BRANCH   4  11
ATOM     11  O   UNL     1       4.027  -6.140  22.209  0.00  0.00    -0.383 OA
ATOM     12  H   UNL     1       4.622  -6.002  21.447  0.00  0.00    +0.210 HD
ENDBRANCH   4  11
BRANCH   3  13
ATOM     13  O   UNL     1       5.564  -3.677  22.446  0.00  0.00    -0.461 OA
BRANCH  13  14
ATOM     14  C   UNL     1       6.611  -2.857  22.784  0.00  0.00    +0.131 A 
ATOM     15  C   UNL     1       6.346  -1.479  22.812  0.00  0.00    +0.093 A 
ATOM     16  C   UNL     1       7.355  -0.558  23.146  0.00  0.00    +0.147 A 
ATOM     17  O   UNL     1       7.013   0.774  23.138  0.00  0.00    -0.451 OA
ATOM     18  C   UNL     1       7.958   1.717  23.524  0.00  0.00    +0.181 A 
ATOM     19  C   UNL     1       9.216   1.400  23.906  0.00  0.00    +0.208 A 
ATOM     20  C   UNL     1       9.659  -0.024  23.827  0.00  0.00    +0.238 A 
ATOM     21  O   UNL     1      10.826  -0.316  24.066  0.00  0.00    -0.283 OA
ATOM     22  C   UNL     1       8.636  -1.019  23.459  0.00  0.00    +0.109 A 
ATOM     23  C   UNL     1       8.901  -2.395  23.410  0.00  0.00    +0.135 A 
ATOM     24  C   UNL     1       7.901  -3.306  23.060  0.00  0.00    +0.092 A 
BRANCH  18  25
ATOM     25  C   UNL     1       7.449   3.131  23.466  0.00  0.00    +0.025 A 
ATOM     26  C   UNL     1       6.723   3.690  24.538  0.00  0.00    +0.015 A 
ATOM     27  C   UNL     1       6.194   4.985  24.466  0.00  0.00    +0.050 A 
ATOM     28  C   UNL     1       6.442   5.753  23.345  0.00  0.00    +0.158 A 
ATOM     29  C   UNL     1       7.212   5.247  22.304  0.00  0.00    +0.159 A 
ATOM     30  C   UNL     1       7.706   3.942  22.352  0.00  0.00    +0.060 A 
BRANCH  29  31
ATOM     31  O   UNL     1       7.459   6.081  21.247  0.00  0.00    -0.503 OA
ATOM     32  H   UNL     1       6.990   5.739  20.468  0.00  0.00    +0.292 HD
ENDBRANCH  29  31
BRANCH  28  33
ATOM     33  O   UNL     1       5.939   7.020  23.282  0.00  0.00    -0.503 OA
ATOM     34  H   UNL     1       5.132   6.996  23.833  0.00  0.00    +0.292 HD
ENDBRANCH  28  33
ENDBRANCH  18  25
BRANCH  23  35
ATOM     35  O   UNL     1      10.137  -2.887  23.719  0.00  0.00    -0.506 OA
ATOM     36  H   UNL     1      10.192  -3.829  23.489  0.00  0.00    +0.292 HD
ENDBRANCH  23  35
BRANCH  19  37
ATOM     37  O   UNL     1      10.158   2.303  24.377  0.00  0.00    -0.501 OA
ATOM     38  H   UNL     1       9.737   3.171  24.483  0.00  0.00    +0.292 HD
ENDBRANCH  19  37
ENDBRANCH  13  14
ENDBRANCH   3  13
BRANCH   1  39
ATOM     39  C   UNL     1       5.221  -3.796  27.218  0.00  0.00    +0.197 C 
BRANCH  39  40
ATOM     40  O   UNL     1       6.278  -2.906  26.846  0.00  0.00    -0.346 OA
BRANCH  40  44
ATOM     41  C   UNL     1       4.430   0.381  29.037  0.00  0.00    +0.041 C 
ATOM     42  C   UNL     1       4.423   0.151  27.530  0.00  0.00    +0.149 C 
ATOM     43  O   UNL     1       4.740  -1.204  27.188  0.00  0.00    -0.343 OA
ATOM     44  C   UNL     1       6.103  -1.586  27.373  0.00  0.00    +0.282 C 
ATOM     45  C   UNL     1       7.085  -0.670  26.607  0.00  0.00    +0.201 C 
ATOM     46  C   UNL     1       6.790   0.816  26.843  0.00  0.00    +0.179 C 
ATOM     47  C   UNL     1       5.294   1.117  26.712  0.00  0.00    +0.174 C 
BRANCH  47  48
ATOM     48  O   UNL     1       4.926   0.989  25.328  0.00  0.00    -0.387 OA
ATOM     49  H   UNL     1       5.361   1.707  24.831  0.00  0.00    +0.210 HD
ENDBRANCH  47  48
BRANCH  46  50
ATOM     50  O   UNL     1       7.325   1.257  28.099  0.00  0.00    -0.386 OA
ATOM     51  H   UNL     1       8.269   1.468  28.009  0.00  0.00    +0.210 HD
ENDBRANCH  46  50
BRANCH  45  52
ATOM     52  O   UNL     1       8.442  -0.970  26.976  0.00  0.00    -0.384 OA
ATOM     53  H   UNL     1       8.960  -1.081  26.156  0.00  0.00    +0.210 HD
ENDBRANCH  45  52
ENDBRANCH  40  44
ENDBRANCH  39  40
ENDBRANCH   1  39
TORSDOF 16
ENDMDL
MODEL 4
REMARK VINA RESULT:      -7.4      1.728      4.670
REMARK  Name = 
REMARK  17 active torsions:
REMARK  status: ('A' for Active; 'I' for Inactive)
REMARK    1  A    between atoms: C_1  and  C_2
REMARK    2  A    between atoms: C_4  and  O_53
REMARK    3  A    between atoms: C_6  and  O_52
REMARK    4  A    between atoms: C_8  and  O_51
REMARK    5  A    between atoms: C_10  and  O_13
REMARK    6  A    between atoms: O_13  and  C_14
REMARK    7  A    between atoms: C_14  and  C_15
REMARK    8  A    between atoms: C_17  and  O_50
REMARK    9  A    between atoms: C_19  and  O_49
REMARK   10  A    between atoms: C_21  and  O_48
REMARK   11  A    between atoms: C_23  and  O_26
REMARK   12  A    between atoms: O_26  and  C_27
REMARK   13  A    between atoms: C_29  and  O_47
REMARK   14  A    between atoms: C_34  and  C_39
REMARK   15  A    between atoms: C_35  and  O_38
REMARK   16  A    between atoms: C_41  and  O_46
REMARK   17  A    between atoms: C_42  and  O_45
REMARK                            x       y       z     vdW  Elec       q    Type
REMARK                         _______ _______ _______ _____ _____    ______ ____
ROOT
ATOM      1  C   UNL     1       5.408  -5.540  23.936  0.00  0.00    +0.179 C 
ATOM      2  O   UNL     1       4.517  -4.427  24.166  0.00  0.00    -0.331 OA
ATOM      3  C   UNL     1       4.126  -4.328  25.545  0.00  0.00    +0.339 C 
ATOM      4  C   UNL     1       3.320  -5.582  25.955  0.00  0.00    +0.214 C 
ATOM      5  C   UNL     1       4.122  -6.848  25.604  0.00  0.00    +0.180 C 
ATOM      6  C   UNL     1       4.622  -6.834  24.155  0.00  0.00    +0.177 C 
ENDROOT
BRANCH   6   7
ATOM      7  O   UNL     1       3.508  -6.926  23.257  0.00  0.00    -0.386 OA
ATOM      8  H   UNL     1       3.139  -7.829  23.332  0.00  0.00    +0.210 HD
ENDBRANCH   6   7
BRANCH   5   9
ATOM      9  O   UNL     1       3.334  -8.009  25.893  0.00  0.00    -0.386 OA
ATOM     10  H   UNL     1       3.115  -8.436  25.041  0.00  0.00    +0.210 HD
ENDBRANCH   5   9
BRANCH   4  11
ATOM     11  O   UNL     1       3.072  -5.575  27.372  0.00  0.00    -0.383 OA
ATOM     12  H   UNL     1       3.629  -6.284  27.748  0.00  0.00    +0.210 HD
ENDBRANCH   4  11
BRANCH   3  13
ATOM     13  O   UNL     1       3.310  -3.157  25.764  0.00  0.00    -0.461 OA
BRANCH  13  14
ATOM     14  C   UNL     1       3.906  -2.124  26.443  0.00  0.00    +0.131 A 
ATOM     15  C   UNL     1       4.894  -1.406  25.752  0.00  0.00    +0.093 A 
ATOM     16  C   UNL     1       5.563  -0.330  26.363  0.00  0.00    +0.147 A 
ATOM     17  O   UNL     1       6.525   0.312  25.619  0.00  0.00    -0.451 OA
ATOM     18  C   UNL     1       7.168   1.420  26.156  0.00  0.00    +0.181 A 
ATOM     19  C   UNL     1       6.905   1.911  27.389  0.00  0.00    +0.208 A 
ATOM     20  C   UNL     1       5.945   1.180  28.269  0.00  0.00    +0.238 A 
ATOM     21  O   UNL     1       5.776   1.546  29.427  0.00  0.00    -0.283 OA
ATOM     22  C   UNL     1       5.238   0.033  27.672  0.00  0.00    +0.109 A 
ATOM     23  C   UNL     1       4.265  -0.701  28.365  0.00  0.00    +0.135 A 
ATOM     24  C   UNL     1       3.615  -1.781  27.762  0.00  0.00    +0.092 A 
BRANCH  18  25
ATOM     25  C   UNL     1       8.194   2.021  25.235  0.00  0.00    +0.025 A 
ATOM     26  C   UNL     1       9.388   1.336  24.927  0.00  0.00    +0.015 A 
ATOM     27  C   UNL     1      10.375   1.916  24.121  0.00  0.00    +0.050 A 
ATOM     28  C   UNL     1      10.147   3.159  23.564  0.00  0.00    +0.158 A 
ATOM     29  C   UNL     1       8.949   3.824  23.799  0.00  0.00    +0.159 A 
ATOM     30  C   UNL     1       7.979   3.270  24.637  0.00  0.00    +0.060 A 
BRANCH  29  31
ATOM     31  O   UNL     1       8.771   5.029  23.175  0.00  0.00    -0.503 OA
ATOM     32  H   UNL     1       8.102   4.919  22.479  0.00  0.00    +0.292 HD
ENDBRANCH  29  31
BRANCH  28  33
ATOM     33  O   UNL     1      11.104   3.716  22.765  0.00  0.00    -0.503 OA
ATOM     34  H   UNL     1      11.918   3.214  22.963  0.00  0.00    +0.292 HD
ENDBRANCH  28  33
ENDBRANCH  18  25
BRANCH  23  35
ATOM     35  O   UNL     1       3.911  -0.373  29.643  0.00  0.00    -0.506 OA
ATOM     36  H   UNL     1       3.351  -1.067  30.027  0.00  0.00    +0.292 HD
ENDBRANCH  23  35
BRANCH  19  37
ATOM     37  O   UNL     1       7.464   3.062  27.925  0.00  0.00    -0.501 OA
ATOM     38  H   UNL     1       8.410   3.082  27.711  0.00  0.00    +0.292 HD
ENDBRANCH  19  37
ENDBRANCH  13  14
ENDBRANCH   3  13
BRANCH   1  39
ATOM     39  C   UNL     1       5.974  -5.450  22.516  0.00  0.00    +0.197 C 
BRANCH  39  40
ATOM     40  O   UNL     1       7.371  -5.163  22.639  0.00  0.00    -0.346 OA
BRANCH  40  44
ATOM     41  C   UNL     1       7.250  -0.808  22.840  0.00  0.00    +0.041 C 
ATOM     42  C   UNL     1       8.405  -1.684  22.365  0.00  0.00    +0.149 C 
ATOM     43  O   UNL     1       7.976  -3.009  22.029  0.00  0.00    -0.343 OA
ATOM     44  C   UNL     1       7.624  -3.844  23.133  0.00  0.00    +0.282 C 
ATOM     45  C   UNL     1       8.765  -3.971  24.169  0.00  0.00    +0.201 C 
ATOM     46  C   UNL     1       9.352  -2.607  24.549  0.00  0.00    +0.179 C 
ATOM     47  C   UNL     1       9.615  -1.745  23.310  0.00  0.00    +0.174 C 
BRANCH  47  48
ATOM     48  O   UNL     1      10.718  -2.319  22.586  0.00  0.00    -0.387 OA
ATOM     49  H   UNL     1      11.539  -1.898  22.903  0.00  0.00    +0.210 HD
ENDBRANCH  47  48
BRANCH  46  50
ATOM     50  O   UNL     1       8.525  -1.936  25.510  0.00  0.00    -0.386 OA
ATOM     51  H   UNL     1       8.863  -2.085  26.409  0.00  0.00    +0.210 HD
ENDBRANCH  46  50
BRANCH  45  52
ATOM     52  O   UNL     1       8.299  -4.655  25.346  0.00  0.00    -0.384 OA
ATOM     53  H   UNL     1       9.021  -5.229  25.666  0.00  0.00    +0.210 HD
ENDBRANCH  45  52
ENDBRANCH  40  44
ENDBRANCH  39  40
ENDBRANCH   1  39
TORSDOF 16
ENDMDL
MODEL 5
REMARK VINA RESULT:      -7.4      2.307      7.951
REMARK  Name = 
REMARK  17 active torsions:
REMARK  status: ('A' for Active; 'I' for Inactive)
REMARK    1  A    between atoms: C_1  and  C_2
REMARK    2  A    between atoms: C_4  and  O_53
REMARK    3  A    between atoms: C_6  and  O_52
REMARK    4  A    between atoms: C_8  and  O_51
REMARK    5  A    between atoms: C_10  and  O_13
REMARK    6  A    between atoms: O_13  and  C_14
REMARK    7  A    between atoms: C_14  and  C_15
REMARK    8  A    between atoms: C_17  and  O_50
REMARK    9  A    between atoms: C_19  and  O_49
REMARK   10  A    between atoms: C_21  and  O_48
REMARK   11  A    between atoms: C_23  and  O_26
REMARK   12  A    between atoms: O_26  and  C_27
REMARK   13  A    between atoms: C_29  and  O_47
REMARK   14  A    between atoms: C_34  and  C_39
REMARK   15  A    between atoms: C_35  and  O_38
REMARK   16  A    between atoms: C_41  and  O_46
REMARK   17  A    between atoms: C_42  and  O_45
REMARK                            x       y       z     vdW  Elec       q    Type
REMARK                         _______ _______ _______ _____ _____    ______ ____
ROOT
ATOM      1  C   UNL     1       5.699   3.376  24.398  0.00  0.00    +0.179 C 
ATOM      2  O   UNL     1       5.533   2.142  23.665  0.00  0.00    -0.331 OA
ATOM      3  C   UNL     1       6.757   1.719  23.041  0.00  0.00    +0.339 C 
ATOM      4  C   UNL     1       7.196   2.760  21.985  0.00  0.00    +0.214 C 
ATOM      5  C   UNL     1       7.254   4.156  22.631  0.00  0.00    +0.180 C 
ATOM      6  C   UNL     1       5.967   4.496  23.392  0.00  0.00    +0.177 C 
ENDROOT
BRANCH   6   7
ATOM      7  O   UNL     1       4.881   4.638  22.467  0.00  0.00    -0.386 OA
ATOM      8  H   UNL     1       4.047   4.516  22.965  0.00  0.00    +0.210 HD
ENDBRANCH   6   7
BRANCH   5   9
ATOM      9  O   UNL     1       7.565   5.134  21.630  0.00  0.00    -0.386 OA
ATOM     10  H   UNL     1       8.171   5.786  22.035  0.00  0.00    +0.210 HD
ENDBRANCH   5   9
BRANCH   4  11
ATOM     11  O   UNL     1       8.503   2.436  21.479  0.00  0.00    -0.383 OA
ATOM     12  H   UNL     1       9.131   2.639  22.199  0.00  0.00    +0.210 HD
ENDBRANCH   4  11
BRANCH   3  13
ATOM     13  O   UNL     1       6.586   0.441  22.392  0.00  0.00    -0.461 OA
BRANCH  13  14
ATOM     14  C   UNL     1       7.313  -0.602  22.910  0.00  0.00    +0.131 A 
ATOM     15  C   UNL     1       6.629  -1.478  23.766  0.00  0.00    +0.093 A 
ATOM     16  C   UNL     1       7.287  -2.576  24.349  0.00  0.00    +0.147 A 
ATOM     17  O   UNL     1       6.546  -3.378  25.184  0.00  0.00    -0.451 OA
ATOM     18  C   UNL     1       7.134  -4.511  25.732  0.00  0.00    +0.181 A 
ATOM     19  C   UNL     1       8.415  -4.876  25.495  0.00  0.00    +0.208 A 
ATOM     20  C   UNL     1       9.285  -3.975  24.679  0.00  0.00    +0.238 A 
ATOM     21  O   UNL     1      10.476  -4.234  24.543  0.00  0.00    -0.283 OA
ATOM     22  C   UNL     1       8.637  -2.801  24.068  0.00  0.00    +0.109 A 
ATOM     23  C   UNL     1       9.321  -1.911  23.229  0.00  0.00    +0.135 A 
ATOM     24  C   UNL     1       8.668  -0.810  22.666  0.00  0.00    +0.092 A 
BRANCH  18  25
ATOM     25  C   UNL     1       6.211  -5.293  26.625  0.00  0.00    +0.025 A 
ATOM     26  C   UNL     1       6.328  -5.232  28.029  0.00  0.00    +0.015 A 
ATOM     27  C   UNL     1       5.512  -6.005  28.865  0.00  0.00    +0.050 A 
ATOM     28  C   UNL     1       4.529  -6.796  28.303  0.00  0.00    +0.158 A 
ATOM     29  C   UNL     1       4.351  -6.820  26.925  0.00  0.00    +0.159 A 
ATOM     30  C   UNL     1       5.189  -6.085  26.084  0.00  0.00    +0.060 A 
BRANCH  29  31
ATOM     31  O   UNL     1       3.325  -7.587  26.441  0.00  0.00    -0.503 OA
ATOM     32  H   UNL     1       3.389  -7.611  25.472  0.00  0.00    +0.292 HD
ENDBRANCH  29  31
BRANCH  28  33
ATOM     33  O   UNL     1       3.724  -7.536  29.120  0.00  0.00    -0.503 OA
ATOM     34  H   UNL     1       4.324  -8.181  29.545  0.00  0.00    +0.292 HD
ENDBRANCH  28  33
ENDBRANCH  18  25
BRANCH  23  35
ATOM     35  O   UNL     1      10.638  -2.101  22.922  0.00  0.00    -0.506 OA
ATOM     36  H   UNL     1      10.903  -3.013  23.123  0.00  0.00    +0.292 HD
ENDBRANCH  23  35
BRANCH  19  37
ATOM     37  O   UNL     1       9.011  -6.041  25.954  0.00  0.00    -0.501 OA
ATOM     38  H   UNL     1       8.807  -6.149  26.897  0.00  0.00    +0.292 HD
ENDBRANCH  19  37
ENDBRANCH  13  14
ENDBRANCH   3  13
BRANCH   1  39
ATOM     39  C   UNL     1       4.442   3.644  25.229  0.00  0.00    +0.197 C 
BRANCH  39  40
ATOM     40  O   UNL     1       4.850   3.708  26.599  0.00  0.00    -0.346 OA
BRANCH  40  44
ATOM     41  C   UNL     1       5.157  -0.589  27.277  0.00  0.00    +0.041 C 
ATOM     42  C   UNL     1       4.688   0.475  28.264  0.00  0.00    +0.149 C 
ATOM     43  O   UNL     1       4.309   1.691  27.608  0.00  0.00    -0.343 OA
ATOM     44  C   UNL     1       5.383   2.468  27.077  0.00  0.00    +0.282 C 
ATOM     45  C   UNL     1       6.442   2.825  28.145  0.00  0.00    +0.201 C 
ATOM     46  C   UNL     1       6.871   1.601  28.963  0.00  0.00    +0.179 C 
ATOM     47  C   UNL     1       5.660   0.778  29.415  0.00  0.00    +0.174 C 
BRANCH  47  48
ATOM     48  O   UNL     1       4.949   1.530  30.413  0.00  0.00    -0.387 OA
ATOM     49  H   UNL     1       5.394   1.393  31.270  0.00  0.00    +0.210 HD
ENDBRANCH  47  48
BRANCH  46  50
ATOM     50  O   UNL     1       7.828   0.808  28.247  0.00  0.00    -0.386 OA
ATOM     51  H   UNL     1       7.947   1.153  27.347  0.00  0.00    +0.210 HD
ENDBRANCH  46  50
BRANCH  45  52
ATOM     52  O   UNL     1       7.590   3.434  27.529  0.00  0.00    -0.384 OA
ATOM     53  H   UNL     1       7.413   3.510  26.572  0.00  0.00    +0.210 HD
ENDBRANCH  45  52
ENDBRANCH  40  44
ENDBRANCH  39  40
ENDBRANCH   1  39
TORSDOF 16
ENDMDL
MODEL 6
REMARK VINA RESULT:      -7.2      2.471      8.746
REMARK  Name = 
REMARK  17 active torsions:
REMARK  status: ('A' for Active; 'I' for Inactive)
REMARK    1  A    between atoms: C_1  and  C_2
REMARK    2  A    between atoms: C_4  and  O_53
REMARK    3  A    between atoms: C_6  and  O_52
REMARK    4  A    between atoms: C_8  and  O_51
REMARK    5  A    between atoms: C_10  and  O_13
REMARK    6  A    between atoms: O_13  and  C_14
REMARK    7  A    between atoms: C_14  and  C_15
REMARK    8  A    between atoms: C_17  and  O_50
REMARK    9  A    between atoms: C_19  and  O_49
REMARK   10  A    between atoms: C_21  and  O_48
REMARK   11  A    between atoms: C_23  and  O_26
REMARK   12  A    between atoms: O_26  and  C_27
REMARK   13  A    between atoms: C_29  and  O_47
REMARK   14  A    between atoms: C_34  and  C_39
REMARK   15  A    between atoms: C_35  and  O_38
REMARK   16  A    between atoms: C_41  and  O_46
REMARK   17  A    between atoms: C_42  and  O_45
REMARK                            x       y       z     vdW  Elec       q    Type
REMARK                         _______ _______ _______ _____ _____    ______ ____
ROOT
ATOM      1  C   UNL     1       8.651   3.892  23.370  0.00  0.00    +0.179 C 
ATOM      2  O   UNL     1       7.933   3.957  24.622  0.00  0.00    -0.331 OA
ATOM      3  C   UNL     1       6.509   3.924  24.428  0.00  0.00    +0.339 C 
ATOM      4  C   UNL     1       6.058   5.174  23.638  0.00  0.00    +0.214 C 
ATOM      5  C   UNL     1       6.880   5.290  22.342  0.00  0.00    +0.180 C 
ATOM      6  C   UNL     1       8.388   5.188  22.602  0.00  0.00    +0.177 C 
ENDROOT
BRANCH   6   7
ATOM      7  O   UNL     1       8.830   6.333  23.342  0.00  0.00    -0.386 OA
ATOM      8  H   UNL     1       9.393   6.872  22.750  0.00  0.00    +0.210 HD
ENDBRANCH   6   7
BRANCH   5   9
ATOM      9  O   UNL     1       6.530   6.501  21.659  0.00  0.00    -0.386 OA
ATOM     10  H   UNL     1       7.073   6.549  20.848  0.00  0.00    +0.210 HD
ENDBRANCH   5   9
BRANCH   4  11
ATOM     11  O   UNL     1       4.666   5.067  23.288  0.00  0.00    -0.383 OA
ATOM     12  H   UNL     1       4.297   5.968  23.366  0.00  0.00    +0.210 HD
ENDBRANCH   4  11
BRANCH   3  13
ATOM     13  O   UNL     1       5.819   3.899  25.695  0.00  0.00    -0.461 OA
BRANCH  13  14
ATOM     14  C   UNL     1       5.321   2.682  26.088  0.00  0.00    +0.131 A 
ATOM     15  C   UNL     1       5.730   1.566  25.342  0.00  0.00    +0.093 A 
ATOM     16  C   UNL     1       5.272   0.276  25.666  0.00  0.00    +0.147 A 
ATOM     17  O   UNL     1       5.712  -0.760  24.876  0.00  0.00    -0.451 OA
ATOM     18  C   UNL     1       5.340  -2.060  25.195  0.00  0.00    +0.181 A 
ATOM     19  C   UNL     1       4.553  -2.373  26.250  0.00  0.00    +0.208 A 
ATOM     20  C   UNL     1       3.968  -1.269  27.069  0.00  0.00    +0.238 A 
ATOM     21  O   UNL     1       3.167  -1.528  27.961  0.00  0.00    -0.283 OA
ATOM     22  C   UNL     1       4.406   0.101  26.747  0.00  0.00    +0.109 A 
ATOM     23  C   UNL     1       3.985   1.221  27.477  0.00  0.00    +0.135 A 
ATOM     24  C   UNL     1       4.426   2.504  27.141  0.00  0.00    +0.092 A 
BRANCH  18  25
ATOM     25  C   UNL     1       5.891  -3.090  24.248  0.00  0.00    +0.025 A 
ATOM     26  C   UNL     1       5.266  -3.352  23.011  0.00  0.00    +0.015 A 
ATOM     27  C   UNL     1       5.737  -4.353  22.152  0.00  0.00    +0.050 A 
ATOM     28  C   UNL     1       6.876  -5.055  22.496  0.00  0.00    +0.158 A 
ATOM     29  C   UNL     1       7.547  -4.768  23.679  0.00  0.00    +0.159 A 
ATOM     30  C   UNL     1       7.058  -3.801  24.559  0.00  0.00    +0.060 A 
BRANCH  29  31
ATOM     31  O   UNL     1       8.696  -5.468  23.930  0.00  0.00    -0.503 OA
ATOM     32  H   UNL     1       8.512  -6.415  23.811  0.00  0.00    +0.292 HD
ENDBRANCH  29  31
BRANCH  28  33
ATOM     33  O   UNL     1       7.343  -6.019  21.650  0.00  0.00    -0.503 OA
ATOM     34  H   UNL     1       7.899  -5.538  21.006  0.00  0.00    +0.292 HD
ENDBRANCH  28  33
ENDBRANCH  18  25
BRANCH  23  35
ATOM     35  O   UNL     1       3.146   1.092  28.547  0.00  0.00    -0.506 OA
ATOM     36  H   UNL     1       2.271   1.455  28.335  0.00  0.00    +0.292 HD
ENDBRANCH  23  35
BRANCH  19  37
ATOM     37  O   UNL     1       4.230  -3.661  26.649  0.00  0.00    -0.501 OA
ATOM     38  H   UNL     1       4.140  -3.678  27.615  0.00  0.00    +0.292 HD
ENDBRANCH  19  37
ENDBRANCH  13  14
ENDBRANCH   3  13
BRANCH   1  39
ATOM     39  C   UNL     1      10.142   3.688  23.652  0.00  0.00    +0.197 C 
BRANCH  39  40
ATOM     40  O   UNL     1      10.567   2.569  22.868  0.00  0.00    -0.346 OA
BRANCH  40  44
ATOM     41  C   UNL     1       9.074  -0.785  25.223  0.00  0.00    +0.041 C 
ATOM     42  C   UNL     1      10.185  -0.806  24.179  0.00  0.00    +0.149 C 
ATOM     43  O   UNL     1      10.704   0.504  23.915  0.00  0.00    -0.343 OA
ATOM     44  C   UNL     1       9.845   1.371  23.174  0.00  0.00    +0.282 C 
ATOM     45  C   UNL     1       9.407   0.762  21.823  0.00  0.00    +0.201 C 
ATOM     46  C   UNL     1       8.898  -0.676  21.977  0.00  0.00    +0.179 C 
ATOM     47  C   UNL     1       9.834  -1.509  22.859  0.00  0.00    +0.174 C 
BRANCH  47  48
ATOM     48  O   UNL     1      11.056  -1.735  22.134  0.00  0.00    -0.387 OA
ATOM     49  H   UNL     1      11.639  -2.287  22.688  0.00  0.00    +0.210 HD
ENDBRANCH  47  48
BRANCH  46  50
ATOM     50  O   UNL     1       7.544  -0.699  22.451  0.00  0.00    -0.386 OA
ATOM     51  H   UNL     1       7.198   0.205  22.529  0.00  0.00    +0.210 HD
ENDBRANCH  46  50
BRANCH  45  52
ATOM     52  O   UNL     1       8.397   1.581  21.208  0.00  0.00    -0.384 OA
ATOM     53  H   UNL     1       8.328   2.410  21.719  0.00  0.00    +0.210 HD
ENDBRANCH  45  52
ENDBRANCH  40  44
ENDBRANCH  39  40
ENDBRANCH   1  39
TORSDOF 16
ENDMDL
MODEL 7
REMARK VINA RESULT:      -7.1      1.846      8.722
REMARK  Name = 
REMARK  17 active torsions:
REMARK  status: ('A' for Active; 'I' for Inactive)
REMARK    1  A    between atoms: C_1  and  C_2
REMARK    2  A    between atoms: C_4  and  O_53
REMARK    3  A    between atoms: C_6  and  O_52
REMARK    4  A    between atoms: C_8  and  O_51
REMARK    5  A    between atoms: C_10  and  O_13
REMARK    6  A    between atoms: O_13  and  C_14
REMARK    7  A    between atoms: C_14  and  C_15
REMARK    8  A    between atoms: C_17  and  O_50
REMARK    9  A    between atoms: C_19  and  O_49
REMARK   10  A    between atoms: C_21  and  O_48
REMARK   11  A    between atoms: C_23  and  O_26
REMARK   12  A    between atoms: O_26  and  C_27
REMARK   13  A    between atoms: C_29  and  O_47
REMARK   14  A    between atoms: C_34  and  C_39
REMARK   15  A    between atoms: C_35  and  O_38
REMARK   16  A    between atoms: C_41  and  O_46
REMARK   17  A    between atoms: C_42  and  O_45
REMARK                            x       y       z     vdW  Elec       q    Type
REMARK                         _______ _______ _______ _____ _____    ______ ____
ROOT
ATOM      1  C   UNL     1       8.650   0.371  22.511  0.00  0.00    +0.179 C 
ATOM      2  O   UNL     1       8.886   0.782  23.875  0.00  0.00    -0.331 OA
ATOM      3  C   UNL     1       7.777   1.520  24.415  0.00  0.00    +0.339 C 
ATOM      4  C   UNL     1       7.586   2.835  23.624  0.00  0.00    +0.214 C 
ATOM      5  C   UNL     1       7.479   2.522  22.121  0.00  0.00    +0.180 C 
ATOM      6  C   UNL     1       8.622   1.623  21.633  0.00  0.00    +0.177 C 
ENDROOT
BRANCH   6   7
ATOM      7  O   UNL     1       9.863   2.337  21.704  0.00  0.00    -0.386 OA
ATOM      8  H   UNL     1       9.979   2.643  22.626  0.00  0.00    +0.210 HD
ENDBRANCH   6   7
BRANCH   5   9
ATOM      9  O   UNL     1       7.401   3.747  21.381  0.00  0.00    -0.386 OA
ATOM     10  H   UNL     1       6.799   4.345  21.866  0.00  0.00    +0.210 HD
ENDBRANCH   5   9
BRANCH   4  11
ATOM     11  O   UNL     1       6.379   3.496  24.041  0.00  0.00    -0.383 OA
ATOM     12  H   UNL     1       6.307   4.301  23.492  0.00  0.00    +0.210 HD
ENDBRANCH   4  11
BRANCH   3  13
ATOM     13  O   UNL     1       8.001   1.840  25.804  0.00  0.00    -0.461 OA
BRANCH  13  14
ATOM     14  C   UNL     1       7.088   1.333  26.696  0.00  0.00    +0.131 A 
ATOM     15  C   UNL     1       6.654   0.019  26.470  0.00  0.00    +0.093 A 
ATOM     16  C   UNL     1       5.718  -0.588  27.328  0.00  0.00    +0.147 A 
ATOM     17  O   UNL     1       5.338  -1.875  27.028  0.00  0.00    -0.451 OA
ATOM     18  C   UNL     1       4.466  -2.540  27.882  0.00  0.00    +0.181 A 
ATOM     19  C   UNL     1       3.955  -1.985  29.005  0.00  0.00    +0.208 A 
ATOM     20  C   UNL     1       4.259  -0.555  29.309  0.00  0.00    +0.238 A 
ATOM     21  O   UNL     1       3.719  -0.004  30.263  0.00  0.00    -0.283 OA
ATOM     22  C   UNL     1       5.219   0.123  28.421  0.00  0.00    +0.109 A 
ATOM     23  C   UNL     1       5.640   1.444  28.630  0.00  0.00    +0.135 A 
ATOM     24  C   UNL     1       6.556   2.051  27.765  0.00  0.00    +0.092 A 
BRANCH  18  25
ATOM     25  C   UNL     1       4.136  -3.936  27.432  0.00  0.00    +0.025 A 
ATOM     26  C   UNL     1       3.075  -4.183  26.537  0.00  0.00    +0.015 A 
ATOM     27  C   UNL     1       2.723  -5.486  26.162  0.00  0.00    +0.050 A 
ATOM     28  C   UNL     1       3.472  -6.547  26.632  0.00  0.00    +0.158 A 
ATOM     29  C   UNL     1       4.563  -6.323  27.462  0.00  0.00    +0.159 A 
ATOM     30  C   UNL     1       4.893  -5.030  27.873  0.00  0.00    +0.060 A 
BRANCH  29  31
ATOM     31  O   UNL     1       5.290  -7.418  27.848  0.00  0.00    -0.503 OA
ATOM     32  H   UNL     1       6.227  -7.249  27.654  0.00  0.00    +0.292 HD
ENDBRANCH  29  31
BRANCH  28  33
ATOM     33  O   UNL     1       3.137  -7.816  26.253  0.00  0.00    -0.503 OA
ATOM     34  H   UNL     1       2.742  -7.715  25.365  0.00  0.00    +0.292 HD
ENDBRANCH  28  33
ENDBRANCH  18  25
BRANCH  23  35
ATOM     35  O   UNL     1       5.184   2.171  29.692  0.00  0.00    -0.506 OA
ATOM     36  H   UNL     1       5.458   3.099  29.608  0.00  0.00    +0.292 HD
ENDBRANCH  23  35
BRANCH  19  37
ATOM     37  O   UNL     1       3.151  -2.644  29.924  0.00  0.00    -0.501 OA
ATOM     38  H   UNL     1       3.678  -2.848  30.713  0.00  0.00    +0.292 HD
ENDBRANCH  19  37
ENDBRANCH  13  14
ENDBRANCH   3  13
BRANCH   1  39
ATOM     39  C   UNL     1       9.747  -0.604  22.079  0.00  0.00    +0.197 C 
BRANCH  39  40
ATOM     40  O   UNL     1       9.118  -1.870  21.852  0.00  0.00    -0.346 OA
BRANCH  40  44
ATOM     41  C   UNL     1       8.723  -2.896  26.072  0.00  0.00    +0.041 C 
ATOM     42  C   UNL     1       9.161  -3.809  24.932  0.00  0.00    +0.149 C 
ATOM     43  O   UNL     1       9.586  -3.071  23.780  0.00  0.00    -0.343 OA
ATOM     44  C   UNL     1       8.548  -2.427  23.041  0.00  0.00    +0.282 C 
ATOM     45  C   UNL     1       7.446  -3.411  22.584  0.00  0.00    +0.201 C 
ATOM     46  C   UNL     1       6.965  -4.309  23.729  0.00  0.00    +0.179 C 
ATOM     47  C   UNL     1       8.143  -4.884  24.522  0.00  0.00    +0.174 C 
BRANCH  47  48
ATOM     48  O   UNL     1       8.818  -5.847  23.693  0.00  0.00    -0.387 OA
ATOM     49  H   UNL     1       8.981  -6.646  24.229  0.00  0.00    +0.210 HD
ENDBRANCH  47  48
BRANCH  46  50
ATOM     50  O   UNL     1       6.030  -3.620  24.571  0.00  0.00    -0.386 OA
ATOM     51  H   UNL     1       6.212  -3.812  25.505  0.00  0.00    +0.210 HD
ENDBRANCH  46  50
BRANCH  45  52
ATOM     52  O   UNL     1       6.336  -2.692  22.018  0.00  0.00    -0.384 OA
ATOM     53  H   UNL     1       5.529  -2.959  22.499  0.00  0.00    +0.210 HD
ENDBRANCH  45  52
ENDBRANCH  40  44
ENDBRANCH  39  40
ENDBRANCH   1  39
TORSDOF 16
ENDMDL
MODEL 8
REMARK VINA RESULT:      -7.0      1.991      8.288
REMARK  Name = 
REMARK  17 active torsions:
REMARK  status: ('A' for Active; 'I' for Inactive)
REMARK    1  A    between atoms: C_1  and  C_2
REMARK    2  A    between atoms: C_4  and  O_53
REMARK    3  A    between atoms: C_6  and  O_52
REMARK    4  A    between atoms: C_8  and  O_51
REMARK    5  A    between atoms: C_10  and  O_13
REMARK    6  A    between atoms: O_13  and  C_14
REMARK    7  A    between atoms: C_14  and  C_15
REMARK    8  A    between atoms: C_17  and  O_50
REMARK    9  A    between atoms: C_19  and  O_49
REMARK   10  A    between atoms: C_21  and  O_48
REMARK   11  A    between atoms: C_23  and  O_26
REMARK   12  A    between atoms: O_26  and  C_27
REMARK   13  A    between atoms: C_29  and  O_47
REMARK   14  A    between atoms: C_34  and  C_39
REMARK   15  A    between atoms: C_35  and  O_38
REMARK   16  A    between atoms: C_41  and  O_46
REMARK   17  A    between atoms: C_42  and  O_45
REMARK                            x       y       z     vdW  Elec       q    Type
REMARK                         _______ _______ _______ _____ _____    ______ ____
ROOT
ATOM      1  C   UNL     1       9.537   0.004  21.998  0.00  0.00    +0.179 C 
ATOM      2  O   UNL     1       8.171   0.346  22.321  0.00  0.00    -0.331 OA
ATOM      3  C   UNL     1       7.884   1.727  22.046  0.00  0.00    +0.339 C 
ATOM      4  C   UNL     1       8.751   2.635  22.948  0.00  0.00    +0.214 C 
ATOM      5  C   UNL     1      10.233   2.246  22.798  0.00  0.00    +0.180 C 
ATOM      6  C   UNL     1      10.457   0.739  22.975  0.00  0.00    +0.177 C 
ENDROOT
BRANCH   6   7
ATOM      7  O   UNL     1      10.183   0.364  24.331  0.00  0.00    -0.386 OA
ATOM      8  H   UNL     1       9.564   1.025  24.704  0.00  0.00    +0.210 HD
ENDBRANCH   6   7
BRANCH   5   9
ATOM      9  O   UNL     1      11.026   3.020  23.707  0.00  0.00    -0.386 OA
ATOM     10  H   UNL     1      10.934   2.618  24.594  0.00  0.00    +0.210 HD
ENDBRANCH   5   9
BRANCH   4  11
ATOM     11  O   UNL     1       8.599   4.013  22.563  0.00  0.00    -0.383 OA
ATOM     12  H   UNL     1       9.477   4.305  22.247  0.00  0.00    +0.210 HD
ENDBRANCH   4  11
BRANCH   3  13
ATOM     13  O   UNL     1       6.492   2.020  22.292  0.00  0.00    -0.461 OA
BRANCH  13  14
ATOM     14  C   UNL     1       6.045   1.802  23.571  0.00  0.00    +0.131 A 
ATOM     15  C   UNL     1       6.067   0.474  24.025  0.00  0.00    +0.093 A 
ATOM     16  C   UNL     1       5.628   0.149  25.321  0.00  0.00    +0.147 A 
ATOM     17  O   UNL     1       5.672  -1.177  25.681  0.00  0.00    -0.451 OA
ATOM     18  C   UNL     1       5.310  -1.540  26.973  0.00  0.00    +0.181 A 
ATOM     19  C   UNL     1       4.903  -0.654  27.911  0.00  0.00    +0.208 A 
ATOM     20  C   UNL     1       4.740   0.781  27.528  0.00  0.00    +0.238 A 
ATOM     21  O   UNL     1       4.271   1.579  28.332  0.00  0.00    -0.283 OA
ATOM     22  C   UNL     1       5.170   1.159  26.170  0.00  0.00    +0.109 A 
ATOM     23  C   UNL     1       5.131   2.481  25.704  0.00  0.00    +0.135 A 
ATOM     24  C   UNL     1       5.550   2.798  24.409  0.00  0.00    +0.092 A 
BRANCH  18  25
ATOM     25  C   UNL     1       5.404  -3.019  27.228  0.00  0.00    +0.025 A 
ATOM     26  C   UNL     1       4.254  -3.787  27.507  0.00  0.00    +0.015 A 
ATOM     27  C   UNL     1       4.342  -5.152  27.806  0.00  0.00    +0.050 A 
ATOM     28  C   UNL     1       5.575  -5.773  27.766  0.00  0.00    +0.158 A 
ATOM     29  C   UNL     1       6.714  -5.051  27.428  0.00  0.00    +0.159 A 
ATOM     30  C   UNL     1       6.638  -3.680  27.170  0.00  0.00    +0.060 A 
BRANCH  29  31
ATOM     31  O   UNL     1       7.894  -5.741  27.358  0.00  0.00    -0.503 OA
ATOM     32  H   UNL     1       8.023  -6.038  26.441  0.00  0.00    +0.292 HD
ENDBRANCH  29  31
BRANCH  28  33
ATOM     33  O   UNL     1       5.657  -7.107  28.042  0.00  0.00    -0.503 OA
ATOM     34  H   UNL     1       6.227  -7.164  28.834  0.00  0.00    +0.292 HD
ENDBRANCH  28  33
ENDBRANCH  18  25
BRANCH  23  35
ATOM     35  O   UNL     1       4.699   3.499  26.505  0.00  0.00    -0.506 OA
ATOM     36  H   UNL     1       3.732   3.474  26.590  0.00  0.00    +0.292 HD
ENDBRANCH  23  35
BRANCH  19  37
ATOM     37  O   UNL     1       4.616  -0.965  29.231  0.00  0.00    -0.501 OA
ATOM     38  H   UNL     1       5.363  -0.696  29.788  0.00  0.00    +0.292 HD
ENDBRANCH  19  37
ENDBRANCH  13  14
ENDBRANCH   3  13
BRANCH   1  39
ATOM     39  C   UNL     1       9.712  -1.514  22.082  0.00  0.00    +0.197 C 
BRANCH  39  40
ATOM     40  O   UNL     1       8.825  -1.982  23.103  0.00  0.00    -0.346 OA
BRANCH  40  44
ATOM     41  C   UNL     1       6.039  -4.152  20.544  0.00  0.00    +0.041 C 
ATOM     42  C   UNL     1       5.726  -3.415  21.842  0.00  0.00    +0.149 C 
ATOM     43  O   UNL     1       6.751  -2.477  22.193  0.00  0.00    -0.343 OA
ATOM     44  C   UNL     1       7.976  -3.044  22.656  0.00  0.00    +0.282 C 
ATOM     45  C   UNL     1       7.775  -3.988  23.864  0.00  0.00    +0.201 C 
ATOM     46  C   UNL     1       6.644  -4.995  23.626  0.00  0.00    +0.179 C 
ATOM     47  C   UNL     1       5.400  -4.314  23.046  0.00  0.00    +0.174 C 
BRANCH  47  48
ATOM     48  O   UNL     1       4.815  -3.492  24.071  0.00  0.00    -0.387 OA
ATOM     49  H   UNL     1       5.287  -2.638  24.081  0.00  0.00    +0.210 HD
ENDBRANCH  47  48
BRANCH  46  50
ATOM     50  O   UNL     1       7.088  -6.093  22.816  0.00  0.00    -0.386 OA
ATOM     51  H   UNL     1       6.371  -6.394  22.234  0.00  0.00    +0.210 HD
ENDBRANCH  46  50
BRANCH  45  52
ATOM     52  O   UNL     1       8.998  -4.681  24.169  0.00  0.00    -0.384 OA
ATOM     53  H   UNL     1       9.704  -4.307  23.606  0.00  0.00    +0.210 HD
ENDBRANCH  45  52
ENDBRANCH  40  44
ENDBRANCH  39  40
ENDBRANCH   1  39
TORSDOF 16
ENDMDL
MODEL 9
REMARK VINA RESULT:      -7.0      1.913      4.525
REMARK  Name = 
REMARK  17 active torsions:
REMARK  status: ('A' for Active; 'I' for Inactive)
REMARK    1  A    between atoms: C_1  and  C_2
REMARK    2  A    between atoms: C_4  and  O_53
REMARK    3  A    between atoms: C_6  and  O_52
REMARK    4  A    between atoms: C_8  and  O_51
REMARK    5  A    between atoms: C_10  and  O_13
REMARK    6  A    between atoms: O_13  and  C_14
REMARK    7  A    between atoms: C_14  and  C_15
REMARK    8  A    between atoms: C_17  and  O_50
REMARK    9  A    between atoms: C_19  and  O_49
REMARK   10  A    between atoms: C_21  and  O_48
REMARK   11  A    between atoms: C_23  and  O_26
REMARK   12  A    between atoms: O_26  and  C_27
REMARK   13  A    between atoms: C_29  and  O_47
REMARK   14  A    between atoms: C_34  and  C_39
REMARK   15  A    between atoms: C_35  and  O_38
REMARK   16  A    between atoms: C_41  and  O_46
REMARK   17  A    between atoms: C_42  and  O_45
REMARK                            x       y       z     vdW  Elec       q    Type
REMARK                         _______ _______ _______ _____ _____    ______ ____
ROOT
ATOM      1  C   UNL     1       2.530  -5.274  25.949  0.00  0.00    +0.179 C 
ATOM      2  O   UNL     1       3.758  -4.827  26.565  0.00  0.00    -0.331 OA
ATOM      3  C   UNL     1       3.573  -4.484  27.948  0.00  0.00    +0.339 C 
ATOM      4  C   UNL     1       2.601  -3.286  28.067  0.00  0.00    +0.214 C 
ATOM      5  C   UNL     1       1.302  -3.598  27.303  0.00  0.00    +0.180 C 
ATOM      6  C   UNL     1       1.573  -4.084  25.873  0.00  0.00    +0.177 C 
ENDROOT
BRANCH   6   7
ATOM      7  O   UNL     1       2.130  -3.015  25.097  0.00  0.00    -0.386 OA
ATOM      8  H   UNL     1       2.455  -2.333  25.718  0.00  0.00    +0.210 HD
ENDBRANCH   6   7
BRANCH   5   9
ATOM      9  O   UNL     1       0.443  -2.451  27.331  0.00  0.00    -0.386 OA
ATOM     10  H   UNL     1       0.992  -1.678  27.569  0.00  0.00    +0.210 HD
ENDBRANCH   5   9
BRANCH   4  11
ATOM     11  O   UNL     1       2.274  -3.045  29.447  0.00  0.00    -0.383 OA
ATOM     12  H   UNL     1       2.958  -2.435  29.786  0.00  0.00    +0.210 HD
ENDBRANCH   4  11
BRANCH   3  13
ATOM     13  O   UNL     1       4.829  -4.127  28.561  0.00  0.00    -0.461 OA
BRANCH  13  14
ATOM     14  C   UNL     1       5.910  -4.041  27.719  0.00  0.00    +0.131 A 
ATOM     15  C   UNL     1       6.114  -2.807  27.084  0.00  0.00    +0.093 A 
ATOM     16  C   UNL     1       7.193  -2.621  26.201  0.00  0.00    +0.147 A 
ATOM     17  O   UNL     1       7.313  -1.384  25.613  0.00  0.00    -0.451 OA
ATOM     18  C   UNL     1       8.399  -1.131  24.784  0.00  0.00    +0.181 A 
ATOM     19  C   UNL     1       9.358  -2.045  24.511  0.00  0.00    +0.208 A 
ATOM     20  C   UNL     1       9.208  -3.432  25.045  0.00  0.00    +0.238 A 
ATOM     21  O   UNL     1      10.009  -4.302  24.720  0.00  0.00    -0.283 OA
ATOM     22  C   UNL     1       8.077  -3.674  25.957  0.00  0.00    +0.109 A 
ATOM     23  C   UNL     1       7.857  -4.911  26.579  0.00  0.00    +0.135 A 
ATOM     24  C   UNL     1       6.773  -5.099  27.441  0.00  0.00    +0.092 A 
BRANCH  18  25
ATOM     25  C   UNL     1       8.403   0.259  24.209  0.00  0.00    +0.025 A 
ATOM     26  C   UNL     1       8.523   1.392  25.039  0.00  0.00    +0.015 A 
ATOM     27  C   UNL     1       8.465   2.690  24.516  0.00  0.00    +0.050 A 
ATOM     28  C   UNL     1       8.350   2.862  23.150  0.00  0.00    +0.158 A 
ATOM     29  C   UNL     1       8.297   1.759  22.306  0.00  0.00    +0.159 A 
ATOM     30  C   UNL     1       8.312   0.463  22.825  0.00  0.00    +0.060 A 
BRANCH  29  31
ATOM     31  O   UNL     1       8.235   2.005  20.961  0.00  0.00    -0.503 OA
ATOM     32  H   UNL     1       9.131   1.929  20.592  0.00  0.00    +0.292 HD
ENDBRANCH  29  31
BRANCH  28  33
ATOM     33  O   UNL     1       8.309   4.128  22.641  0.00  0.00    -0.503 OA
ATOM     34  H   UNL     1       8.773   4.066  21.782  0.00  0.00    +0.292 HD
ENDBRANCH  28  33
ENDBRANCH  18  25
BRANCH  23  35
ATOM     35  O   UNL     1       8.702  -5.964  26.375  0.00  0.00    -0.506 OA
ATOM     36  H   UNL     1       8.884  -6.072  25.427  0.00  0.00    +0.292 HD
ENDBRANCH  23  35
BRANCH  19  37
ATOM     37  O   UNL     1      10.499  -1.805  23.759  0.00  0.00    -0.501 OA
ATOM     38  H   UNL     1      10.452  -0.906  23.396  0.00  0.00    +0.292 HD
ENDBRANCH  19  37
ENDBRANCH  13  14
ENDBRANCH   3  13
BRANCH   1  39
ATOM     39  C   UNL     1       2.838  -5.847  24.564  0.00  0.00    +0.197 C 
BRANCH  39  40
ATOM     40  O   UNL     1       4.248  -6.090  24.515  0.00  0.00    -0.346 OA
BRANCH  40  44
ATOM     41  C   UNL     1       5.668  -6.237  20.394  0.00  0.00    +0.041 C 
ATOM     42  C   UNL     1       6.503  -6.328  21.666  0.00  0.00    +0.149 C 
ATOM     43  O   UNL     1       5.710  -6.670  22.810  0.00  0.00    -0.343 OA
ATOM     44  C   UNL     1       4.845  -5.642  23.293  0.00  0.00    +0.282 C 
ATOM     45  C   UNL     1       5.603  -4.336  23.625  0.00  0.00    +0.201 C 
ATOM     46  C   UNL     1       6.543  -3.911  22.492  0.00  0.00    +0.179 C 
ATOM     47  C   UNL     1       7.367  -5.096  21.975  0.00  0.00    +0.174 C 
BRANCH  47  48
ATOM     48  O   UNL     1       8.319  -5.460  22.989  0.00  0.00    -0.387 OA
ATOM     49  H   UNL     1       8.843  -4.668  23.212  0.00  0.00    +0.210 HD
ENDBRANCH  47  48
BRANCH  46  50
ATOM     50  O   UNL     1       5.824  -3.252  21.440  0.00  0.00    -0.386 OA
ATOM     51  H   UNL     1       6.281  -2.436  21.178  0.00  0.00    +0.210 HD
ENDBRANCH  46  50
BRANCH  45  52
ATOM     52  O   UNL     1       4.673  -3.278  23.919  0.00  0.00    -0.384 OA
ATOM     53  H   UNL     1       3.979  -3.640  24.502  0.00  0.00    +0.210 HD
ENDBRANCH  45  52
ENDBRANCH  40  44
ENDBRANCH  39  40
ENDBRANCH   1  39
TORSDOF 16
ENDMDL
