MODEL 1
REMARK VINA RESULT:      -7.1      0.000      0.000
REMARK  Name = 
REMARK  7 active torsions:
REMARK  status: ('A' for Active; 'I' for Inactive)
REMARK    1  A    between atoms: C_1  and  O_2
REMARK    2  A    between atoms: O_2  and  C_3
REMARK    3  A    between atoms: C_5  and  O_23
REMARK    4  A    between atoms: C_11  and  O_22
REMARK    5  A    between atoms: C_12  and  C_14
REMARK    6  A    between atoms: C_16  and  O_21
REMARK    7  A    between atoms: C_17  and  O_20
REMARK                            x       y       z     vdW  Elec       q    Type
REMARK                         _______ _______ _______ _____ _____    ______ ____
ROOT
ATOM      1  C   UNL     1       5.231  -6.218  25.158  0.00  0.00    +0.138 A 
ATOM      2  C   UNL     1       5.733  -5.085  24.481  0.00  0.00    +0.109 A 
ATOM      3  C   UNL     1       5.476  -4.729  23.071  0.00  0.00    +0.238 A 
ATOM      4  C   UNL     1       6.023  -3.461  22.548  0.00  0.00    +0.208 A 
ATOM      5  C   UNL     1       6.854  -2.729  23.302  0.00  0.00    +0.181 A 
ATOM      6  O   UNL     1       7.134  -3.048  24.623  0.00  0.00    -0.451 OA
ATOM      7  O   UNL     1       4.860  -5.389  22.243  0.00  0.00    -0.283 OA
ATOM      8  C   UNL     1       6.554  -4.174  25.185  0.00  0.00    +0.147 A 
ATOM      9  C   UNL     1       6.855  -4.367  26.538  0.00  0.00    +0.092 A 
ATOM     10  C   UNL     1       6.353  -5.478  27.195  0.00  0.00    +0.124 A 
ATOM     11  C   UNL     1       5.561  -6.391  26.520  0.00  0.00    +0.092 A 
ENDROOT
BRANCH   5  12
ATOM     12  C   UNL     1       7.567  -1.534  22.769  0.00  0.00    +0.025 A 
ATOM     13  C   UNL     1       8.759  -1.643  22.028  0.00  0.00    +0.015 A 
ATOM     14  C   UNL     1       9.409  -0.499  21.534  0.00  0.00    +0.050 A 
ATOM     15  C   UNL     1       8.873   0.758  21.780  0.00  0.00    +0.158 A 
ATOM     16  C   UNL     1       7.695   0.888  22.498  0.00  0.00    +0.159 A 
ATOM     17  C   UNL     1       7.036  -0.242  22.967  0.00  0.00    +0.060 A 
BRANCH  15  18
ATOM     18  O   UNL     1       9.505   1.871  21.308  0.00  0.00    -0.503 OA
ATOM     19  H   UNL     1      10.060   1.541  20.572  0.00  0.00    +0.292 HD
ENDBRANCH  15  18
BRANCH  16  20
ATOM     20  O   UNL     1       7.211   2.147  22.727  0.00  0.00    -0.503 OA
ATOM     21  H   UNL     1       6.498   2.313  22.085  0.00  0.00    +0.292 HD
ENDBRANCH  16  20
ENDBRANCH   5  12
BRANCH   1  23
ATOM     22  C   UNL     1       3.153  -7.508  25.314  0.00  0.00    +0.277 C 
ATOM     23  O   UNL     1       4.438  -7.265  24.782  0.00  0.00    -0.494 OA
ENDBRANCH   1  23
BRANCH   4  24
ATOM     24  O   UNL     1       5.662  -3.159  21.243  0.00  0.00    -0.501 OA
ATOM     25  H   UNL     1       5.379  -4.021  20.865  0.00  0.00    +0.292 HD
ENDBRANCH   4  24
BRANCH  10  26
ATOM     26  O   UNL     1       6.655  -5.648  28.512  0.00  0.00    -0.507 OA
ATOM     27  H   UNL     1       6.177  -6.419  28.856  0.00  0.00    +0.292 HD
ENDBRANCH  10  26
TORSDOF 6
ENDMDL
MODEL 2
REMARK VINA RESULT:      -6.8      1.276      2.890
REMARK  Name = 
REMARK  7 active torsions:
REMARK  status: ('A' for Active; 'I' for Inactive)
REMARK    1  A    between atoms: C_1  and  O_2
REMARK    2  A    between atoms: O_2  and  C_3
REMARK    3  A    between atoms: C_5  and  O_23
REMARK    4  A    between atoms: C_11  and  O_22
REMARK    5  A    between atoms: C_12  and  C_14
REMARK    6  A    between atoms: C_16  and  O_21
REMARK    7  A    between atoms: C_17  and  O_20
REMARK                            x       y       z     vdW  Elec       q    Type
REMARK                         _______ _______ _______ _____ _____    ______ ____
ROOT
ATOM      1  C   UNL     1       5.496  -6.075  25.550  0.00  0.00    +0.138 A 
ATOM      2  C   UNL     1       6.176  -4.945  25.044  0.00  0.00    +0.109 A 
ATOM      3  C   UNL     1       7.239  -4.187  25.734  0.00  0.00    +0.238 A 
ATOM      4  C   UNL     1       7.895  -3.074  25.020  0.00  0.00    +0.208 A 
ATOM      5  C   UNL     1       7.431  -2.676  23.828  0.00  0.00    +0.181 A 
ATOM      6  O   UNL     1       6.418  -3.353  23.163  0.00  0.00    -0.451 OA
ATOM      7  O   UNL     1       7.645  -4.359  26.877  0.00  0.00    -0.283 OA
ATOM      8  C   UNL     1       5.848  -4.469  23.753  0.00  0.00    +0.147 A 
ATOM      9  C   UNL     1       4.882  -5.110  22.970  0.00  0.00    +0.092 A 
ATOM     10  C   UNL     1       4.224  -6.220  23.472  0.00  0.00    +0.124 A 
ATOM     11  C   UNL     1       4.519  -6.692  24.740  0.00  0.00    +0.092 A 
ENDROOT
BRANCH   5  12
ATOM     12  C   UNL     1       7.942  -1.457  23.141  0.00  0.00    +0.025 A 
ATOM     13  C   UNL     1       8.979  -1.514  22.190  0.00  0.00    +0.015 A 
ATOM     14  C   UNL     1       9.439  -0.348  21.554  0.00  0.00    +0.050 A 
ATOM     15  C   UNL     1       8.867   0.878  21.865  0.00  0.00    +0.158 A 
ATOM     16  C   UNL     1       7.838   0.956  22.791  0.00  0.00    +0.159 A 
ATOM     17  C   UNL     1       7.363  -0.197  23.403  0.00  0.00    +0.060 A 
BRANCH  15  18
ATOM     18  O   UNL     1       9.315   2.013  21.255  0.00  0.00    -0.503 OA
ATOM     19  H   UNL     1      10.171   1.753  20.857  0.00  0.00    +0.292 HD
ENDBRANCH  15  18
BRANCH  16  20
ATOM     20  O   UNL     1       7.313   2.186  23.076  0.00  0.00    -0.503 OA
ATOM     21  H   UNL     1       7.472   2.763  22.307  0.00  0.00    +0.292 HD
ENDBRANCH  16  20
ENDBRANCH   5  12
BRANCH   1  23
ATOM     22  C   UNL     1       4.785  -6.463  27.862  0.00  0.00    +0.277 C 
ATOM     23  O   UNL     1       5.566  -6.766  26.725  0.00  0.00    -0.494 OA
ENDBRANCH   1  23
BRANCH   4  24
ATOM     24  O   UNL     1       8.942  -2.472  25.704  0.00  0.00    -0.501 OA
ATOM     25  H   UNL     1       8.597  -1.581  25.937  0.00  0.00    +0.292 HD
ENDBRANCH   4  24
BRANCH  10  26
ATOM     26  O   UNL     1       3.289  -6.831  22.694  0.00  0.00    -0.507 OA
ATOM     27  H   UNL     1       2.555  -7.137  23.251  0.00  0.00    +0.292 HD
ENDBRANCH  10  26
TORSDOF 6
ENDMDL
MODEL 3
REMARK VINA RESULT:      -6.8      2.016      7.633
REMARK  Name = 
REMARK  7 active torsions:
REMARK  status: ('A' for Active; 'I' for Inactive)
REMARK    1  A    between atoms: C_1  and  O_2
REMARK    2  A    between atoms: O_2  and  C_3
REMARK    3  A    between atoms: C_5  and  O_23
REMARK    4  A    between atoms: C_11  and  O_22
REMARK    5  A    between atoms: C_12  and  C_14
REMARK    6  A    between atoms: C_16  and  O_21
REMARK    7  A    between atoms: C_17  and  O_20
REMARK                            x       y       z     vdW  Elec       q    Type
REMARK                         _______ _______ _______ _____ _____    ______ ____
ROOT
ATOM      1  C   UNL     1       9.292   1.702  22.537  0.00  0.00    +0.138 A 
ATOM      2  C   UNL     1       8.799   0.400  22.782  0.00  0.00    +0.109 A 
ATOM      3  C   UNL     1       9.610  -0.788  23.115  0.00  0.00    +0.238 A 
ATOM      4  C   UNL     1       8.918  -2.057  23.415  0.00  0.00    +0.208 A 
ATOM      5  C   UNL     1       7.593  -2.154  23.245  0.00  0.00    +0.181 A 
ATOM      6  O   UNL     1       6.805  -1.062  22.910  0.00  0.00    -0.451 OA
ATOM      7  O   UNL     1      10.832  -0.861  23.155  0.00  0.00    -0.283 OA
ATOM      8  C   UNL     1       7.405   0.173  22.724  0.00  0.00    +0.147 A 
ATOM      9  C   UNL     1       6.513   1.216  22.451  0.00  0.00    +0.092 A 
ATOM     10  C   UNL     1       7.004   2.489  22.218  0.00  0.00    +0.124 A 
ATOM     11  C   UNL     1       8.367   2.729  22.254  0.00  0.00    +0.092 A 
ENDROOT
BRANCH   5  12
ATOM     12  C   UNL     1       6.867  -3.450  23.369  0.00  0.00    +0.025 A 
ATOM     13  C   UNL     1       6.464  -3.965  24.615  0.00  0.00    +0.015 A 
ATOM     14  C   UNL     1       5.776  -5.188  24.702  0.00  0.00    +0.050 A 
ATOM     15  C   UNL     1       5.491  -5.902  23.546  0.00  0.00    +0.158 A 
ATOM     16  C   UNL     1       5.869  -5.407  22.307  0.00  0.00    +0.159 A 
ATOM     17  C   UNL     1       6.526  -4.187  22.215  0.00  0.00    +0.060 A 
BRANCH  15  18
ATOM     18  O   UNL     1       4.830  -7.093  23.626  0.00  0.00    -0.503 OA
ATOM     19  H   UNL     1       4.498  -7.124  24.547  0.00  0.00    +0.292 HD
ENDBRANCH  15  18
BRANCH  16  20
ATOM     20  O   UNL     1       5.578  -6.151  21.196  0.00  0.00    -0.503 OA
ATOM     21  H   UNL     1       4.616  -6.109  21.053  0.00  0.00    +0.292 HD
ENDBRANCH  16  20
ENDBRANCH   5  12
BRANCH   1  23
ATOM     22  C   UNL     1      10.964   3.295  23.355  0.00  0.00    +0.277 C 
ATOM     23  O   UNL     1      10.545   2.244  22.510  0.00  0.00    -0.494 OA
ENDBRANCH   1  23
BRANCH   4  24
ATOM     24  O   UNL     1       9.746  -3.101  23.806  0.00  0.00    -0.501 OA
ATOM     25  H   UNL     1       9.193  -3.628  24.425  0.00  0.00    +0.292 HD
ENDBRANCH   4  24
BRANCH  10  26
ATOM     26  O   UNL     1       6.120   3.491  21.956  0.00  0.00    -0.507 OA
ATOM     27  H   UNL     1       5.216   3.137  21.973  0.00  0.00    +0.292 HD
ENDBRANCH  10  26
TORSDOF 6
ENDMDL
MODEL 4
REMARK VINA RESULT:      -6.8      1.914      3.566
REMARK  Name = 
REMARK  7 active torsions:
REMARK  status: ('A' for Active; 'I' for Inactive)
REMARK    1  A    between atoms: C_1  and  O_2
REMARK    2  A    between atoms: O_2  and  C_3
REMARK    3  A    between atoms: C_5  and  O_23
REMARK    4  A    between atoms: C_11  and  O_22
REMARK    5  A    between atoms: C_12  and  C_14
REMARK    6  A    between atoms: C_16  and  O_21
REMARK    7  A    between atoms: C_17  and  O_20
REMARK                            x       y       z     vdW  Elec       q    Type
REMARK                         _______ _______ _______ _____ _____    ______ ____
ROOT
ATOM      1  C   UNL     1       6.186  -5.252  24.395  0.00  0.00    +0.138 A 
ATOM      2  C   UNL     1       6.926  -4.049  24.364  0.00  0.00    +0.109 A 
ATOM      3  C   UNL     1       7.415  -3.296  25.537  0.00  0.00    +0.238 A 
ATOM      4  C   UNL     1       8.242  -2.095  25.314  0.00  0.00    +0.208 A 
ATOM      5  C   UNL     1       8.419  -1.623  24.073  0.00  0.00    +0.181 A 
ATOM      6  O   UNL     1       7.953  -2.294  22.951  0.00  0.00    -0.451 OA
ATOM      7  O   UNL     1       7.193  -3.543  26.716  0.00  0.00    -0.283 OA
ATOM      8  C   UNL     1       7.263  -3.484  23.112  0.00  0.00    +0.147 A 
ATOM      9  C   UNL     1       6.893  -4.107  21.915  0.00  0.00    +0.092 A 
ATOM     10  C   UNL     1       6.173  -5.289  21.956  0.00  0.00    +0.124 A 
ATOM     11  C   UNL     1       5.819  -5.849  23.170  0.00  0.00    +0.092 A 
ENDROOT
BRANCH   5  12
ATOM     12  C   UNL     1       9.099  -0.325  23.803  0.00  0.00    +0.025 A 
ATOM     13  C   UNL     1      10.243   0.081  24.515  0.00  0.00    +0.015 A 
ATOM     14  C   UNL     1      10.868   1.309  24.237  0.00  0.00    +0.050 A 
ATOM     15  C   UNL     1      10.351   2.137  23.249  0.00  0.00    +0.158 A 
ATOM     16  C   UNL     1       9.231   1.752  22.529  0.00  0.00    +0.159 A 
ATOM     17  C   UNL     1       8.626   0.528  22.783  0.00  0.00    +0.060 A 
BRANCH  15  18
ATOM     18  O   UNL     1      10.950   3.333  22.981  0.00  0.00    -0.503 OA
ATOM     19  H   UNL     1      11.324   3.615  23.840  0.00  0.00    +0.292 HD
ENDBRANCH  15  18
BRANCH  16  20
ATOM     20  O   UNL     1       8.749   2.604  21.574  0.00  0.00    -0.503 OA
ATOM     21  H   UNL     1       9.504   3.099  21.208  0.00  0.00    +0.292 HD
ENDBRANCH  16  20
ENDBRANCH   5  12
BRANCH   1  23
ATOM     22  C   UNL     1       4.533  -6.815  25.306  0.00  0.00    +0.277 C 
ATOM     23  O   UNL     1       5.706  -6.035  25.406  0.00  0.00    -0.494 OA
ENDBRANCH   1  23
BRANCH   4  24
ATOM     24  O   UNL     1       8.735  -1.498  26.467  0.00  0.00    -0.501 OA
ATOM     25  H   UNL     1       8.129  -0.738  26.622  0.00  0.00    +0.292 HD
ENDBRANCH   4  24
BRANCH  10  26
ATOM     26  O   UNL     1       5.825  -5.881  20.780  0.00  0.00    -0.507 OA
ATOM     27  H   UNL     1       4.889  -5.702  20.592  0.00  0.00    +0.292 HD
ENDBRANCH  10  26
TORSDOF 6
ENDMDL
MODEL 5
REMARK VINA RESULT:      -6.7      1.980      7.274
REMARK  Name = 
REMARK  7 active torsions:
REMARK  status: ('A' for Active; 'I' for Inactive)
REMARK    1  A    between atoms: C_1  and  O_2
REMARK    2  A    between atoms: O_2  and  C_3
REMARK    3  A    between atoms: C_5  and  O_23
REMARK    4  A    between atoms: C_11  and  O_22
REMARK    5  A    between atoms: C_12  and  C_14
REMARK    6  A    between atoms: C_16  and  O_21
REMARK    7  A    between atoms: C_17  and  O_20
REMARK                            x       y       z     vdW  Elec       q    Type
REMARK                         _______ _______ _______ _____ _____    ______ ____
ROOT
ATOM      1  C   UNL     1       9.068  -0.154  23.864  0.00  0.00    +0.138 A 
ATOM      2  C   UNL     1       8.410  -1.385  24.081  0.00  0.00    +0.109 A 
ATOM      3  C   UNL     1       9.031  -2.724  24.037  0.00  0.00    +0.238 A 
ATOM      4  C   UNL     1       8.203  -3.901  24.366  0.00  0.00    +0.208 A 
ATOM      5  C   UNL     1       6.885  -3.761  24.558  0.00  0.00    +0.181 A 
ATOM      6  O   UNL     1       6.267  -2.519  24.583  0.00  0.00    -0.451 OA
ATOM      7  O   UNL     1      10.186  -2.992  23.729  0.00  0.00    -0.283 OA
ATOM      8  C   UNL     1       7.029  -1.379  24.385  0.00  0.00    +0.147 A 
ATOM      9  C   UNL     1       6.317  -0.179  24.492  0.00  0.00    +0.092 A 
ATOM     10  C   UNL     1       6.972   1.023  24.283  0.00  0.00    +0.124 A 
ATOM     11  C   UNL     1       8.320   1.038  23.968  0.00  0.00    +0.092 A 
ENDROOT
BRANCH   5  12
ATOM     12  C   UNL     1       5.976  -4.929  24.725  0.00  0.00    +0.025 A 
ATOM     13  C   UNL     1       5.194  -5.425  23.665  0.00  0.00    +0.015 A 
ATOM     14  C   UNL     1       4.348  -6.533  23.850  0.00  0.00    +0.050 A 
ATOM     15  C   UNL     1       4.278  -7.147  25.093  0.00  0.00    +0.158 A 
ATOM     16  C   UNL     1       5.047  -6.681  26.148  0.00  0.00    +0.159 A 
ATOM     17  C   UNL     1       5.903  -5.603  25.963  0.00  0.00    +0.060 A 
BRANCH  15  18
ATOM     18  O   UNL     1       3.452  -8.217  25.278  0.00  0.00    -0.503 OA
ATOM     19  H   UNL     1       3.445  -8.352  26.248  0.00  0.00    +0.292 HD
ENDBRANCH  15  18
BRANCH  16  20
ATOM     20  O   UNL     1       4.936  -7.308  27.358  0.00  0.00    -0.503 OA
ATOM     21  H   UNL     1       5.747  -7.124  27.865  0.00  0.00    +0.292 HD
ENDBRANCH  16  20
ENDBRANCH   5  12
BRANCH   1  23
ATOM     22  C   UNL     1      11.252   0.778  24.470  0.00  0.00    +0.277 C 
ATOM     23  O   UNL     1      10.355   0.183  23.555  0.00  0.00    -0.494 OA
ENDBRANCH   1  23
BRANCH   4  24
ATOM     24  O   UNL     1       8.884  -5.111  24.388  0.00  0.00    -0.501 OA
ATOM     25  H   UNL     1       9.319  -5.158  23.508  0.00  0.00    +0.292 HD
ENDBRANCH   4  24
BRANCH  10  26
ATOM     26  O   UNL     1       6.263   2.180  24.394  0.00  0.00    -0.507 OA
ATOM     27  H   UNL     1       5.912   2.429  23.524  0.00  0.00    +0.292 HD
ENDBRANCH  10  26
TORSDOF 6
ENDMDL
MODEL 6
REMARK VINA RESULT:      -6.6      2.486      7.718
REMARK  Name = 
REMARK  7 active torsions:
REMARK  status: ('A' for Active; 'I' for Inactive)
REMARK    1  A    between atoms: C_1  and  O_2
REMARK    2  A    between atoms: O_2  and  C_3
REMARK    3  A    between atoms: C_5  and  O_23
REMARK    4  A    between atoms: C_11  and  O_22
REMARK    5  A    between atoms: C_12  and  C_14
REMARK    6  A    between atoms: C_16  and  O_21
REMARK    7  A    between atoms: C_17  and  O_20
REMARK                            x       y       z     vdW  Elec       q    Type
REMARK                         _______ _______ _______ _____ _____    ______ ____
ROOT
ATOM      1  C   UNL     1       9.619   1.967  23.970  0.00  0.00    +0.138 A 
ATOM      2  C   UNL     1       9.179   0.657  24.263  0.00  0.00    +0.109 A 
ATOM      3  C   UNL     1       9.761  -0.595  23.739  0.00  0.00    +0.238 A 
ATOM      4  C   UNL     1       9.219  -1.883  24.214  0.00  0.00    +0.208 A 
ATOM      5  C   UNL     1       8.128  -1.905  24.991  0.00  0.00    +0.181 A 
ATOM      6  O   UNL     1       7.543  -0.746  25.482  0.00  0.00    -0.451 OA
ATOM      7  O   UNL     1      10.658  -0.702  22.911  0.00  0.00    -0.283 OA
ATOM      8  C   UNL     1       8.088   0.482  25.146  0.00  0.00    +0.147 A 
ATOM      9  C   UNL     1       7.459   1.579  25.745  0.00  0.00    +0.092 A 
ATOM     10  C   UNL     1       7.902   2.859  25.456  0.00  0.00    +0.124 A 
ATOM     11  C   UNL     1       8.957   3.053  24.582  0.00  0.00    +0.092 A 
ENDROOT
BRANCH   5  12
ATOM     12  C   UNL     1       7.439  -3.173  25.361  0.00  0.00    +0.025 A 
ATOM     13  C   UNL     1       6.289  -3.624  24.686  0.00  0.00    +0.015 A 
ATOM     14  C   UNL     1       5.662  -4.827  25.053  0.00  0.00    +0.050 A 
ATOM     15  C   UNL     1       6.179  -5.583  26.096  0.00  0.00    +0.158 A 
ATOM     16  C   UNL     1       7.316  -5.163  26.768  0.00  0.00    +0.159 A 
ATOM     17  C   UNL     1       7.954  -3.988  26.392  0.00  0.00    +0.060 A 
BRANCH  15  18
ATOM     18  O   UNL     1       5.569  -6.748  26.460  0.00  0.00    -0.503 OA
ATOM     19  H   UNL     1       6.273  -7.424  26.385  0.00  0.00    +0.292 HD
ENDBRANCH  15  18
BRANCH  16  20
ATOM     20  O   UNL     1       7.783  -5.934  27.798  0.00  0.00    -0.503 OA
ATOM     21  H   UNL     1       8.189  -5.340  28.454  0.00  0.00    +0.292 HD
ENDBRANCH  16  20
ENDBRANCH   5  12
BRANCH   1  23
ATOM     22  C   UNL     1      11.330   3.650  23.474  0.00  0.00    +0.277 C 
ATOM     23  O   UNL     1      10.611   2.471  23.178  0.00  0.00    -0.494 OA
ENDBRANCH   1  23
BRANCH   4  24
ATOM     24  O   UNL     1       9.879  -3.009  23.742  0.00  0.00    -0.501 OA
ATOM     25  H   UNL     1       9.198  -3.483  23.214  0.00  0.00    +0.292 HD
ENDBRANCH   4  24
BRANCH  10  26
ATOM     26  O   UNL     1       7.278   3.914  26.051  0.00  0.00    -0.507 OA
ATOM     27  H   UNL     1       7.356   3.834  27.015  0.00  0.00    +0.292 HD
ENDBRANCH  10  26
TORSDOF 6
ENDMDL
MODEL 7
REMARK VINA RESULT:      -6.5      1.904      7.634
REMARK  Name = 
REMARK  7 active torsions:
REMARK  status: ('A' for Active; 'I' for Inactive)
REMARK    1  A    between atoms: C_1  and  O_2
REMARK    2  A    between atoms: O_2  and  C_3
REMARK    3  A    between atoms: C_5  and  O_23
REMARK    4  A    between atoms: C_11  and  O_22
REMARK    5  A    between atoms: C_12  and  C_14
REMARK    6  A    between atoms: C_16  and  O_21
REMARK    7  A    between atoms: C_17  and  O_20
REMARK                            x       y       z     vdW  Elec       q    Type
REMARK                         _______ _______ _______ _____ _____    ______ ____
ROOT
ATOM      1  C   UNL     1       9.375   1.774  22.599  0.00  0.00    +0.138 A 
ATOM      2  C   UNL     1       8.898   0.456  22.777  0.00  0.00    +0.109 A 
ATOM      3  C   UNL     1       9.716  -0.727  23.114  0.00  0.00    +0.238 A 
ATOM      4  C   UNL     1       9.037  -2.018  23.338  0.00  0.00    +0.208 A 
ATOM      5  C   UNL     1       7.725  -2.135  23.098  0.00  0.00    +0.181 A 
ATOM      6  O   UNL     1       6.932  -1.049  22.758  0.00  0.00    -0.451 OA
ATOM      7  O   UNL     1      10.936  -0.777  23.213  0.00  0.00    -0.283 OA
ATOM      8  C   UNL     1       7.514   0.204  22.642  0.00  0.00    +0.147 A 
ATOM      9  C   UNL     1       6.614   1.237  22.357  0.00  0.00    +0.092 A 
ATOM     10  C   UNL     1       7.090   2.526  22.189  0.00  0.00    +0.124 A 
ATOM     11  C   UNL     1       8.443   2.792  22.301  0.00  0.00    +0.092 A 
ENDROOT
BRANCH   5  12
ATOM     12  C   UNL     1       7.021  -3.448  23.144  0.00  0.00    +0.025 A 
ATOM     13  C   UNL     1       6.682  -4.156  21.976  0.00  0.00    +0.015 A 
ATOM     14  C   UNL     1       6.023  -5.395  22.048  0.00  0.00    +0.050 A 
ATOM     15  C   UNL     1       5.697  -5.930  23.287  0.00  0.00    +0.158 A 
ATOM     16  C   UNL     1       6.030  -5.255  24.451  0.00  0.00    +0.159 A 
ATOM     17  C   UNL     1       6.705  -4.043  24.384  0.00  0.00    +0.060 A 
BRANCH  15  18
ATOM     18  O   UNL     1       5.050  -7.130  23.362  0.00  0.00    -0.503 OA
ATOM     19  H   UNL     1       5.274  -7.470  24.253  0.00  0.00    +0.292 HD
ENDBRANCH  15  18
BRANCH  16  20
ATOM     20  O   UNL     1       5.678  -5.814  25.649  0.00  0.00    -0.503 OA
ATOM     21  H   UNL     1       6.407  -5.659  26.276  0.00  0.00    +0.292 HD
ENDBRANCH  16  20
ENDBRANCH   5  12
BRANCH   1  23
ATOM     22  C   UNL     1      10.906   3.530  23.358  0.00  0.00    +0.277 C 
ATOM     23  O   UNL     1      10.616   2.342  22.652  0.00  0.00    -0.494 OA
ENDBRANCH   1  23
BRANCH   4  24
ATOM     24  O   UNL     1       9.867  -3.057  23.737  0.00  0.00    -0.501 OA
ATOM     25  H   UNL     1      10.695  -2.608  24.021  0.00  0.00    +0.292 HD
ENDBRANCH   4  24
BRANCH  10  26
ATOM     26  O   UNL     1       6.199   3.519  21.914  0.00  0.00    -0.507 OA
ATOM     27  H   UNL     1       6.094   3.602  20.953  0.00  0.00    +0.292 HD
ENDBRANCH  10  26
TORSDOF 6
ENDMDL
MODEL 8
REMARK VINA RESULT:      -6.5      2.778      7.251
REMARK  Name = 
REMARK  7 active torsions:
REMARK  status: ('A' for Active; 'I' for Inactive)
REMARK    1  A    between atoms: C_1  and  O_2
REMARK    2  A    between atoms: O_2  and  C_3
REMARK    3  A    between atoms: C_5  and  O_23
REMARK    4  A    between atoms: C_11  and  O_22
REMARK    5  A    between atoms: C_12  and  C_14
REMARK    6  A    between atoms: C_16  and  O_21
REMARK    7  A    between atoms: C_17  and  O_20
REMARK                            x       y       z     vdW  Elec       q    Type
REMARK                         _______ _______ _______ _____ _____    ______ ____
ROOT
ATOM      1  C   UNL     1       9.010   2.623  24.126  0.00  0.00    +0.138 A 
ATOM      2  C   UNL     1       8.812   1.269  23.774  0.00  0.00    +0.109 A 
ATOM      3  C   UNL     1       9.467   0.555  22.659  0.00  0.00    +0.238 A 
ATOM      4  C   UNL     1       9.197  -0.886  22.484  0.00  0.00    +0.208 A 
ATOM      5  C   UNL     1       8.267  -1.490  23.235  0.00  0.00    +0.181 A 
ATOM      6  O   UNL     1       7.617  -0.841  24.275  0.00  0.00    -0.451 OA
ATOM      7  O   UNL     1      10.218   1.031  21.817  0.00  0.00    -0.283 OA
ATOM      8  C   UNL     1       7.920   0.484  24.541  0.00  0.00    +0.147 A 
ATOM      9  C   UNL     1       7.254   1.021  25.648  0.00  0.00    +0.092 A 
ATOM     10  C   UNL     1       7.458   2.347  25.989  0.00  0.00    +0.124 A 
ATOM     11  C   UNL     1       8.314   3.137  25.241  0.00  0.00    +0.092 A 
ENDROOT
BRANCH   5  12
ATOM     12  C   UNL     1       7.834  -2.894  22.989  0.00  0.00    +0.025 A 
ATOM     13  C   UNL     1       8.239  -3.957  23.819  0.00  0.00    +0.015 A 
ATOM     14  C   UNL     1       7.811  -5.272  23.566  0.00  0.00    +0.050 A 
ATOM     15  C   UNL     1       6.981  -5.531  22.484  0.00  0.00    +0.158 A 
ATOM     16  C   UNL     1       6.562  -4.498  21.661  0.00  0.00    +0.159 A 
ATOM     17  C   UNL     1       6.961  -3.193  21.922  0.00  0.00    +0.060 A 
BRANCH  15  18
ATOM     18  O   UNL     1       6.569  -6.807  22.232  0.00  0.00    -0.503 OA
ATOM     19  H   UNL     1       6.572  -7.241  23.109  0.00  0.00    +0.292 HD
ENDBRANCH  15  18
BRANCH  16  20
ATOM     20  O   UNL     1       5.754  -4.801  20.599  0.00  0.00    -0.503 OA
ATOM     21  H   UNL     1       5.142  -4.055  20.468  0.00  0.00    +0.292 HD
ENDBRANCH  16  20
ENDBRANCH   5  12
BRANCH   1  23
ATOM     22  C   UNL     1       9.585   4.994  23.908  0.00  0.00    +0.277 C 
ATOM     23  O   UNL     1       9.774   3.628  23.606  0.00  0.00    -0.494 OA
ENDBRANCH   1  23
BRANCH   4  24
ATOM     24  O   UNL     1       9.920  -1.500  21.470  0.00  0.00    -0.501 OA
ATOM     25  H   UNL     1       9.493  -1.182  20.644  0.00  0.00    +0.292 HD
ENDBRANCH   4  24
BRANCH  10  26
ATOM     26  O   UNL     1       6.802   2.851  27.071  0.00  0.00    -0.507 OA
ATOM     27  H   UNL     1       7.293   3.611  27.421  0.00  0.00    +0.292 HD
ENDBRANCH  10  26
TORSDOF 6
ENDMDL
MODEL 9
REMARK VINA RESULT:      -6.4      2.488      4.324
REMARK  Name = 
REMARK  7 active torsions:
REMARK  status: ('A' for Active; 'I' for Inactive)
REMARK    1  A    between atoms: C_1  and  O_2
REMARK    2  A    between atoms: O_2  and  C_3
REMARK    3  A    between atoms: C_5  and  O_23
REMARK    4  A    between atoms: C_11  and  O_22
REMARK    5  A    between atoms: C_12  and  C_14
REMARK    6  A    between atoms: C_16  and  O_21
REMARK    7  A    between atoms: C_17  and  O_20
REMARK                            x       y       z     vdW  Elec       q    Type
REMARK                         _______ _______ _______ _____ _____    ______ ____
ROOT
ATOM      1  C   UNL     1       8.049  -4.348  24.839  0.00  0.00    +0.138 A 
ATOM      2  C   UNL     1       8.060  -2.963  24.558  0.00  0.00    +0.109 A 
ATOM      3  C   UNL     1       8.419  -1.886  25.503  0.00  0.00    +0.238 A 
ATOM      4  C   UNL     1       8.450  -0.494  25.014  0.00  0.00    +0.208 A 
ATOM      5  C   UNL     1       8.020  -0.209  23.777  0.00  0.00    +0.181 A 
ATOM      6  O   UNL     1       7.655  -1.195  22.873  0.00  0.00    -0.451 OA
ATOM      7  O   UNL     1       8.684  -2.007  26.693  0.00  0.00    -0.283 OA
ATOM      8  C   UNL     1       7.714  -2.525  23.259  0.00  0.00    +0.147 A 
ATOM      9  C   UNL     1       7.384  -3.437  22.251  0.00  0.00    +0.092 A 
ATOM     10  C   UNL     1       7.381  -4.792  22.534  0.00  0.00    +0.124 A 
ATOM     11  C   UNL     1       7.700  -5.242  23.804  0.00  0.00    +0.092 A 
ENDROOT
BRANCH   5  12
ATOM     12  C   UNL     1       7.870   1.191  23.290  0.00  0.00    +0.025 A 
ATOM     13  C   UNL     1       6.691   1.643  22.666  0.00  0.00    +0.015 A 
ATOM     14  C   UNL     1       6.574   2.971  22.220  0.00  0.00    +0.050 A 
ATOM     15  C   UNL     1       7.634   3.851  22.393  0.00  0.00    +0.158 A 
ATOM     16  C   UNL     1       8.800   3.430  23.014  0.00  0.00    +0.159 A 
ATOM     17  C   UNL     1       8.910   2.126  23.478  0.00  0.00    +0.060 A 
BRANCH  15  18
ATOM     18  O   UNL     1       7.528   5.139  21.955  0.00  0.00    -0.503 OA
ATOM     19  H   UNL     1       8.334   5.279  21.417  0.00  0.00    +0.292 HD
ENDBRANCH  15  18
BRANCH  16  20
ATOM     20  O   UNL     1       9.823   4.328  23.150  0.00  0.00    -0.503 OA
ATOM     21  H   UNL     1       9.977   4.461  24.103  0.00  0.00    +0.292 HD
ENDBRANCH  16  20
ENDBRANCH   5  12
BRANCH   1  23
ATOM     22  C   UNL     1       7.400  -5.268  27.015  0.00  0.00    +0.277 C 
ATOM     23  O   UNL     1       8.317  -5.083  25.958  0.00  0.00    -0.494 OA
ENDBRANCH   1  23
BRANCH   4  24
ATOM     24  O   UNL     1       8.882   0.445  25.939  0.00  0.00    -0.501 OA
ATOM     25  H   UNL     1       8.913   1.287  25.431  0.00  0.00    +0.292 HD
ENDBRANCH   4  24
BRANCH  10  26
ATOM     26  O   UNL     1       7.059  -5.665  21.540  0.00  0.00    -0.507 OA
ATOM     27  H   UNL     1       6.985  -5.185  20.700  0.00  0.00    +0.292 HD
ENDBRANCH  10  26
TORSDOF 6
ENDMDL
