MODEL 1
REMARK VINA RESULT:      -7.3      0.000      0.000
REMARK  Name = 
REMARK  17 active torsions:
REMARK  status: ('A' for Active; 'I' for Inactive)
REMARK    1  A    between atoms: C_1  and  C_2
REMARK    2  A    between atoms: C_4  and  O_53
REMARK    3  A    between atoms: C_6  and  O_52
REMARK    4  A    between atoms: C_8  and  O_51
REMARK    5  A    between atoms: C_10  and  O_13
REMARK    6  A    between atoms: O_13  and  C_14
REMARK    7  A    between atoms: C_16  and  O_50
REMARK    8  A    between atoms: C_21  and  C_42
REMARK    9  A    between atoms: C_22  and  O_25
REMARK   10  A    between atoms: O_25  and  C_26
REMARK   11  A    between atoms: C_28  and  O_41
REMARK   12  A    between atoms: C_30  and  O_40
REMARK   13  A    between atoms: C_32  and  O_39
REMARK   14  A    between atoms: C_34  and  C_37
REMARK   15  A    between atoms: C_37  and  O_38
REMARK   16  A    between atoms: C_44  and  O_49
REMARK   17  A    between atoms: C_45  and  O_48
REMARK                            x       y       z     vdW  Elec       q    Type
REMARK                         _______ _______ _______ _____ _____    ______ ____
ROOT
ATOM      1  C   UNL     1       8.498  -3.174  24.817  0.00  0.00    +0.131 A 
ATOM      2  C   UNL     1       7.807  -2.263  25.624  0.00  0.00    +0.093 A 
ATOM      3  C   UNL     1       8.114  -0.902  25.555  0.00  0.00    +0.147 A 
ATOM      4  O   UNL     1       7.433  -0.034  26.379  0.00  0.00    -0.451 OA
ATOM      5  C   UNL     1       7.518   1.329  26.102  0.00  0.00    +0.181 A 
ATOM      6  C   UNL     1       8.433   1.893  25.283  0.00  0.00    +0.214 A 
ATOM      7  C   UNL     1       9.490   0.955  24.802  0.00  0.00    +0.238 A 
ATOM      8  O   UNL     1      10.645   1.306  24.602  0.00  0.00    -0.283 OA
ATOM      9  C   UNL     1       9.112  -0.460  24.696  0.00  0.00    +0.109 A 
ATOM     10  C   UNL     1       9.758  -1.357  23.841  0.00  0.00    +0.135 A 
ATOM     11  C   UNL     1       9.451  -2.710  23.905  0.00  0.00    +0.092 A 
ENDROOT
BRANCH   5  12
ATOM     12  C   UNL     1       6.528   2.126  26.849  0.00  0.00    +0.025 A 
ATOM     13  C   UNL     1       5.296   2.466  26.272  0.00  0.00    +0.015 A 
ATOM     14  C   UNL     1       4.364   3.224  26.989  0.00  0.00    +0.050 A 
ATOM     15  C   UNL     1       4.663   3.620  28.281  0.00  0.00    +0.158 A 
ATOM     16  C   UNL     1       5.872   3.274  28.876  0.00  0.00    +0.159 A 
ATOM     17  C   UNL     1       6.813   2.532  28.165  0.00  0.00    +0.060 A 
BRANCH  15  18
ATOM     18  O   UNL     1       3.746   4.355  28.983  0.00  0.00    -0.503 OA
ATOM     19  H   UNL     1       3.012   4.503  28.353  0.00  0.00    +0.292 HD
ENDBRANCH  15  18
BRANCH  16  20
ATOM     20  O   UNL     1       6.081   3.677  30.166  0.00  0.00    -0.503 OA
ATOM     21  H   UNL     1       6.584   4.511  30.152  0.00  0.00    +0.292 HD
ENDBRANCH  16  20
ENDBRANCH   5  12
BRANCH  10  22
ATOM     22  O   UNL     1      10.669  -0.920  22.926  0.00  0.00    -0.506 OA
ATOM     23  H   UNL     1      10.719  -1.541  22.181  0.00  0.00    +0.292 HD
ENDBRANCH  10  22
BRANCH   6  24
ATOM     24  O   UNL     1       8.431   3.261  24.973  0.00  0.00    -0.453 OA
BRANCH  24  25
ATOM     25  C   UNL     1       8.348   3.590  23.570  0.00  0.00    +0.340 C 
ATOM     26  O   UNL     1       9.351   4.542  23.178  0.00  0.00    -0.331 OA
ATOM     27  C   UNL     1       9.111   5.941  23.339  0.00  0.00    +0.179 C 
ATOM     28  C   UNL     1       7.702   6.367  22.898  0.00  0.00    +0.177 C 
ATOM     29  C   UNL     1       6.621   5.463  23.502  0.00  0.00    +0.180 C 
ATOM     30  C   UNL     1       6.909   3.995  23.165  0.00  0.00    +0.214 C 
BRANCH  28  31
ATOM     31  O   UNL     1       7.649   6.280  21.461  0.00  0.00    -0.386 OA
ATOM     32  H   UNL     1       7.815   5.351  21.211  0.00  0.00    +0.210 HD
ENDBRANCH  28  31
BRANCH  29  33
ATOM     33  O   UNL     1       6.465   5.695  24.901  0.00  0.00    -0.386 OA
ATOM     34  H   UNL     1       5.657   6.218  25.056  0.00  0.00    +0.210 HD
ENDBRANCH  29  33
BRANCH  30  35
ATOM     35  O   UNL     1       6.689   3.785  21.762  0.00  0.00    -0.383 OA
ATOM     36  H   UNL     1       7.137   4.519  21.292  0.00  0.00    +0.210 HD
ENDBRANCH  30  35
BRANCH  27  37
ATOM     37  C   UNL     1       9.502   6.448  24.736  0.00  0.00    +0.190 C 
BRANCH  37  38
ATOM     38  O   UNL     1      10.914   6.603  24.873  0.00  0.00    -0.392 OA
ATOM     39  H   UNL     1      11.351   5.894  24.372  0.00  0.00    +0.210 HD
ENDBRANCH  37  38
ENDBRANCH  27  37
ENDBRANCH  24  25
ENDBRANCH   6  24
BRANCH   1  40
ATOM     40  O   UNL     1       8.371  -4.534  24.815  0.00  0.00    -0.461 OA
BRANCH  40  44
ATOM     41  C   UNL     1       6.287  -5.996  21.306  0.00  0.00    +0.041 C 
ATOM     42  C   UNL     1       5.883  -4.781  22.133  0.00  0.00    +0.150 C 
ATOM     43  O   UNL     1       6.963  -4.299  22.940  0.00  0.00    -0.334 OA
ATOM     44  C   UNL     1       7.318  -5.132  24.049  0.00  0.00    +0.339 C 
ATOM     45  C   UNL     1       6.120  -5.315  25.009  0.00  0.00    +0.214 C 
ATOM     46  C   UNL     1       4.868  -5.787  24.256  0.00  0.00    +0.180 C 
ATOM     47  C   UNL     1       4.621  -4.953  22.994  0.00  0.00    +0.174 C 
BRANCH  47  48
ATOM     48  O   UNL     1       4.176  -3.646  23.399  0.00  0.00    -0.387 OA
ATOM     49  H   UNL     1       4.504  -3.481  24.304  0.00  0.00    +0.210 HD
ENDBRANCH  47  48
BRANCH  46  50
ATOM     50  O   UNL     1       4.943  -7.193  23.981  0.00  0.00    -0.386 OA
ATOM     51  H   UNL     1       4.063  -7.600  24.033  0.00  0.00    +0.210 HD
ENDBRANCH  46  50
BRANCH  45  52
ATOM     52  O   UNL     1       6.437  -6.250  26.054  0.00  0.00    -0.383 OA
ATOM     53  H   UNL     1       7.112  -6.866  25.707  0.00  0.00    +0.210 HD
ENDBRANCH  45  52
ENDBRANCH  40  44
ENDBRANCH   1  40
TORSDOF 16
ENDMDL
MODEL 2
REMARK VINA RESULT:      -7.1      2.470      4.600
REMARK  Name = 
REMARK  17 active torsions:
REMARK  status: ('A' for Active; 'I' for Inactive)
REMARK    1  A    between atoms: C_1  and  C_2
REMARK    2  A    between atoms: C_4  and  O_53
REMARK    3  A    between atoms: C_6  and  O_52
REMARK    4  A    between atoms: C_8  and  O_51
REMARK    5  A    between atoms: C_10  and  O_13
REMARK    6  A    between atoms: O_13  and  C_14
REMARK    7  A    between atoms: C_16  and  O_50
REMARK    8  A    between atoms: C_21  and  C_42
REMARK    9  A    between atoms: C_22  and  O_25
REMARK   10  A    between atoms: O_25  and  C_26
REMARK   11  A    between atoms: C_28  and  O_41
REMARK   12  A    between atoms: C_30  and  O_40
REMARK   13  A    between atoms: C_32  and  O_39
REMARK   14  A    between atoms: C_34  and  C_37
REMARK   15  A    between atoms: C_37  and  O_38
REMARK   16  A    between atoms: C_44  and  O_49
REMARK   17  A    between atoms: C_45  and  O_48
REMARK                            x       y       z     vdW  Elec       q    Type
REMARK                         _______ _______ _______ _____ _____    ______ ____
ROOT
ATOM      1  C   UNL     1       5.426  -5.946  24.158  0.00  0.00    +0.131 A 
ATOM      2  C   UNL     1       5.335  -4.969  25.155  0.00  0.00    +0.093 A 
ATOM      3  C   UNL     1       6.263  -3.925  25.192  0.00  0.00    +0.147 A 
ATOM      4  O   UNL     1       6.161  -2.992  26.199  0.00  0.00    -0.451 OA
ATOM      5  C   UNL     1       6.881  -1.806  26.065  0.00  0.00    +0.181 A 
ATOM      6  C   UNL     1       7.889  -1.612  25.185  0.00  0.00    +0.214 A 
ATOM      7  C   UNL     1       8.310  -2.843  24.450  0.00  0.00    +0.238 A 
ATOM      8  O   UNL     1       9.469  -3.052  24.119  0.00  0.00    -0.283 OA
ATOM      9  C   UNL     1       7.280  -3.870  24.247  0.00  0.00    +0.109 A 
ATOM     10  C   UNL     1       7.335  -4.806  23.211  0.00  0.00    +0.135 A 
ATOM     11  C   UNL     1       6.410  -5.841  23.171  0.00  0.00    +0.092 A 
ENDROOT
BRANCH   5  12
ATOM     12  C   UNL     1       6.471  -0.776  27.035  0.00  0.00    +0.025 A 
ATOM     13  C   UNL     1       5.113  -0.509  27.269  0.00  0.00    +0.015 A 
ATOM     14  C   UNL     1       4.734   0.472  28.190  0.00  0.00    +0.050 A 
ATOM     15  C   UNL     1       5.711   1.166  28.883  0.00  0.00    +0.158 A 
ATOM     16  C   UNL     1       7.061   0.900  28.678  0.00  0.00    +0.159 A 
ATOM     17  C   UNL     1       7.449  -0.065  27.751  0.00  0.00    +0.060 A 
BRANCH  15  18
ATOM     18  O   UNL     1       5.336   2.120  29.790  0.00  0.00    -0.503 OA
ATOM     19  H   UNL     1       4.755   1.648  30.420  0.00  0.00    +0.292 HD
ENDBRANCH  15  18
BRANCH  16  20
ATOM     20  O   UNL     1       7.966   1.607  29.421  0.00  0.00    -0.503 OA
ATOM     21  H   UNL     1       8.491   2.165  28.821  0.00  0.00    +0.292 HD
ENDBRANCH  16  20
ENDBRANCH   5  12
BRANCH  10  22
ATOM     22  O   UNL     1       8.269  -4.704  22.224  0.00  0.00    -0.506 OA
ATOM     23  H   UNL     1       8.554  -3.781  22.127  0.00  0.00    +0.292 HD
ENDBRANCH  10  22
BRANCH   6  24
ATOM     24  O   UNL     1       8.534  -0.377  25.032  0.00  0.00    -0.453 OA
BRANCH  24  25
ATOM     25  C   UNL     1       7.889   0.566  24.149  0.00  0.00    +0.340 C 
ATOM     26  O   UNL     1       7.932   0.139  22.777  0.00  0.00    -0.331 OA
ATOM     27  C   UNL     1       9.075   0.436  21.972  0.00  0.00    +0.179 C 
ATOM     28  C   UNL     1       9.581   1.876  22.148  0.00  0.00    +0.177 C 
ATOM     29  C   UNL     1       9.734   2.246  23.628  0.00  0.00    +0.180 C 
ATOM     30  C   UNL     1       8.415   2.006  24.373  0.00  0.00    +0.214 C 
BRANCH  28  31
ATOM     31  O   UNL     1       8.621   2.756  21.533  0.00  0.00    -0.386 OA
ATOM     32  H   UNL     1       9.032   3.637  21.450  0.00  0.00    +0.210 HD
ENDBRANCH  28  31
BRANCH  29  33
ATOM     33  O   UNL     1      10.842   1.575  24.225  0.00  0.00    -0.386 OA
ATOM     34  H   UNL     1      11.556   1.481  23.568  0.00  0.00    +0.210 HD
ENDBRANCH  29  33
BRANCH  30  35
ATOM     35  O   UNL     1       7.451   2.980  23.945  0.00  0.00    -0.383 OA
ATOM     36  H   UNL     1       6.620   2.787  24.427  0.00  0.00    +0.210 HD
ENDBRANCH  30  35
BRANCH  27  37
ATOM     37  C   UNL     1      10.177  -0.628  22.099  0.00  0.00    +0.190 C 
BRANCH  37  38
ATOM     38  O   UNL     1       9.789  -1.873  21.519  0.00  0.00    -0.392 OA
ATOM     39  H   UNL     1       9.677  -1.744  20.561  0.00  0.00    +0.210 HD
ENDBRANCH  37  38
ENDBRANCH  27  37
ENDBRANCH  24  25
ENDBRANCH   6  24
BRANCH   1  40
ATOM     40  O   UNL     1       4.649  -7.061  24.025  0.00  0.00    -0.461 OA
BRANCH  40  44
ATOM     41  C   UNL     1       1.345  -7.613  26.777  0.00  0.00    +0.041 C 
ATOM     42  C   UNL     1       1.562  -8.396  25.487  0.00  0.00    +0.150 C 
ATOM     43  O   UNL     1       2.915  -8.304  25.025  0.00  0.00    -0.334 OA
ATOM     44  C   UNL     1       3.299  -7.028  24.502  0.00  0.00    +0.339 C 
ATOM     45  C   UNL     1       2.412  -6.635  23.298  0.00  0.00    +0.214 C 
ATOM     46  C   UNL     1       0.920  -6.739  23.644  0.00  0.00    +0.180 C 
ATOM     47  C   UNL     1       0.593  -8.066  24.339  0.00  0.00    +0.174 C 
BRANCH  47  48
ATOM     48  O   UNL     1       0.684  -9.118  23.363  0.00  0.00    -0.387 OA
ATOM     49  H   UNL     1       1.073  -9.903  23.796  0.00  0.00    +0.210 HD
ENDBRANCH  47  48
BRANCH  46  50
ATOM     50  O   UNL     1       0.497  -5.600  24.407  0.00  0.00    -0.386 OA
ATOM     51  H   UNL     1       0.904  -5.607  25.288  0.00  0.00    +0.210 HD
ENDBRANCH  46  50
BRANCH  45  52
ATOM     52  O   UNL     1       2.713  -5.302  22.851  0.00  0.00    -0.383 OA
ATOM     53  H   UNL     1       2.597  -4.701  23.612  0.00  0.00    +0.210 HD
ENDBRANCH  45  52
ENDBRANCH  40  44
ENDBRANCH   1  40
TORSDOF 16
ENDMDL
MODEL 3
REMARK VINA RESULT:      -7.0      2.384      4.144
REMARK  Name = 
REMARK  17 active torsions:
REMARK  status: ('A' for Active; 'I' for Inactive)
REMARK    1  A    between atoms: C_1  and  C_2
REMARK    2  A    between atoms: C_4  and  O_53
REMARK    3  A    between atoms: C_6  and  O_52
REMARK    4  A    between atoms: C_8  and  O_51
REMARK    5  A    between atoms: C_10  and  O_13
REMARK    6  A    between atoms: O_13  and  C_14
REMARK    7  A    between atoms: C_16  and  O_50
REMARK    8  A    between atoms: C_21  and  C_42
REMARK    9  A    between atoms: C_22  and  O_25
REMARK   10  A    between atoms: O_25  and  C_26
REMARK   11  A    between atoms: C_28  and  O_41
REMARK   12  A    between atoms: C_30  and  O_40
REMARK   13  A    between atoms: C_32  and  O_39
REMARK   14  A    between atoms: C_34  and  C_37
REMARK   15  A    between atoms: C_37  and  O_38
REMARK   16  A    between atoms: C_44  and  O_49
REMARK   17  A    between atoms: C_45  and  O_48
REMARK                            x       y       z     vdW  Elec       q    Type
REMARK                         _______ _______ _______ _____ _____    ______ ____
ROOT
ATOM      1  C   UNL     1       5.281  -5.989  24.331  0.00  0.00    +0.131 A 
ATOM      2  C   UNL     1       5.342  -4.899  25.206  0.00  0.00    +0.093 A 
ATOM      3  C   UNL     1       6.066  -3.759  24.847  0.00  0.00    +0.147 A 
ATOM      4  O   UNL     1       6.126  -2.713  25.739  0.00  0.00    -0.451 OA
ATOM      5  C   UNL     1       6.580  -1.481  25.270  0.00  0.00    +0.181 A 
ATOM      6  C   UNL     1       7.237  -1.296  24.103  0.00  0.00    +0.214 A 
ATOM      7  C   UNL     1       7.604  -2.560  23.396  0.00  0.00    +0.238 A 
ATOM      8  O   UNL     1       8.630  -2.676  22.738  0.00  0.00    -0.283 OA
ATOM      9  C   UNL     1       6.733  -3.718  23.629  0.00  0.00    +0.109 A 
ATOM     10  C   UNL     1       6.619  -4.778  22.724  0.00  0.00    +0.135 A 
ATOM     11  C   UNL     1       5.897  -5.910  23.078  0.00  0.00    +0.092 A 
ENDROOT
BRANCH   5  12
ATOM     12  C   UNL     1       6.324  -0.380  26.215  0.00  0.00    +0.025 A 
ATOM     13  C   UNL     1       5.181   0.424  26.089  0.00  0.00    +0.015 A 
ATOM     14  C   UNL     1       4.947   1.467  26.990  0.00  0.00    +0.050 A 
ATOM     15  C   UNL     1       5.846   1.688  28.019  0.00  0.00    +0.158 A 
ATOM     16  C   UNL     1       6.974   0.888  28.171  0.00  0.00    +0.159 A 
ATOM     17  C   UNL     1       7.223  -0.144  27.269  0.00  0.00    +0.060 A 
BRANCH  15  18
ATOM     18  O   UNL     1       5.610   2.705  28.904  0.00  0.00    -0.503 OA
ATOM     19  H   UNL     1       6.002   2.397  29.747  0.00  0.00    +0.292 HD
ENDBRANCH  15  18
BRANCH  16  20
ATOM     20  O   UNL     1       7.800   1.151  29.230  0.00  0.00    -0.503 OA
ATOM     21  H   UNL     1       8.016   2.099  29.225  0.00  0.00    +0.292 HD
ENDBRANCH  16  20
ENDBRANCH   5  12
BRANCH  10  22
ATOM     22  O   UNL     1       7.189  -4.707  21.488  0.00  0.00    -0.506 OA
ATOM     23  H   UNL     1       6.918  -3.888  21.041  0.00  0.00    +0.292 HD
ENDBRANCH  10  22
BRANCH   6  24
ATOM     24  O   UNL     1       7.607  -0.028  23.635  0.00  0.00    -0.453 OA
BRANCH  24  25
ATOM     25  C   UNL     1       8.824   0.518  24.186  0.00  0.00    +0.340 C 
ATOM     26  O   UNL     1       8.640   1.852  24.689  0.00  0.00    -0.331 OA
ATOM     27  C   UNL     1       8.747   2.970  23.807  0.00  0.00    +0.179 C 
ATOM     28  C   UNL     1       9.944   2.871  22.848  0.00  0.00    +0.177 C 
ATOM     29  C   UNL     1      10.004   1.506  22.153  0.00  0.00    +0.180 C 
ATOM     30  C   UNL     1      10.008   0.381  23.195  0.00  0.00    +0.214 C 
BRANCH  28  31
ATOM     31  O   UNL     1      11.143   3.065  23.625  0.00  0.00    -0.386 OA
ATOM     32  H   UNL     1      10.882   3.144  24.562  0.00  0.00    +0.210 HD
ENDBRANCH  28  31
BRANCH  29  33
ATOM     33  O   UNL     1       8.967   1.365  21.184  0.00  0.00    -0.386 OA
ATOM     34  H   UNL     1       8.580   0.473  21.250  0.00  0.00    +0.210 HD
ENDBRANCH  29  33
BRANCH  30  35
ATOM     35  O   UNL     1      11.265   0.391  23.890  0.00  0.00    -0.383 OA
ATOM     36  H   UNL     1      11.649   1.283  23.767  0.00  0.00    +0.210 HD
ENDBRANCH  30  35
BRANCH  27  37
ATOM     37  C   UNL     1       7.419   3.296  23.105  0.00  0.00    +0.190 C 
BRANCH  37  38
ATOM     38  O   UNL     1       7.617   4.053  21.912  0.00  0.00    -0.392 OA
ATOM     39  H   UNL     1       6.836   4.616  21.772  0.00  0.00    +0.210 HD
ENDBRANCH  37  38
ENDBRANCH  27  37
ENDBRANCH  24  25
ENDBRANCH   6  24
BRANCH   1  40
ATOM     40  O   UNL     1       4.683  -7.196  24.559  0.00  0.00    -0.461 OA
BRANCH  40  44
ATOM     41  C   UNL     1       1.083  -7.944  22.262  0.00  0.00    +0.041 C 
ATOM     42  C   UNL     1       1.508  -6.593  22.826  0.00  0.00    +0.150 C 
ATOM     43  O   UNL     1       2.902  -6.562  23.152  0.00  0.00    -0.334 OA
ATOM     44  C   UNL     1       3.282  -7.336  24.295  0.00  0.00    +0.339 C 
ATOM     45  C   UNL     1       2.539  -6.852  25.561  0.00  0.00    +0.214 C 
ATOM     46  C   UNL     1       1.023  -6.790  25.331  0.00  0.00    +0.180 C 
ATOM     47  C   UNL     1       0.680  -6.081  24.016  0.00  0.00    +0.174 C 
BRANCH  47  48
ATOM     48  O   UNL     1       0.954  -4.678  24.178  0.00  0.00    -0.387 OA
ATOM     49  H   UNL     1       0.174  -4.262  24.593  0.00  0.00    +0.210 HD
ENDBRANCH  47  48
BRANCH  46  50
ATOM     50  O   UNL     1       0.444  -8.100  25.417  0.00  0.00    -0.386 OA
ATOM     51  H   UNL     1      -0.384  -8.143  24.912  0.00  0.00    +0.210 HD
ENDBRANCH  46  50
BRANCH  45  52
ATOM     52  O   UNL     1       2.825  -7.707  26.682  0.00  0.00    -0.383 OA
ATOM     53  H   UNL     1       3.323  -7.180  27.337  0.00  0.00    +0.210 HD
ENDBRANCH  45  52
ENDBRANCH  40  44
ENDBRANCH   1  40
TORSDOF 16
ENDMDL
MODEL 4
REMARK VINA RESULT:      -7.0      2.503      8.969
REMARK  Name = 
REMARK  17 active torsions:
REMARK  status: ('A' for Active; 'I' for Inactive)
REMARK    1  A    between atoms: C_1  and  C_2
REMARK    2  A    between atoms: C_4  and  O_53
REMARK    3  A    between atoms: C_6  and  O_52
REMARK    4  A    between atoms: C_8  and  O_51
REMARK    5  A    between atoms: C_10  and  O_13
REMARK    6  A    between atoms: O_13  and  C_14
REMARK    7  A    between atoms: C_16  and  O_50
REMARK    8  A    between atoms: C_21  and  C_42
REMARK    9  A    between atoms: C_22  and  O_25
REMARK   10  A    between atoms: O_25  and  C_26
REMARK   11  A    between atoms: C_28  and  O_41
REMARK   12  A    between atoms: C_30  and  O_40
REMARK   13  A    between atoms: C_32  and  O_39
REMARK   14  A    between atoms: C_34  and  C_37
REMARK   15  A    between atoms: C_37  and  O_38
REMARK   16  A    between atoms: C_44  and  O_49
REMARK   17  A    between atoms: C_45  and  O_48
REMARK                            x       y       z     vdW  Elec       q    Type
REMARK                         _______ _______ _______ _____ _____    ______ ____
ROOT
ATOM      1  C   UNL     1       9.792   1.458  23.485  0.00  0.00    +0.131 A 
ATOM      2  C   UNL     1       8.775   1.092  24.373  0.00  0.00    +0.093 A 
ATOM      3  C   UNL     1       8.126  -0.136  24.220  0.00  0.00    +0.147 A 
ATOM      4  O   UNL     1       7.113  -0.457  25.095  0.00  0.00    -0.451 OA
ATOM      5  C   UNL     1       6.681  -1.782  25.135  0.00  0.00    +0.181 A 
ATOM      6  C   UNL     1       6.961  -2.711  24.194  0.00  0.00    +0.214 A 
ATOM      7  C   UNL     1       7.650  -2.174  22.983  0.00  0.00    +0.238 A 
ATOM      8  O   UNL     1       7.459  -2.622  21.860  0.00  0.00    -0.283 OA
ATOM      9  C   UNL     1       8.485  -0.983  23.178  0.00  0.00    +0.109 A 
ATOM     10  C   UNL     1       9.545  -0.650  22.330  0.00  0.00    +0.135 A 
ATOM     11  C   UNL     1      10.193   0.568  22.484  0.00  0.00    +0.092 A 
ENDROOT
BRANCH   5  12
ATOM     12  C   UNL     1       5.820  -2.067  26.296  0.00  0.00    +0.025 A 
ATOM     13  C   UNL     1       4.795  -1.183  26.666  0.00  0.00    +0.015 A 
ATOM     14  C   UNL     1       3.985  -1.462  27.770  0.00  0.00    +0.050 A 
ATOM     15  C   UNL     1       4.193  -2.628  28.487  0.00  0.00    +0.158 A 
ATOM     16  C   UNL     1       5.191  -3.525  28.122  0.00  0.00    +0.159 A 
ATOM     17  C   UNL     1       6.014  -3.249  27.032  0.00  0.00    +0.060 A 
BRANCH  15  18
ATOM     18  O   UNL     1       3.393  -2.903  29.563  0.00  0.00    -0.503 OA
ATOM     19  H   UNL     1       3.872  -3.597  30.058  0.00  0.00    +0.292 HD
ENDBRANCH  15  18
BRANCH  16  20
ATOM     20  O   UNL     1       5.316  -4.670  28.861  0.00  0.00    -0.503 OA
ATOM     21  H   UNL     1       4.437  -4.918  29.197  0.00  0.00    +0.292 HD
ENDBRANCH  16  20
ENDBRANCH   5  12
BRANCH  10  22
ATOM     22  O   UNL     1       9.969  -1.517  21.366  0.00  0.00    -0.506 OA
ATOM     23  H   UNL     1       9.385  -1.467  20.592  0.00  0.00    +0.292 HD
ENDBRANCH  10  22
BRANCH   6  24
ATOM     24  O   UNL     1       6.569  -4.052  24.315  0.00  0.00    -0.453 OA
BRANCH  24  25
ATOM     25  C   UNL     1       5.952  -4.636  23.147  0.00  0.00    +0.340 C 
ATOM     26  O   UNL     1       4.649  -4.085  22.891  0.00  0.00    -0.331 OA
ATOM     27  C   UNL     1       3.502  -4.624  23.550  0.00  0.00    +0.179 C 
ATOM     28  C   UNL     1       3.488  -6.161  23.577  0.00  0.00    +0.177 C 
ATOM     29  C   UNL     1       4.825  -6.733  24.060  0.00  0.00    +0.180 C 
ATOM     30  C   UNL     1       5.975  -6.184  23.207  0.00  0.00    +0.214 C 
BRANCH  28  31
ATOM     31  O   UNL     1       3.229  -6.619  22.235  0.00  0.00    -0.386 OA
ATOM     32  H   UNL     1       3.934  -7.250  21.994  0.00  0.00    +0.210 HD
ENDBRANCH  28  31
BRANCH  29  33
ATOM     33  O   UNL     1       5.014  -6.516  25.457  0.00  0.00    -0.386 OA
ATOM     34  H   UNL     1       5.397  -5.631  25.599  0.00  0.00    +0.210 HD
ENDBRANCH  29  33
BRANCH  30  35
ATOM     35  O   UNL     1       5.894  -6.752  21.891  0.00  0.00    -0.383 OA
ATOM     36  H   UNL     1       5.234  -6.224  21.395  0.00  0.00    +0.210 HD
ENDBRANCH  30  35
BRANCH  27  37
ATOM     37  C   UNL     1       3.254  -3.980  24.923  0.00  0.00    +0.190 C 
BRANCH  37  38
ATOM     38  O   UNL     1       2.576  -4.865  25.814  0.00  0.00    -0.392 OA
ATOM     39  H   UNL     1       1.626  -4.842  25.607  0.00  0.00    +0.210 HD
ENDBRANCH  37  38
ENDBRANCH  27  37
ENDBRANCH  24  25
ENDBRANCH   6  24
BRANCH   1  40
ATOM     40  O   UNL     1      10.470   2.643  23.452  0.00  0.00    -0.461 OA
BRANCH  40  44
ATOM     41  C   UNL     1       7.407   5.067  25.334  0.00  0.00    +0.041 C 
ATOM     42  C   UNL     1       7.727   5.044  23.843  0.00  0.00    +0.150 C 
ATOM     43  O   UNL     1       8.460   3.873  23.470  0.00  0.00    -0.334 OA
ATOM     44  C   UNL     1       9.818   3.829  23.922  0.00  0.00    +0.339 C 
ATOM     45  C   UNL     1      10.623   5.028  23.369  0.00  0.00    +0.214 C 
ATOM     46  C   UNL     1       9.916   6.358  23.660  0.00  0.00    +0.180 C 
ATOM     47  C   UNL     1       8.428   6.298  23.296  0.00  0.00    +0.174 C 
BRANCH  47  48
ATOM     48  O   UNL     1       8.318   6.280  21.862  0.00  0.00    -0.387 OA
ATOM     49  H   UNL     1       8.228   7.201  21.551  0.00  0.00    +0.210 HD
ENDBRANCH  47  48
BRANCH  46  50
ATOM     50  O   UNL     1      10.132   6.760  25.021  0.00  0.00    -0.386 OA
ATOM     51  H   UNL     1      10.654   7.578  25.058  0.00  0.00    +0.210 HD
ENDBRANCH  46  50
BRANCH  45  52
ATOM     52  O   UNL     1      11.950   5.053  23.922  0.00  0.00    -0.383 OA
ATOM     53  H   UNL     1      11.865   5.086  24.895  0.00  0.00    +0.210 HD
ENDBRANCH  45  52
ENDBRANCH  40  44
ENDBRANCH   1  40
TORSDOF 16
ENDMDL
MODEL 5
REMARK VINA RESULT:      -6.9      2.380     10.274
REMARK  Name = 
REMARK  17 active torsions:
REMARK  status: ('A' for Active; 'I' for Inactive)
REMARK    1  A    between atoms: C_1  and  C_2
REMARK    2  A    between atoms: C_4  and  O_53
REMARK    3  A    between atoms: C_6  and  O_52
REMARK    4  A    between atoms: C_8  and  O_51
REMARK    5  A    between atoms: C_10  and  O_13
REMARK    6  A    between atoms: O_13  and  C_14
REMARK    7  A    between atoms: C_16  and  O_50
REMARK    8  A    between atoms: C_21  and  C_42
REMARK    9  A    between atoms: C_22  and  O_25
REMARK   10  A    between atoms: O_25  and  C_26
REMARK   11  A    between atoms: C_28  and  O_41
REMARK   12  A    between atoms: C_30  and  O_40
REMARK   13  A    between atoms: C_32  and  O_39
REMARK   14  A    between atoms: C_34  and  C_37
REMARK   15  A    between atoms: C_37  and  O_38
REMARK   16  A    between atoms: C_44  and  O_49
REMARK   17  A    between atoms: C_45  and  O_48
REMARK                            x       y       z     vdW  Elec       q    Type
REMARK                         _______ _______ _______ _____ _____    ______ ____
ROOT
ATOM      1  C   UNL     1       5.089   2.683  24.966  0.00  0.00    +0.131 A 
ATOM      2  C   UNL     1       5.653   1.525  24.421  0.00  0.00    +0.093 A 
ATOM      3  C   UNL     1       5.473   0.296  25.061  0.00  0.00    +0.147 A 
ATOM      4  O   UNL     1       6.061  -0.821  24.512  0.00  0.00    -0.451 OA
ATOM      5  C   UNL     1       5.639  -2.069  24.966  0.00  0.00    +0.181 A 
ATOM      6  C   UNL     1       4.921  -2.277  26.093  0.00  0.00    +0.214 A 
ATOM      7  C   UNL     1       4.740  -1.060  26.940  0.00  0.00    +0.238 A 
ATOM      8  O   UNL     1       4.694  -1.105  28.162  0.00  0.00    -0.283 OA
ATOM      9  C   UNL     1       4.745   0.232  26.242  0.00  0.00    +0.109 A 
ATOM     10  C   UNL     1       4.124   1.375  26.754  0.00  0.00    +0.135 A 
ATOM     11  C   UNL     1       4.299   2.596  26.116  0.00  0.00    +0.092 A 
ENDROOT
BRANCH   5  12
ATOM     12  C   UNL     1       6.109  -3.176  24.114  0.00  0.00    +0.025 A 
ATOM     13  C   UNL     1       7.473  -3.497  24.039  0.00  0.00    +0.015 A 
ATOM     14  C   UNL     1       7.909  -4.547  23.227  0.00  0.00    +0.050 A 
ATOM     15  C   UNL     1       6.979  -5.281  22.509  0.00  0.00    +0.158 A 
ATOM     16  C   UNL     1       5.621  -4.990  22.588  0.00  0.00    +0.159 A 
ATOM     17  C   UNL     1       5.178  -3.935  23.383  0.00  0.00    +0.060 A 
BRANCH  15  18
ATOM     18  O   UNL     1       7.408  -6.314  21.721  0.00  0.00    -0.503 OA
ATOM     19  H   UNL     1       6.607  -6.853  21.561  0.00  0.00    +0.292 HD
ENDBRANCH  15  18
BRANCH  16  20
ATOM     20  O   UNL     1       4.761  -5.778  21.873  0.00  0.00    -0.503 OA
ATOM     21  H   UNL     1       5.120  -5.892  20.976  0.00  0.00    +0.292 HD
ENDBRANCH  16  20
ENDBRANCH   5  12
BRANCH  10  22
ATOM     22  O   UNL     1       3.327   1.304  27.858  0.00  0.00    -0.506 OA
ATOM     23  H   UNL     1       3.850   1.473  28.659  0.00  0.00    +0.292 HD
ENDBRANCH  10  22
BRANCH   6  24
ATOM     24  O   UNL     1       4.453  -3.543  26.470  0.00  0.00    -0.453 OA
BRANCH  24  25
ATOM     25  C   UNL     1       5.384  -4.368  27.202  0.00  0.00    +0.340 C 
ATOM     26  O   UNL     1       5.801  -5.516  26.444  0.00  0.00    -0.331 OA
ATOM     27  C   UNL     1       5.011  -6.706  26.454  0.00  0.00    +0.179 C 
ATOM     28  C   UNL     1       4.511  -7.087  27.857  0.00  0.00    +0.177 C 
ATOM     29  C   UNL     1       3.871  -5.893  28.575  0.00  0.00    +0.180 C 
ATOM     30  C   UNL     1       4.849  -4.713  28.615  0.00  0.00    +0.214 C 
BRANCH  28  31
ATOM     31  O   UNL     1       5.646  -7.548  28.615  0.00  0.00    -0.386 OA
ATOM     32  H   UNL     1       6.411  -6.992  28.375  0.00  0.00    +0.210 HD
ENDBRANCH  28  31
BRANCH  29  33
ATOM     33  O   UNL     1       2.609  -5.553  28.004  0.00  0.00    -0.386 OA
ATOM     34  H   UNL     1       2.068  -6.358  27.910  0.00  0.00    +0.210 HD
ENDBRANCH  29  33
BRANCH  30  35
ATOM     35  O   UNL     1       5.926  -5.027  29.511  0.00  0.00    -0.383 OA
ATOM     36  H   UNL     1       6.744  -5.052  28.973  0.00  0.00    +0.210 HD
ENDBRANCH  30  35
BRANCH  27  37
ATOM     37  C   UNL     1       3.905  -6.688  25.387  0.00  0.00    +0.190 C 
BRANCH  37  38
ATOM     38  O   UNL     1       4.202  -7.555  24.294  0.00  0.00    -0.392 OA
ATOM     39  H   UNL     1       4.954  -8.120  24.545  0.00  0.00    +0.210 HD
ENDBRANCH  37  38
ENDBRANCH  27  37
ENDBRANCH  24  25
ENDBRANCH   6  24
BRANCH   1  40
ATOM     40  O   UNL     1       5.230   3.963  24.509  0.00  0.00    -0.461 OA
BRANCH  40  44
ATOM     41  C   UNL     1       9.468   3.782  23.617  0.00  0.00    +0.041 C 
ATOM     42  C   UNL     1       8.801   4.796  24.538  0.00  0.00    +0.150 C 
ATOM     43  O   UNL     1       7.507   4.359  24.968  0.00  0.00    -0.334 OA
ATOM     44  C   UNL     1       6.490   4.369  23.961  0.00  0.00    +0.339 C 
ATOM     45  C   UNL     1       6.289   5.793  23.392  0.00  0.00    +0.214 C 
ATOM     46  C   UNL     1       7.620   6.405  22.935  0.00  0.00    +0.180 C 
ATOM     47  C   UNL     1       8.715   6.232  23.994  0.00  0.00    +0.174 C 
BRANCH  47  48
ATOM     48  O   UNL     1       8.416   7.108  25.095  0.00  0.00    -0.387 OA
ATOM     49  H   UNL     1       8.661   8.017  24.836  0.00  0.00    +0.210 HD
ENDBRANCH  47  48
BRANCH  46  50
ATOM     50  O   UNL     1       8.005   5.881  21.656  0.00  0.00    -0.386 OA
ATOM     51  H   UNL     1       8.519   6.537  21.157  0.00  0.00    +0.210 HD
ENDBRANCH  46  50
BRANCH  45  52
ATOM     52  O   UNL     1       5.359   5.781  22.296  0.00  0.00    -0.383 OA
ATOM     53  H   UNL     1       4.581   6.309  22.562  0.00  0.00    +0.210 HD
ENDBRANCH  45  52
ENDBRANCH  40  44
ENDBRANCH   1  40
TORSDOF 16
ENDMDL
MODEL 6
REMARK VINA RESULT:      -6.8      2.555      9.744
REMARK  Name = 
REMARK  17 active torsions:
REMARK  status: ('A' for Active; 'I' for Inactive)
REMARK    1  A    between atoms: C_1  and  C_2
REMARK    2  A    between atoms: C_4  and  O_53
REMARK    3  A    between atoms: C_6  and  O_52
REMARK    4  A    between atoms: C_8  and  O_51
REMARK    5  A    between atoms: C_10  and  O_13
REMARK    6  A    between atoms: O_13  and  C_14
REMARK    7  A    between atoms: C_16  and  O_50
REMARK    8  A    between atoms: C_21  and  C_42
REMARK    9  A    between atoms: C_22  and  O_25
REMARK   10  A    between atoms: O_25  and  C_26
REMARK   11  A    between atoms: C_28  and  O_41
REMARK   12  A    between atoms: C_30  and  O_40
REMARK   13  A    between atoms: C_32  and  O_39
REMARK   14  A    between atoms: C_34  and  C_37
REMARK   15  A    between atoms: C_37  and  O_38
REMARK   16  A    between atoms: C_44  and  O_49
REMARK   17  A    between atoms: C_45  and  O_48
REMARK                            x       y       z     vdW  Elec       q    Type
REMARK                         _______ _______ _______ _____ _____    ______ ____
ROOT
ATOM      1  C   UNL     1       7.979   0.648  23.602  0.00  0.00    +0.131 A 
ATOM      2  C   UNL     1       7.226  -0.457  23.189  0.00  0.00    +0.093 A 
ATOM      3  C   UNL     1       7.105  -1.569  24.027  0.00  0.00    +0.147 A 
ATOM      4  O   UNL     1       6.377  -2.649  23.582  0.00  0.00    -0.451 OA
ATOM      5  C   UNL     1       6.006  -3.615  24.517  0.00  0.00    +0.181 A 
ATOM      6  C   UNL     1       6.540  -3.735  25.753  0.00  0.00    +0.214 A 
ATOM      7  C   UNL     1       7.709  -2.840  26.009  0.00  0.00    +0.238 A 
ATOM      8  O   UNL     1       8.650  -3.169  26.718  0.00  0.00    -0.283 OA
ATOM      9  C   UNL     1       7.744  -1.578  25.260  0.00  0.00    +0.109 A 
ATOM     10  C   UNL     1       8.442  -0.451  25.704  0.00  0.00    +0.135 A 
ATOM     11  C   UNL     1       8.558   0.656  24.874  0.00  0.00    +0.092 A 
ENDROOT
BRANCH   5  12
ATOM     12  C   UNL     1       4.995  -4.552  23.998  0.00  0.00    +0.025 A 
ATOM     13  C   UNL     1       5.364  -5.822  23.531  0.00  0.00    +0.015 A 
ATOM     14  C   UNL     1       4.397  -6.704  23.040  0.00  0.00    +0.050 A 
ATOM     15  C   UNL     1       3.067  -6.318  23.035  0.00  0.00    +0.158 A 
ATOM     16  C   UNL     1       2.681  -5.071  23.514  0.00  0.00    +0.159 A 
ATOM     17  C   UNL     1       3.639  -4.179  23.991  0.00  0.00    +0.060 A 
BRANCH  15  18
ATOM     18  O   UNL     1       2.121  -7.187  22.561  0.00  0.00    -0.503 OA
ATOM     19  H   UNL     1       1.751  -6.744  21.771  0.00  0.00    +0.292 HD
ENDBRANCH  15  18
BRANCH  16  20
ATOM     20  O   UNL     1       1.346  -4.774  23.504  0.00  0.00    -0.503 OA
ATOM     21  H   UNL     1       0.976  -4.984  24.379  0.00  0.00    +0.292 HD
ENDBRANCH  16  20
ENDBRANCH   5  12
BRANCH  10  22
ATOM     22  O   UNL     1       8.990  -0.413  26.952  0.00  0.00    -0.506 OA
ATOM     23  H   UNL     1       9.467  -1.240  27.133  0.00  0.00    +0.292 HD
ENDBRANCH  10  22
BRANCH   6  24
ATOM     24  O   UNL     1       6.082  -4.674  26.688  0.00  0.00    -0.453 OA
BRANCH  24  25
ATOM     25  C   UNL     1       5.258  -4.153  27.753  0.00  0.00    +0.340 C 
ATOM     26  O   UNL     1       5.781  -4.483  29.051  0.00  0.00    -0.331 OA
ATOM     27  C   UNL     1       5.459  -5.738  29.653  0.00  0.00    +0.179 C 
ATOM     28  C   UNL     1       3.975  -6.113  29.512  0.00  0.00    +0.177 C 
ATOM     29  C   UNL     1       3.486  -5.958  28.067  0.00  0.00    +0.180 C 
ATOM     30  C   UNL     1       3.770  -4.539  27.561  0.00  0.00    +0.214 C 
BRANCH  28  31
ATOM     31  O   UNL     1       3.219  -5.236  30.369  0.00  0.00    -0.386 OA
ATOM     32  H   UNL     1       3.632  -4.353  30.332  0.00  0.00    +0.210 HD
ENDBRANCH  28  31
BRANCH  29  33
ATOM     33  O   UNL     1       4.025  -6.971  27.220  0.00  0.00    -0.386 OA
ATOM     34  H   UNL     1       4.610  -7.552  27.740  0.00  0.00    +0.210 HD
ENDBRANCH  29  33
BRANCH  30  35
ATOM     35  O   UNL     1       2.906  -3.617  28.244  0.00  0.00    -0.383 OA
ATOM     36  H   UNL     1       3.371  -2.754  28.262  0.00  0.00    +0.210 HD
ENDBRANCH  30  35
BRANCH  27  37
ATOM     37  C   UNL     1       6.423  -6.858  29.232  0.00  0.00    +0.190 C 
BRANCH  37  38
ATOM     38  O   UNL     1       7.415  -6.393  28.316  0.00  0.00    -0.392 OA
ATOM     39  H   UNL     1       8.132  -7.049  28.281  0.00  0.00    +0.210 HD
ENDBRANCH  37  38
ENDBRANCH  27  37
ENDBRANCH  24  25
ENDBRANCH   6  24
BRANCH   1  40
ATOM     40  O   UNL     1       8.253   1.774  22.880  0.00  0.00    -0.461 OA
BRANCH  40  44
ATOM     41  C   UNL     1       5.290   4.665  24.164  0.00  0.00    +0.041 C 
ATOM     42  C   UNL     1       6.055   4.708  22.846  0.00  0.00    +0.150 C 
ATOM     43  O   UNL     1       6.625   3.437  22.515  0.00  0.00    -0.334 OA
ATOM     44  C   UNL     1       7.732   3.030  23.327  0.00  0.00    +0.339 C 
ATOM     45  C   UNL     1       8.889   4.051  23.234  0.00  0.00    +0.214 C 
ATOM     46  C   UNL     1       8.402   5.477  23.521  0.00  0.00    +0.180 C 
ATOM     47  C   UNL     1       7.126   5.807  22.737  0.00  0.00    +0.174 C 
BRANCH  47  48
ATOM     48  O   UNL     1       7.476   5.950  21.349  0.00  0.00    -0.387 OA
ATOM     49  H   UNL     1       8.443   5.842  21.267  0.00  0.00    +0.210 HD
ENDBRANCH  47  48
BRANCH  46  50
ATOM     50  O   UNL     1       8.249   5.686  24.932  0.00  0.00    -0.386 OA
ATOM     51  H   UNL     1       9.084   5.514  25.397  0.00  0.00    +0.210 HD
ENDBRANCH  46  50
BRANCH  45  52
ATOM     52  O   UNL     1       9.950   3.709  24.143  0.00  0.00    -0.383 OA
ATOM     53  H   UNL     1      10.611   4.427  24.110  0.00  0.00    +0.210 HD
ENDBRANCH  45  52
ENDBRANCH  40  44
ENDBRANCH   1  40
TORSDOF 16
ENDMDL
MODEL 7
REMARK VINA RESULT:      -6.8      2.591     10.024
REMARK  Name = 
REMARK  17 active torsions:
REMARK  status: ('A' for Active; 'I' for Inactive)
REMARK    1  A    between atoms: C_1  and  C_2
REMARK    2  A    between atoms: C_4  and  O_53
REMARK    3  A    between atoms: C_6  and  O_52
REMARK    4  A    between atoms: C_8  and  O_51
REMARK    5  A    between atoms: C_10  and  O_13
REMARK    6  A    between atoms: O_13  and  C_14
REMARK    7  A    between atoms: C_16  and  O_50
REMARK    8  A    between atoms: C_21  and  C_42
REMARK    9  A    between atoms: C_22  and  O_25
REMARK   10  A    between atoms: O_25  and  C_26
REMARK   11  A    between atoms: C_28  and  O_41
REMARK   12  A    between atoms: C_30  and  O_40
REMARK   13  A    between atoms: C_32  and  O_39
REMARK   14  A    between atoms: C_34  and  C_37
REMARK   15  A    between atoms: C_37  and  O_38
REMARK   16  A    between atoms: C_44  and  O_49
REMARK   17  A    between atoms: C_45  and  O_48
REMARK                            x       y       z     vdW  Elec       q    Type
REMARK                         _______ _______ _______ _____ _____    ______ ____
ROOT
ATOM      1  C   UNL     1       7.352   1.569  23.470  0.00  0.00    +0.131 A 
ATOM      2  C   UNL     1       6.771   0.359  23.076  0.00  0.00    +0.093 A 
ATOM      3  C   UNL     1       6.598  -0.666  24.010  0.00  0.00    +0.147 A 
ATOM      4  O   UNL     1       6.045  -1.853  23.587  0.00  0.00    -0.451 OA
ATOM      5  C   UNL     1       5.599  -2.748  24.558  0.00  0.00    +0.181 A 
ATOM      6  C   UNL     1       5.923  -2.686  25.869  0.00  0.00    +0.214 A 
ATOM      7  C   UNL     1       6.956  -1.659  26.200  0.00  0.00    +0.238 A 
ATOM      8  O   UNL     1       7.786  -1.818  27.085  0.00  0.00    -0.283 OA
ATOM      9  C   UNL     1       7.017  -0.484  25.322  0.00  0.00    +0.109 A 
ATOM     10  C   UNL     1       7.537   0.746  25.735  0.00  0.00    +0.135 A 
ATOM     11  C   UNL     1       7.704   1.767  24.808  0.00  0.00    +0.092 A 
ENDROOT
BRANCH   5  12
ATOM     12  C   UNL     1       4.769  -3.829  24.000  0.00  0.00    +0.025 A 
ATOM     13  C   UNL     1       5.331  -4.818  23.178  0.00  0.00    +0.015 A 
ATOM     14  C   UNL     1       4.535  -5.839  22.652  0.00  0.00    +0.050 A 
ATOM     15  C   UNL     1       3.186  -5.875  22.964  0.00  0.00    +0.158 A 
ATOM     16  C   UNL     1       2.616  -4.915  23.793  0.00  0.00    +0.159 A 
ATOM     17  C   UNL     1       3.398  -3.885  24.310  0.00  0.00    +0.060 A 
BRANCH  15  18
ATOM     18  O   UNL     1       2.410  -6.881  22.454  0.00  0.00    -0.503 OA
ATOM     19  H   UNL     1       1.662  -6.959  23.080  0.00  0.00    +0.292 HD
ENDBRANCH  15  18
BRANCH  16  20
ATOM     20  O   UNL     1       1.283  -5.036  24.079  0.00  0.00    -0.503 OA
ATOM     21  H   UNL     1       1.190  -5.490  24.934  0.00  0.00    +0.292 HD
ENDBRANCH  16  20
ENDBRANCH   5  12
BRANCH  10  22
ATOM     22  O   UNL     1       7.860   0.967  27.041  0.00  0.00    -0.506 OA
ATOM     23  H   UNL     1       7.697   1.896  27.273  0.00  0.00    +0.292 HD
ENDBRANCH  10  22
BRANCH   6  24
ATOM     24  O   UNL     1       5.388  -3.563  26.823  0.00  0.00    -0.453 OA
BRANCH  24  25
ATOM     25  C   UNL     1       5.931  -4.901  26.824  0.00  0.00    +0.340 C 
ATOM     26  O   UNL     1       4.949  -5.883  26.454  0.00  0.00    -0.331 OA
ATOM     27  C   UNL     1       4.073  -6.427  27.442  0.00  0.00    +0.179 C 
ATOM     28  C   UNL     1       4.790  -6.789  28.753  0.00  0.00    +0.177 C 
ATOM     29  C   UNL     1       5.675  -5.640  29.251  0.00  0.00    +0.180 C 
ATOM     30  C   UNL     1       6.661  -5.217  28.154  0.00  0.00    +0.214 C 
BRANCH  28  31
ATOM     31  O   UNL     1       5.609  -7.946  28.497  0.00  0.00    -0.386 OA
ATOM     32  H   UNL     1       6.283  -7.696  27.837  0.00  0.00    +0.210 HD
ENDBRANCH  28  31
BRANCH  29  33
ATOM     33  O   UNL     1       4.895  -4.556  29.750  0.00  0.00    -0.386 OA
ATOM     34  H   UNL     1       5.266  -3.714  29.427  0.00  0.00    +0.210 HD
ENDBRANCH  29  33
BRANCH  30  35
ATOM     35  O   UNL     1       7.635  -6.256  27.974  0.00  0.00    -0.383 OA
ATOM     36  H   UNL     1       8.501  -5.814  27.854  0.00  0.00    +0.210 HD
ENDBRANCH  30  35
BRANCH  27  37
ATOM     37  C   UNL     1       2.810  -5.573  27.644  0.00  0.00    +0.190 C 
BRANCH  37  38
ATOM     38  O   UNL     1       1.706  -6.064  26.885  0.00  0.00    -0.392 OA
ATOM     39  H   UNL     1       2.037  -6.363  26.020  0.00  0.00    +0.210 HD
ENDBRANCH  37  38
ENDBRANCH  27  37
ENDBRANCH  24  25
ENDBRANCH   6  24
BRANCH   1  40
ATOM     40  O   UNL     1       7.655   2.635  22.672  0.00  0.00    -0.461 OA
BRANCH  40  44
ATOM     41  C   UNL     1       5.362   5.879  24.406  0.00  0.00    +0.041 C 
ATOM     42  C   UNL     1       5.801   5.787  22.950  0.00  0.00    +0.150 C 
ATOM     43  O   UNL     1       6.154   4.449  22.580  0.00  0.00    -0.334 OA
ATOM     44  C   UNL     1       7.375   3.958  23.145  0.00  0.00    +0.339 C 
ATOM     45  C   UNL     1       8.571   4.843  22.726  0.00  0.00    +0.214 C 
ATOM     46  C   UNL     1       8.303   6.324  23.024  0.00  0.00    +0.180 C 
ATOM     47  C   UNL     1       6.917   6.757  22.530  0.00  0.00    +0.174 C 
BRANCH  47  48
ATOM     48  O   UNL     1       6.948   6.806  21.093  0.00  0.00    -0.387 OA
ATOM     49  H   UNL     1       7.139   5.907  20.762  0.00  0.00    +0.210 HD
ENDBRANCH  47  48
BRANCH  46  50
ATOM     50  O   UNL     1       8.502   6.605  24.417  0.00  0.00    -0.386 OA
ATOM     51  H   UNL     1       9.387   6.323  24.700  0.00  0.00    +0.210 HD
ENDBRANCH  46  50
BRANCH  45  52
ATOM     52  O   UNL     1       9.776   4.426  23.391  0.00  0.00    -0.383 OA
ATOM     53  H   UNL     1      10.185   5.219  23.788  0.00  0.00    +0.210 HD
ENDBRANCH  45  52
ENDBRANCH  40  44
ENDBRANCH   1  40
TORSDOF 16
ENDMDL
MODEL 8
REMARK VINA RESULT:      -6.8      3.419      9.852
REMARK  Name = 
REMARK  17 active torsions:
REMARK  status: ('A' for Active; 'I' for Inactive)
REMARK    1  A    between atoms: C_1  and  C_2
REMARK    2  A    between atoms: C_4  and  O_53
REMARK    3  A    between atoms: C_6  and  O_52
REMARK    4  A    between atoms: C_8  and  O_51
REMARK    5  A    between atoms: C_10  and  O_13
REMARK    6  A    between atoms: O_13  and  C_14
REMARK    7  A    between atoms: C_16  and  O_50
REMARK    8  A    between atoms: C_21  and  C_42
REMARK    9  A    between atoms: C_22  and  O_25
REMARK   10  A    between atoms: O_25  and  C_26
REMARK   11  A    between atoms: C_28  and  O_41
REMARK   12  A    between atoms: C_30  and  O_40
REMARK   13  A    between atoms: C_32  and  O_39
REMARK   14  A    between atoms: C_34  and  C_37
REMARK   15  A    between atoms: C_37  and  O_38
REMARK   16  A    between atoms: C_44  and  O_49
REMARK   17  A    between atoms: C_45  and  O_48
REMARK                            x       y       z     vdW  Elec       q    Type
REMARK                         _______ _______ _______ _____ _____    ______ ____
ROOT
ATOM      1  C   UNL     1       8.874  -2.635  23.960  0.00  0.00    +0.131 A 
ATOM      2  C   UNL     1       7.770  -3.380  23.531  0.00  0.00    +0.093 A 
ATOM      3  C   UNL     1       7.126  -4.244  24.421  0.00  0.00    +0.147 A 
ATOM      4  O   UNL     1       6.058  -4.981  23.962  0.00  0.00    -0.451 OA
ATOM      5  C   UNL     1       5.240  -5.600  24.905  0.00  0.00    +0.181 A 
ATOM      6  C   UNL     1       5.564  -5.783  26.204  0.00  0.00    +0.214 A 
ATOM      7  C   UNL     1       6.971  -5.414  26.546  0.00  0.00    +0.238 A 
ATOM      8  O   UNL     1       7.625  -6.011  27.391  0.00  0.00    -0.283 OA
ATOM      9  C   UNL     1       7.593  -4.369  25.723  0.00  0.00    +0.109 A 
ATOM     10  C   UNL     1       8.653  -3.577  26.174  0.00  0.00    +0.135 A 
ATOM     11  C   UNL     1       9.290  -2.715  25.292  0.00  0.00    +0.092 A 
ENDROOT
BRANCH   5  12
ATOM     12  C   UNL     1       3.980  -6.101  24.327  0.00  0.00    +0.025 A 
ATOM     13  C   UNL     1       3.230  -5.311  23.443  0.00  0.00    +0.015 A 
ATOM     14  C   UNL     1       2.036  -5.795  22.902  0.00  0.00    +0.050 A 
ATOM     15  C   UNL     1       1.609  -7.070  23.232  0.00  0.00    +0.158 A 
ATOM     16  C   UNL     1       2.351  -7.874  24.090  0.00  0.00    +0.159 A 
ATOM     17  C   UNL     1       3.534  -7.395  24.648  0.00  0.00    +0.060 A 
BRANCH  15  18
ATOM     18  O   UNL     1       0.443  -7.544  22.694  0.00  0.00    -0.503 OA
ATOM     19  H   UNL     1      -0.264  -7.113  23.214  0.00  0.00    +0.292 HD
ENDBRANCH  15  18
BRANCH  16  20
ATOM     20  O   UNL     1       1.879  -9.133  24.346  0.00  0.00    -0.503 OA
ATOM     21  H   UNL     1       1.950  -9.302  25.301  0.00  0.00    +0.292 HD
ENDBRANCH  16  20
ENDBRANCH   5  12
BRANCH  10  22
ATOM     22  O   UNL     1       9.055  -3.621  27.476  0.00  0.00    -0.506 OA
ATOM     23  H   UNL     1       8.866  -4.495  27.855  0.00  0.00    +0.292 HD
ENDBRANCH  10  22
BRANCH   6  24
ATOM     24  O   UNL     1       4.677  -6.342  27.135  0.00  0.00    -0.453 OA
BRANCH  24  25
ATOM     25  C   UNL     1       4.508  -5.606  28.366  0.00  0.00    +0.340 C 
ATOM     26  O   UNL     1       3.783  -6.361  29.352  0.00  0.00    -0.331 OA
ATOM     27  C   UNL     1       2.355  -6.349  29.354  0.00  0.00    +0.179 C 
ATOM     28  C   UNL     1       1.762  -4.946  29.145  0.00  0.00    +0.177 C 
ATOM     29  C   UNL     1       2.402  -4.232  27.949  0.00  0.00    +0.180 C 
ATOM     30  C   UNL     1       3.926  -4.193  28.108  0.00  0.00    +0.214 C 
BRANCH  28  31
ATOM     31  O   UNL     1       2.009  -4.185  30.343  0.00  0.00    -0.386 OA
ATOM     32  H   UNL     1       1.444  -4.550  31.051  0.00  0.00    +0.210 HD
ENDBRANCH  28  31
BRANCH  29  33
ATOM     33  O   UNL     1       1.984  -4.805  26.711  0.00  0.00    -0.386 OA
ATOM     34  H   UNL     1       1.768  -5.746  26.846  0.00  0.00    +0.210 HD
ENDBRANCH  29  33
BRANCH  30  35
ATOM     35  O   UNL     1       4.263  -3.295  29.176  0.00  0.00    -0.383 OA
ATOM     36  H   UNL     1       5.066  -2.808  28.894  0.00  0.00    +0.210 HD
ENDBRANCH  30  35
BRANCH  27  37
ATOM     37  C   UNL     1       1.755  -7.417  28.426  0.00  0.00    +0.190 C 
BRANCH  37  38
ATOM     38  O   UNL     1       1.847  -8.726  28.988  0.00  0.00    -0.392 OA
ATOM     39  H   UNL     1       0.946  -9.044  29.176  0.00  0.00    +0.210 HD
ENDBRANCH  37  38
ENDBRANCH  27  37
ENDBRANCH  24  25
ENDBRANCH   6  24
BRANCH   1  40
ATOM     40  O   UNL     1       9.654  -1.807  23.203  0.00  0.00    -0.461 OA
BRANCH  40  44
ATOM     41  C   UNL     1       9.268   2.264  24.642  0.00  0.00    +0.041 C 
ATOM     42  C   UNL     1       8.110   1.332  24.303  0.00  0.00    +0.150 C 
ATOM     43  O   UNL     1       8.518  -0.041  24.271  0.00  0.00    -0.334 OA
ATOM     44  C   UNL     1       9.346  -0.409  23.163  0.00  0.00    +0.339 C 
ATOM     45  C   UNL     1       8.621  -0.151  21.822  0.00  0.00    +0.214 C 
ATOM     46  C   UNL     1       8.084   1.284  21.744  0.00  0.00    +0.180 C 
ATOM     47  C   UNL     1       7.333   1.677  23.022  0.00  0.00    +0.174 C 
BRANCH  47  48
ATOM     48  O   UNL     1       6.088   0.958  23.049  0.00  0.00    -0.387 OA
ATOM     49  H   UNL     1       5.583   1.253  23.831  0.00  0.00    +0.210 HD
ENDBRANCH  47  48
BRANCH  46  50
ATOM     50  O   UNL     1       9.138   2.202  21.421  0.00  0.00    -0.386 OA
ATOM     51  H   UNL     1       8.796   2.951  20.906  0.00  0.00    +0.210 HD
ENDBRANCH  46  50
BRANCH  45  52
ATOM     52  O   UNL     1       9.496  -0.403  20.709  0.00  0.00    -0.383 OA
ATOM     53  H   UNL     1       9.154   0.100  19.944  0.00  0.00    +0.210 HD
ENDBRANCH  45  52
ENDBRANCH  40  44
ENDBRANCH   1  40
TORSDOF 16
ENDMDL
MODEL 9
REMARK VINA RESULT:      -6.8      3.056      9.718
REMARK  Name = 
REMARK  17 active torsions:
REMARK  status: ('A' for Active; 'I' for Inactive)
REMARK    1  A    between atoms: C_1  and  C_2
REMARK    2  A    between atoms: C_4  and  O_53
REMARK    3  A    between atoms: C_6  and  O_52
REMARK    4  A    between atoms: C_8  and  O_51
REMARK    5  A    between atoms: C_10  and  O_13
REMARK    6  A    between atoms: O_13  and  C_14
REMARK    7  A    between atoms: C_16  and  O_50
REMARK    8  A    between atoms: C_21  and  C_42
REMARK    9  A    between atoms: C_22  and  O_25
REMARK   10  A    between atoms: O_25  and  C_26
REMARK   11  A    between atoms: C_28  and  O_41
REMARK   12  A    between atoms: C_30  and  O_40
REMARK   13  A    between atoms: C_32  and  O_39
REMARK   14  A    between atoms: C_34  and  C_37
REMARK   15  A    between atoms: C_37  and  O_38
REMARK   16  A    between atoms: C_44  and  O_49
REMARK   17  A    between atoms: C_45  and  O_48
REMARK                            x       y       z     vdW  Elec       q    Type
REMARK                         _______ _______ _______ _____ _____    ______ ____
ROOT
ATOM      1  C   UNL     1       8.418  -1.600  23.188  0.00  0.00    +0.131 A 
ATOM      2  C   UNL     1       7.449  -2.577  22.938  0.00  0.00    +0.093 A 
ATOM      3  C   UNL     1       7.009  -3.402  23.976  0.00  0.00    +0.147 A 
ATOM      4  O   UNL     1       6.072  -4.370  23.693  0.00  0.00    -0.451 OA
ATOM      5  C   UNL     1       5.420  -4.979  24.764  0.00  0.00    +0.181 A 
ATOM      6  C   UNL     1       5.828  -4.916  26.051  0.00  0.00    +0.214 A 
ATOM      7  C   UNL     1       7.160  -4.266  26.243  0.00  0.00    +0.238 A 
ATOM      8  O   UNL     1       7.946  -4.615  27.114  0.00  0.00    -0.283 OA
ATOM      9  C   UNL     1       7.547  -3.258  25.249  0.00  0.00    +0.109 A 
ATOM     10  C   UNL     1       8.466  -2.239  25.518  0.00  0.00    +0.135 A 
ATOM     11  C   UNL     1       8.899  -1.416  24.487  0.00  0.00    +0.092 A 
ENDROOT
BRANCH   5  12
ATOM     12  C   UNL     1       4.248  -5.767  24.345  0.00  0.00    +0.025 A 
ATOM     13  C   UNL     1       3.344  -5.263  23.397  0.00  0.00    +0.015 A 
ATOM     14  C   UNL     1       2.234  -6.018  23.007  0.00  0.00    +0.050 A 
ATOM     15  C   UNL     1       2.043  -7.276  23.553  0.00  0.00    +0.158 A 
ATOM     16  C   UNL     1       2.940  -7.799  24.478  0.00  0.00    +0.159 A 
ATOM     17  C   UNL     1       4.041  -7.049  24.885  0.00  0.00    +0.060 A 
BRANCH  15  18
ATOM     18  O   UNL     1       0.960  -8.016  23.163  0.00  0.00    -0.503 OA
ATOM     19  H   UNL     1       0.351  -7.987  23.929  0.00  0.00    +0.292 HD
ENDBRANCH  15  18
BRANCH  16  20
ATOM     20  O   UNL     1       2.700  -9.061  24.950  0.00  0.00    -0.503 OA
ATOM     21  H   UNL     1       3.554  -9.494  25.122  0.00  0.00    +0.292 HD
ENDBRANCH  16  20
ENDBRANCH   5  12
BRANCH  10  22
ATOM     22  O   UNL     1       8.925  -2.027  26.783  0.00  0.00    -0.506 OA
ATOM     23  H   UNL     1       9.872  -1.812  26.764  0.00  0.00    +0.292 HD
ENDBRANCH  10  22
BRANCH   6  24
ATOM     24  O   UNL     1       5.098  -5.480  27.106  0.00  0.00    -0.453 OA
BRANCH  24  25
ATOM     25  C   UNL     1       4.139  -4.611  27.745  0.00  0.00    +0.340 C 
ATOM     26  O   UNL     1       4.564  -4.209  29.058  0.00  0.00    -0.331 OA
ATOM     27  C   UNL     1       4.292  -5.045  30.185  0.00  0.00    +0.179 C 
ATOM     28  C   UNL     1       2.864  -5.614  30.185  0.00  0.00    +0.177 C 
ATOM     29  C   UNL     1       2.500  -6.235  28.831  0.00  0.00    +0.180 C 
ATOM     30  C   UNL     1       2.711  -5.213  27.706  0.00  0.00    +0.214 C 
BRANCH  28  31
ATOM     31  O   UNL     1       1.962  -4.528  30.471  0.00  0.00    -0.386 OA
ATOM     32  H   UNL     1       1.051  -4.854  30.339  0.00  0.00    +0.210 HD
ENDBRANCH  28  31
BRANCH  29  33
ATOM     33  O   UNL     1       3.197  -7.459  28.611  0.00  0.00    -0.386 OA
ATOM     34  H   UNL     1       2.624  -8.075  28.119  0.00  0.00    +0.210 HD
ENDBRANCH  29  33
BRANCH  30  35
ATOM     35  O   UNL     1       1.715  -4.185  27.814  0.00  0.00    -0.383 OA
ATOM     36  H   UNL     1       2.158  -3.401  28.200  0.00  0.00    +0.210 HD
ENDBRANCH  30  35
BRANCH  27  37
ATOM     37  C   UNL     1       5.381  -6.108  30.406  0.00  0.00    +0.190 C 
BRANCH  37  38
ATOM     38  O   UNL     1       6.463  -5.964  29.486  0.00  0.00    -0.392 OA
ATOM     39  H   UNL     1       7.189  -6.544  29.772  0.00  0.00    +0.210 HD
ENDBRANCH  37  38
ENDBRANCH  27  37
ENDBRANCH  24  25
ENDBRANCH   6  24
BRANCH   1  40
ATOM     40  O   UNL     1       9.002  -0.767  22.276  0.00  0.00    -0.461 OA
BRANCH  40  44
ATOM     41  C   UNL     1      10.932   3.033  23.069  0.00  0.00    +0.041 C 
ATOM     42  C   UNL     1      10.163   2.201  24.089  0.00  0.00    +0.150 C 
ATOM     43  O   UNL     1      10.016   0.840  23.669  0.00  0.00    -0.334 OA
ATOM     44  C   UNL     1       9.111   0.628  22.580  0.00  0.00    +0.339 C 
ATOM     45  C   UNL     1       7.689   1.117  22.940  0.00  0.00    +0.214 C 
ATOM     46  C   UNL     1       7.709   2.562  23.457  0.00  0.00    +0.180 C 
ATOM     47  C   UNL     1       8.799   2.769  24.515  0.00  0.00    +0.174 C 
BRANCH  47  48
ATOM     48  O   UNL     1       8.391   2.092  25.717  0.00  0.00    -0.387 OA
ATOM     49  H   UNL     1       7.438   1.890  25.644  0.00  0.00    +0.210 HD
ENDBRANCH  47  48
BRANCH  46  50
ATOM     50  O   UNL     1       7.819   3.488  22.367  0.00  0.00    -0.386 OA
ATOM     51  H   UNL     1       6.985   3.536  21.871  0.00  0.00    +0.210 HD
ENDBRANCH  46  50
BRANCH  45  52
ATOM     52  O   UNL     1       6.810   1.021  21.806  0.00  0.00    -0.383 OA
ATOM     53  H   UNL     1       7.101   1.682  21.148  0.00  0.00    +0.210 HD
ENDBRANCH  45  52
ENDBRANCH  40  44
ENDBRANCH   1  40
TORSDOF 16
ENDMDL
