MODEL 1
REMARK VINA RESULT:      -7.6      0.000      0.000
REMARK  Name = 
REMARK  16 active torsions:
REMARK  status: ('A' for Active; 'I' for Inactive)
REMARK    1  A    between atoms: C_3  and  O_49
REMARK    2  A    between atoms: C_6  and  C_7
REMARK    3  A    between atoms: C_8  and  C_9
REMARK    4  A    between atoms: C_9  and  O_11
REMARK    5  A    between atoms: O_11  and  C_12
REMARK    6  A    between atoms: C_14  and  O_48
REMARK    7  A    between atoms: C_16  and  C_46
REMARK    8  A    between atoms: C_19  and  O_24
REMARK    9  A    between atoms: C_21  and  O_23
REMARK   10  A    between atoms: O_24  and  C_25
REMARK   11  A    between atoms: C_26  and  C_38
REMARK   12  A    between atoms: C_30  and  O_37
REMARK   13  A    between atoms: C_32  and  O_36
REMARK   14  A    between atoms: C_40  and  O_45
REMARK   15  A    between atoms: C_41  and  O_44
REMARK   16  A    between atoms: C_46  and  O_47
REMARK                            x       y       z     vdW  Elec       q    Type
REMARK                         _______ _______ _______ _____ _____    ______ ____
ROOT
ATOM      1  C   UNL     1       9.910   0.814  22.712  0.00  0.00    +0.242 C 
ATOM      2  C   UNL     1       9.658   0.576  24.216  0.00  0.00    +0.226 C 
ATOM      3  C   UNL     1       8.269   1.062  24.697  0.00  0.00    +0.341 C 
ATOM      4  O   UNL     1       7.942   2.374  24.193  0.00  0.00    -0.331 OA
ATOM      5  C   UNL     1       8.169   2.657  22.801  0.00  0.00    +0.180 C 
ATOM      6  C   UNL     1       9.590   2.273  22.352  0.00  0.00    +0.189 C 
ENDROOT
BRANCH   6   7
ATOM      7  O   UNL     1      10.544   3.157  22.962  0.00  0.00    -0.385 OA
ATOM      8  H   UNL     1      11.050   2.631  23.618  0.00  0.00    +0.210 HD
ENDBRANCH   6   7
BRANCH   2   9
ATOM      9  O   UNL     1      10.653   1.330  24.953  0.00  0.00    -0.382 OA
ATOM     10  H   UNL     1      10.333   1.419  25.870  0.00  0.00    +0.210 HD
ENDBRANCH   2   9
BRANCH   3  11
ATOM     11  O   UNL     1       7.179   0.174  24.481  0.00  0.00    -0.453 OA
BRANCH  11  12
ATOM     12  C   UNL     1       6.346  -0.309  25.473  0.00  0.00    +0.214 A 
ATOM     13  C   UNL     1       5.280   0.701  25.853  0.00  0.00    +0.238 A 
ATOM     14  O   UNL     1       5.294   1.806  25.307  0.00  0.00    -0.283 OA
ATOM     15  C   UNL     1       4.225   0.320  26.808  0.00  0.00    +0.109 A 
ATOM     16  C   UNL     1       4.318  -0.941  27.361  0.00  0.00    +0.147 A 
ATOM     17  C   UNL     1       3.317  -1.442  28.203  0.00  0.00    +0.092 A 
ATOM     18  C   UNL     1       2.219  -0.650  28.511  0.00  0.00    +0.124 A 
ATOM     19  C   UNL     1       2.125   0.634  28.001  0.00  0.00    +0.091 A 
ATOM     20  O   UNL     1       5.388  -1.755  27.151  0.00  0.00    -0.451 OA
ATOM     21  C   UNL     1       3.135   1.121  27.164  0.00  0.00    +0.135 A 
ATOM     22  C   UNL     1       6.371  -1.464  26.195  0.00  0.00    +0.181 A 
BRANCH  22  23
ATOM     23  C   UNL     1       7.347  -2.608  26.225  0.00  0.00    +0.025 A 
ATOM     24  C   UNL     1       8.527  -2.480  25.437  0.00  0.00    +0.015 A 
ATOM     25  C   UNL     1       9.471  -3.502  25.309  0.00  0.00    +0.050 A 
ATOM     26  C   UNL     1       9.248  -4.692  25.963  0.00  0.00    +0.158 A 
ATOM     27  C   UNL     1       8.084  -4.875  26.710  0.00  0.00    +0.159 A 
ATOM     28  C   UNL     1       7.128  -3.853  26.834  0.00  0.00    +0.060 A 
BRANCH  27  29
ATOM     29  O   UNL     1       7.922  -6.105  27.288  0.00  0.00    -0.503 OA
ATOM     30  H   UNL     1       7.658  -6.741  26.598  0.00  0.00    +0.292 HD
ENDBRANCH  27  29
BRANCH  26  31
ATOM     31  O   UNL     1      10.170  -5.689  25.839  0.00  0.00    -0.503 OA
ATOM     32  H   UNL     1      11.026  -5.271  26.053  0.00  0.00    +0.292 HD
ENDBRANCH  26  31
ENDBRANCH  22  23
BRANCH  18  33
ATOM     33  O   UNL     1       1.218  -1.088  29.325  0.00  0.00    -0.507 OA
ATOM     34  H   UNL     1       1.588  -1.642  30.031  0.00  0.00    +0.292 HD
ENDBRANCH  18  33
BRANCH  21  35
ATOM     35  O   UNL     1       3.045   2.407  26.735  0.00  0.00    -0.506 OA
ATOM     36  H   UNL     1       3.707   2.569  26.041  0.00  0.00    +0.292 HD
ENDBRANCH  21  35
ENDBRANCH  11  12
ENDBRANCH   3  11
BRANCH   5  37
ATOM     37  C   UNL     1       7.057   2.134  21.869  0.00  0.00    +0.190 C 
BRANCH  37  38
ATOM     38  O   UNL     1       5.804   2.037  22.551  0.00  0.00    -0.392 OA
ATOM     39  H   UNL     1       5.381   1.194  22.311  0.00  0.00    +0.210 HD
ENDBRANCH  37  38
ENDBRANCH   5  37
BRANCH   1  40
ATOM     40  O   UNL     1       9.132  -0.040  21.853  0.00  0.00    -0.453 OA
BRANCH  40  41
ATOM     41  C   UNL     1       9.333  -1.374  21.972  0.00  0.00    +0.332 C 
ATOM     42  O   UNL     1      10.415  -1.931  22.042  0.00  0.00    -0.246 OA
BRANCH  41  44
ATOM     43  C   UNL     1       7.933  -3.365  22.173  0.00  0.00    +0.015 C 
ATOM     44  C   UNL     1       8.013  -2.034  22.027  0.00  0.00    +0.092 C 
BRANCH  43  46
ATOM     45  C   UNL     1       5.552  -3.586  22.983  0.00  0.00    +0.011 A 
ATOM     46  C   UNL     1       6.678  -4.117  22.332  0.00  0.00    -0.025 A 
ATOM     47  C   UNL     1       6.643  -5.459  21.926  0.00  0.00    +0.011 A 
ATOM     48  C   UNL     1       5.513  -6.246  22.160  0.00  0.00    +0.046 A 
ATOM     49  C   UNL     1       4.416  -5.702  22.814  0.00  0.00    +0.117 A 
ATOM     50  C   UNL     1       4.423  -4.375  23.226  0.00  0.00    +0.046 A 
BRANCH  49  51
ATOM     51  O   UNL     1       3.351  -6.517  23.056  0.00  0.00    -0.507 OA
ATOM     52  H   UNL     1       2.816  -6.129  23.768  0.00  0.00    +0.292 HD
ENDBRANCH  49  51
ENDBRANCH  43  46
ENDBRANCH  41  44
ENDBRANCH  40  41
ENDBRANCH   1  40
TORSDOF 16
ENDMDL
MODEL 2
REMARK VINA RESULT:      -7.4      2.681      7.374
REMARK  Name = 
REMARK  16 active torsions:
REMARK  status: ('A' for Active; 'I' for Inactive)
REMARK    1  A    between atoms: C_3  and  O_49
REMARK    2  A    between atoms: C_6  and  C_7
REMARK    3  A    between atoms: C_8  and  C_9
REMARK    4  A    between atoms: C_9  and  O_11
REMARK    5  A    between atoms: O_11  and  C_12
REMARK    6  A    between atoms: C_14  and  O_48
REMARK    7  A    between atoms: C_16  and  C_46
REMARK    8  A    between atoms: C_19  and  O_24
REMARK    9  A    between atoms: C_21  and  O_23
REMARK   10  A    between atoms: O_24  and  C_25
REMARK   11  A    between atoms: C_26  and  C_38
REMARK   12  A    between atoms: C_30  and  O_37
REMARK   13  A    between atoms: C_32  and  O_36
REMARK   14  A    between atoms: C_40  and  O_45
REMARK   15  A    between atoms: C_41  and  O_44
REMARK   16  A    between atoms: C_46  and  O_47
REMARK                            x       y       z     vdW  Elec       q    Type
REMARK                         _______ _______ _______ _____ _____    ______ ____
ROOT
ATOM      1  C   UNL     1       7.359   1.937  26.985  0.00  0.00    +0.242 C 
ATOM      2  C   UNL     1       7.494   0.401  26.908  0.00  0.00    +0.226 C 
ATOM      3  C   UNL     1       6.219  -0.358  27.348  0.00  0.00    +0.341 C 
ATOM      4  O   UNL     1       5.657   0.174  28.566  0.00  0.00    -0.331 OA
ATOM      5  C   UNL     1       5.518   1.600  28.700  0.00  0.00    +0.180 C 
ATOM      6  C   UNL     1       6.823   2.346  28.366  0.00  0.00    +0.189 C 
ENDROOT
BRANCH   6   7
ATOM      7  O   UNL     1       7.805   2.078  29.381  0.00  0.00    -0.385 OA
ATOM      8  H   UNL     1       8.636   1.832  28.921  0.00  0.00    +0.210 HD
ENDBRANCH   6   7
BRANCH   2   9
ATOM      9  O   UNL     1       8.559   0.009  27.811  0.00  0.00    -0.382 OA
ATOM     10  H   UNL     1       8.396   0.450  28.665  0.00  0.00    +0.210 HD
ENDBRANCH   2   9
BRANCH   3  11
ATOM     11  O   UNL     1       5.199  -0.504  26.368  0.00  0.00    -0.453 OA
BRANCH  11  12
ATOM     12  C   UNL     1       5.081  -1.578  25.506  0.00  0.00    +0.214 A 
ATOM     13  C   UNL     1       4.136  -2.633  26.049  0.00  0.00    +0.238 A 
ATOM     14  O   UNL     1       3.637  -2.459  27.163  0.00  0.00    -0.283 OA
ATOM     15  C   UNL     1       3.789  -3.796  25.216  0.00  0.00    +0.109 A 
ATOM     16  C   UNL     1       4.416  -3.888  23.990  0.00  0.00    +0.147 A 
ATOM     17  C   UNL     1       4.087  -4.899  23.078  0.00  0.00    +0.092 A 
ATOM     18  C   UNL     1       3.129  -5.845  23.417  0.00  0.00    +0.124 A 
ATOM     19  C   UNL     1       2.516  -5.797  24.658  0.00  0.00    +0.091 A 
ATOM     20  O   UNL     1       5.403  -3.033  23.607  0.00  0.00    -0.451 OA
ATOM     21  C   UNL     1       2.858  -4.783  25.560  0.00  0.00    +0.135 A 
ATOM     22  C   UNL     1       5.710  -1.874  24.333  0.00  0.00    +0.181 A 
BRANCH  22  23
ATOM     23  C   UNL     1       6.806  -1.174  23.578  0.00  0.00    +0.025 A 
ATOM     24  C   UNL     1       6.663   0.228  23.369  0.00  0.00    +0.015 A 
ATOM     25  C   UNL     1       7.564   0.980  22.612  0.00  0.00    +0.050 A 
ATOM     26  C   UNL     1       8.634   0.339  22.032  0.00  0.00    +0.158 A 
ATOM     27  C   UNL     1       8.788  -1.040  22.175  0.00  0.00    +0.159 A 
ATOM     28  C   UNL     1       7.879  -1.802  22.928  0.00  0.00    +0.060 A 
BRANCH  27  29
ATOM     29  O   UNL     1       9.854  -1.603  21.525  0.00  0.00    -0.503 OA
ATOM     30  H   UNL     1       9.713  -1.516  20.565  0.00  0.00    +0.292 HD
ENDBRANCH  27  29
BRANCH  26  31
ATOM     31  O   UNL     1       9.515   1.073  21.293  0.00  0.00    -0.503 OA
ATOM     32  H   UNL     1      10.119   0.417  20.894  0.00  0.00    +0.292 HD
ENDBRANCH  26  31
ENDBRANCH  22  23
BRANCH  18  33
ATOM     33  O   UNL     1       2.773  -6.848  22.567  0.00  0.00    -0.507 OA
ATOM     34  H   UNL     1       3.376  -6.865  21.807  0.00  0.00    +0.292 HD
ENDBRANCH  18  33
BRANCH  21  35
ATOM     35  O   UNL     1       2.287  -4.805  26.792  0.00  0.00    -0.506 OA
ATOM     36  H   UNL     1       2.716  -5.485  27.340  0.00  0.00    +0.292 HD
ENDBRANCH  21  35
ENDBRANCH  11  12
ENDBRANCH   3  11
BRANCH   5  37
ATOM     37  C   UNL     1       4.273   2.174  27.995  0.00  0.00    +0.190 C 
BRANCH  37  38
ATOM     38  O   UNL     1       4.334   3.600  27.902  0.00  0.00    -0.392 OA
ATOM     39  H   UNL     1       3.646   3.981  28.476  0.00  0.00    +0.210 HD
ENDBRANCH  37  38
ENDBRANCH   5  37
BRANCH   1  40
ATOM     40  O   UNL     1       6.484   2.491  25.984  0.00  0.00    -0.453 OA
BRANCH  40  41
ATOM     41  C   UNL     1       6.775   3.737  25.541  0.00  0.00    +0.332 C 
ATOM     42  O   UNL     1       6.052   4.715  25.628  0.00  0.00    -0.246 OA
BRANCH  41  44
ATOM     43  C   UNL     1       8.746   4.858  24.633  0.00  0.00    +0.015 C 
ATOM     44  C   UNL     1       8.132   3.711  24.957  0.00  0.00    +0.092 C 
BRANCH  43  46
ATOM     45  C   UNL     1      10.765   3.908  23.453  0.00  0.00    +0.011 A 
ATOM     46  C   UNL     1      10.127   4.958  24.133  0.00  0.00    -0.025 A 
ATOM     47  C   UNL     1      10.875   6.100  24.451  0.00  0.00    +0.011 A 
ATOM     48  C   UNL     1      12.224   6.192  24.097  0.00  0.00    +0.046 A 
ATOM     49  C   UNL     1      12.836   5.136  23.434  0.00  0.00    +0.117 A 
ATOM     50  C   UNL     1      12.117   3.994  23.105  0.00  0.00    +0.046 A 
BRANCH  49  51
ATOM     51  O   UNL     1      14.162   5.252  23.143  0.00  0.00    -0.507 OA
ATOM     52  H   UNL     1      14.288   5.090  22.193  0.00  0.00    +0.292 HD
ENDBRANCH  49  51
ENDBRANCH  43  46
ENDBRANCH  41  44
ENDBRANCH  40  41
ENDBRANCH   1  40
TORSDOF 16
ENDMDL
MODEL 3
REMARK VINA RESULT:      -7.2      2.463      6.968
REMARK  Name = 
REMARK  16 active torsions:
REMARK  status: ('A' for Active; 'I' for Inactive)
REMARK    1  A    between atoms: C_3  and  O_49
REMARK    2  A    between atoms: C_6  and  C_7
REMARK    3  A    between atoms: C_8  and  C_9
REMARK    4  A    between atoms: C_9  and  O_11
REMARK    5  A    between atoms: O_11  and  C_12
REMARK    6  A    between atoms: C_14  and  O_48
REMARK    7  A    between atoms: C_16  and  C_46
REMARK    8  A    between atoms: C_19  and  O_24
REMARK    9  A    between atoms: C_21  and  O_23
REMARK   10  A    between atoms: O_24  and  C_25
REMARK   11  A    between atoms: C_26  and  C_38
REMARK   12  A    between atoms: C_30  and  O_37
REMARK   13  A    between atoms: C_32  and  O_36
REMARK   14  A    between atoms: C_40  and  O_45
REMARK   15  A    between atoms: C_41  and  O_44
REMARK   16  A    between atoms: C_46  and  O_47
REMARK                            x       y       z     vdW  Elec       q    Type
REMARK                         _______ _______ _______ _____ _____    ______ ____
ROOT
ATOM      1  C   UNL     1       3.926   1.770  25.955  0.00  0.00    +0.242 C 
ATOM      2  C   UNL     1       4.729   2.138  24.689  0.00  0.00    +0.226 C 
ATOM      3  C   UNL     1       5.711   3.316  24.896  0.00  0.00    +0.341 C 
ATOM      4  O   UNL     1       5.107   4.414  25.612  0.00  0.00    -0.331 OA
ATOM      5  C   UNL     1       4.335   4.131  26.793  0.00  0.00    +0.180 C 
ATOM      6  C   UNL     1       3.284   3.033  26.552  0.00  0.00    +0.189 C 
ENDROOT
BRANCH   6   7
ATOM      7  O   UNL     1       2.258   3.531  25.677  0.00  0.00    -0.385 OA
ATOM      8  H   UNL     1       1.845   2.754  25.243  0.00  0.00    +0.210 HD
ENDBRANCH   6   7
BRANCH   2   9
ATOM      9  O   UNL     1       3.780   2.546  23.671  0.00  0.00    -0.382 OA
ATOM     10  H   UNL     1       4.292   2.808  22.883  0.00  0.00    +0.210 HD
ENDBRANCH   2   9
BRANCH   3  11
ATOM     11  O   UNL     1       6.970   2.995  25.474  0.00  0.00    -0.453 OA
BRANCH  11  12
ATOM     12  C   UNL     1       8.185   3.084  24.819  0.00  0.00    +0.214 A 
ATOM     13  C   UNL     1       8.741   4.495  24.858  0.00  0.00    +0.238 A 
ATOM     14  O   UNL     1       8.069   5.379  25.392  0.00  0.00    -0.283 OA
ATOM     15  C   UNL     1      10.085   4.761  24.317  0.00  0.00    +0.109 A 
ATOM     16  C   UNL     1      10.739   3.694  23.735  0.00  0.00    +0.147 A 
ATOM     17  C   UNL     1      12.059   3.811  23.279  0.00  0.00    +0.092 A 
ATOM     18  C   UNL     1      12.718   5.028  23.389  0.00  0.00    +0.124 A 
ATOM     19  C   UNL     1      12.067   6.123  23.932  0.00  0.00    +0.091 A 
ATOM     20  O   UNL     1      10.142   2.487  23.541  0.00  0.00    -0.451 OA
ATOM     21  C   UNL     1      10.748   5.991  24.380  0.00  0.00    +0.135 A 
ATOM     22  C   UNL     1       8.898   2.170  24.105  0.00  0.00    +0.181 A 
BRANCH  22  23
ATOM     23  C   UNL     1       8.601   0.750  23.711  0.00  0.00    +0.025 A 
ATOM     24  C   UNL     1       9.711  -0.093  23.416  0.00  0.00    +0.015 A 
ATOM     25  C   UNL     1       9.570  -1.404  22.957  0.00  0.00    +0.050 A 
ATOM     26  C   UNL     1       8.302  -1.905  22.769  0.00  0.00    +0.158 A 
ATOM     27  C   UNL     1       7.188  -1.100  23.004  0.00  0.00    +0.159 A 
ATOM     28  C   UNL     1       7.325   0.223  23.457  0.00  0.00    +0.060 A 
BRANCH  27  29
ATOM     29  O   UNL     1       5.966  -1.663  22.747  0.00  0.00    -0.503 OA
ATOM     30  H   UNL     1       5.684  -2.166  23.533  0.00  0.00    +0.292 HD
ENDBRANCH  27  29
BRANCH  26  31
ATOM     31  O   UNL     1       8.164  -3.186  22.322  0.00  0.00    -0.503 OA
ATOM     32  H   UNL     1       7.982  -3.102  21.366  0.00  0.00    +0.292 HD
ENDBRANCH  26  31
ENDBRANCH  22  23
BRANCH  18  33
ATOM     33  O   UNL     1      14.001   5.195  22.961  0.00  0.00    -0.507 OA
ATOM     34  H   UNL     1      14.431   4.330  22.865  0.00  0.00    +0.292 HD
ENDBRANCH  18  33
BRANCH  21  35
ATOM     35  O   UNL     1      10.118   7.101  24.846  0.00  0.00    -0.506 OA
ATOM     36  H   UNL     1      10.040   7.757  24.131  0.00  0.00    +0.292 HD
ENDBRANCH  21  35
ENDBRANCH  11  12
ENDBRANCH   3  11
BRANCH   5  37
ATOM     37  C   UNL     1       5.190   3.911  28.057  0.00  0.00    +0.190 C 
BRANCH  37  38
ATOM     38  O   UNL     1       6.476   4.524  27.935  0.00  0.00    -0.392 OA
ATOM     39  H   UNL     1       6.920   4.497  28.800  0.00  0.00    +0.210 HD
ENDBRANCH  37  38
ENDBRANCH   5  37
BRANCH   1  40
ATOM     40  O   UNL     1       4.718   1.144  26.981  0.00  0.00    -0.453 OA
BRANCH  40  41
ATOM     41  C   UNL     1       4.455  -0.157  27.248  0.00  0.00    +0.332 C 
ATOM     42  O   UNL     1       3.398  -0.604  27.658  0.00  0.00    -0.246 OA
BRANCH  41  44
ATOM     43  C   UNL     1       5.548  -2.207  26.493  0.00  0.00    +0.015 C 
ATOM     44  C   UNL     1       5.664  -0.944  26.929  0.00  0.00    +0.092 C 
BRANCH  43  46
ATOM     45  C   UNL     1       6.490  -4.309  25.460  0.00  0.00    +0.011 A 
ATOM     46  C   UNL     1       6.673  -3.052  26.060  0.00  0.00    -0.025 A 
ATOM     47  C   UNL     1       7.978  -2.641  26.367  0.00  0.00    +0.011 A 
ATOM     48  C   UNL     1       9.071  -3.462  26.078  0.00  0.00    +0.046 A 
ATOM     49  C   UNL     1       8.865  -4.705  25.495  0.00  0.00    +0.117 A 
ATOM     50  C   UNL     1       7.583  -5.136  25.179  0.00  0.00    +0.046 A 
BRANCH  49  51
ATOM     51  O   UNL     1       9.956  -5.489  25.267  0.00  0.00    -0.507 OA
ATOM     52  H   UNL     1      10.520  -5.055  24.605  0.00  0.00    +0.292 HD
ENDBRANCH  49  51
ENDBRANCH  43  46
ENDBRANCH  41  44
ENDBRANCH  40  41
ENDBRANCH   1  40
TORSDOF 16
ENDMDL
MODEL 4
REMARK VINA RESULT:      -7.2      2.288      6.295
REMARK  Name = 
REMARK  16 active torsions:
REMARK  status: ('A' for Active; 'I' for Inactive)
REMARK    1  A    between atoms: C_3  and  O_49
REMARK    2  A    between atoms: C_6  and  C_7
REMARK    3  A    between atoms: C_8  and  C_9
REMARK    4  A    between atoms: C_9  and  O_11
REMARK    5  A    between atoms: O_11  and  C_12
REMARK    6  A    between atoms: C_14  and  O_48
REMARK    7  A    between atoms: C_16  and  C_46
REMARK    8  A    between atoms: C_19  and  O_24
REMARK    9  A    between atoms: C_21  and  O_23
REMARK   10  A    between atoms: O_24  and  C_25
REMARK   11  A    between atoms: C_26  and  C_38
REMARK   12  A    between atoms: C_30  and  O_37
REMARK   13  A    between atoms: C_32  and  O_36
REMARK   14  A    between atoms: C_40  and  O_45
REMARK   15  A    between atoms: C_41  and  O_44
REMARK   16  A    between atoms: C_46  and  O_47
REMARK                            x       y       z     vdW  Elec       q    Type
REMARK                         _______ _______ _______ _____ _____    ______ ____
ROOT
ATOM      1  C   UNL     1       7.846  -0.645  22.848  0.00  0.00    +0.242 C 
ATOM      2  C   UNL     1       7.443  -2.092  23.207  0.00  0.00    +0.226 C 
ATOM      3  C   UNL     1       8.417  -2.781  24.193  0.00  0.00    +0.341 C 
ATOM      4  O   UNL     1       9.799  -2.573  23.835  0.00  0.00    -0.331 OA
ATOM      5  C   UNL     1      10.230  -1.247  23.478  0.00  0.00    +0.180 C 
ATOM      6  C   UNL     1       9.320  -0.606  22.415  0.00  0.00    +0.189 C 
ENDROOT
BRANCH   6   7
ATOM      7  O   UNL     1       9.489  -1.287  21.161  0.00  0.00    -0.385 OA
ATOM      8  H   UNL     1      10.240  -0.859  20.697  0.00  0.00    +0.210 HD
ENDBRANCH   6   7
BRANCH   2   9
ATOM      9  O   UNL     1       7.454  -2.868  21.982  0.00  0.00    -0.382 OA
ATOM     10  H   UNL     1       6.580  -3.290  21.896  0.00  0.00    +0.210 HD
ENDBRANCH   2   9
BRANCH   3  11
ATOM     11  O   UNL     1       8.226  -2.497  25.573  0.00  0.00    -0.453 OA
BRANCH  11  12
ATOM     12  C   UNL     1       7.045  -2.042  26.129  0.00  0.00    +0.214 A 
ATOM     13  C   UNL     1       7.263  -0.803  26.977  0.00  0.00    +0.238 A 
ATOM     14  O   UNL     1       8.413  -0.382  27.119  0.00  0.00    -0.283 OA
ATOM     15  C   UNL     1       6.103  -0.103  27.553  0.00  0.00    +0.109 A 
ATOM     16  C   UNL     1       4.865  -0.674  27.334  0.00  0.00    +0.147 A 
ATOM     17  C   UNL     1       3.688  -0.040  27.751  0.00  0.00    +0.092 A 
ATOM     18  C   UNL     1       3.761   1.174  28.420  0.00  0.00    +0.124 A 
ATOM     19  C   UNL     1       4.994   1.745  28.687  0.00  0.00    +0.091 A 
ATOM     20  O   UNL     1       4.714  -1.886  26.735  0.00  0.00    -0.451 OA
ATOM     21  C   UNL     1       6.162   1.098  28.267  0.00  0.00    +0.135 A 
ATOM     22  C   UNL     1       5.779  -2.548  26.109  0.00  0.00    +0.181 A 
BRANCH  22  23
ATOM     23  C   UNL     1       5.214  -3.815  25.530  0.00  0.00    +0.025 A 
ATOM     24  C   UNL     1       5.714  -5.047  26.044  0.00  0.00    +0.015 A 
ATOM     25  C   UNL     1       5.336  -6.291  25.535  0.00  0.00    +0.050 A 
ATOM     26  C   UNL     1       4.451  -6.334  24.483  0.00  0.00    +0.158 A 
ATOM     27  C   UNL     1       3.971  -5.151  23.922  0.00  0.00    +0.159 A 
ATOM     28  C   UNL     1       4.355  -3.896  24.424  0.00  0.00    +0.060 A 
BRANCH  27  29
ATOM     29  O   UNL     1       3.131  -5.285  22.848  0.00  0.00    -0.503 OA
ATOM     30  H   UNL     1       2.215  -5.144  23.152  0.00  0.00    +0.292 HD
ENDBRANCH  27  29
BRANCH  26  31
ATOM     31  O   UNL     1       4.081  -7.549  23.987  0.00  0.00    -0.503 OA
ATOM     32  H   UNL     1       3.232  -7.390  23.532  0.00  0.00    +0.292 HD
ENDBRANCH  26  31
ENDBRANCH  22  23
BRANCH  18  33
ATOM     33  O   UNL     1       2.647   1.832  28.848  0.00  0.00    -0.507 OA
ATOM     34  H   UNL     1       2.393   2.505  28.196  0.00  0.00    +0.292 HD
ENDBRANCH  18  33
BRANCH  21  35
ATOM     35  O   UNL     1       7.355   1.653  28.604  0.00  0.00    -0.506 OA
ATOM     36  H   UNL     1       7.420   2.547  28.226  0.00  0.00    +0.292 HD
ENDBRANCH  21  35
ENDBRANCH  11  12
ENDBRANCH   3  11
BRANCH   5  37
ATOM     37  C   UNL     1      10.513  -0.336  24.690  0.00  0.00    +0.190 C 
BRANCH  37  38
ATOM     38  O   UNL     1      11.349   0.768  24.332  0.00  0.00    -0.392 OA
ATOM     39  H   UNL     1      11.094   1.079  23.446  0.00  0.00    +0.210 HD
ENDBRANCH  37  38
ENDBRANCH   5  37
BRANCH   1  40
ATOM     40  O   UNL     1       7.673   0.288  23.930  0.00  0.00    -0.453 OA
BRANCH  40  41
ATOM     41  C   UNL     1       7.176   1.508  23.612  0.00  0.00    +0.332 C 
ATOM     42  O   UNL     1       6.101   1.725  23.079  0.00  0.00    -0.246 OA
BRANCH  41  44
ATOM     43  C   UNL     1       9.072   2.987  23.185  0.00  0.00    +0.015 C 
ATOM     44  C   UNL     1       8.151   2.528  24.046  0.00  0.00    +0.092 C 
BRANCH  43  46
ATOM     45  C   UNL     1      11.395   3.973  23.156  0.00  0.00    +0.011 A 
ATOM     46  C   UNL     1      10.031   4.064  23.478  0.00  0.00    -0.025 A 
ATOM     47  C   UNL     1       9.591   5.173  24.215  0.00  0.00    +0.011 A 
ATOM     48  C   UNL     1      10.489   6.165  24.616  0.00  0.00    +0.046 A 
ATOM     49  C   UNL     1      11.835   6.049  24.294  0.00  0.00    +0.117 A 
ATOM     50  C   UNL     1      12.297   4.962  23.563  0.00  0.00    +0.046 A 
BRANCH  49  51
ATOM     51  O   UNL     1      12.681   7.020  24.738  0.00  0.00    -0.507 OA
ATOM     52  H   UNL     1      13.288   6.631  25.390  0.00  0.00    +0.292 HD
ENDBRANCH  49  51
ENDBRANCH  43  46
ENDBRANCH  41  44
ENDBRANCH  40  41
ENDBRANCH   1  40
TORSDOF 16
ENDMDL
MODEL 5
REMARK VINA RESULT:      -6.8      2.295      6.831
REMARK  Name = 
REMARK  16 active torsions:
REMARK  status: ('A' for Active; 'I' for Inactive)
REMARK    1  A    between atoms: C_3  and  O_49
REMARK    2  A    between atoms: C_6  and  C_7
REMARK    3  A    between atoms: C_8  and  C_9
REMARK    4  A    between atoms: C_9  and  O_11
REMARK    5  A    between atoms: O_11  and  C_12
REMARK    6  A    between atoms: C_14  and  O_48
REMARK    7  A    between atoms: C_16  and  C_46
REMARK    8  A    between atoms: C_19  and  O_24
REMARK    9  A    between atoms: C_21  and  O_23
REMARK   10  A    between atoms: O_24  and  C_25
REMARK   11  A    between atoms: C_26  and  C_38
REMARK   12  A    between atoms: C_30  and  O_37
REMARK   13  A    between atoms: C_32  and  O_36
REMARK   14  A    between atoms: C_40  and  O_45
REMARK   15  A    between atoms: C_41  and  O_44
REMARK   16  A    between atoms: C_46  and  O_47
REMARK                            x       y       z     vdW  Elec       q    Type
REMARK                         _______ _______ _______ _____ _____    ______ ____
ROOT
ATOM      1  C   UNL     1       4.626   1.201  27.930  0.00  0.00    +0.242 C 
ATOM      2  C   UNL     1       5.296   1.773  26.662  0.00  0.00    +0.226 C 
ATOM      3  C   UNL     1       6.812   2.037  26.826  0.00  0.00    +0.341 C 
ATOM      4  O   UNL     1       7.122   2.704  28.068  0.00  0.00    -0.331 OA
ATOM      5  C   UNL     1       6.516   2.223  29.281  0.00  0.00    +0.180 C 
ATOM      6  C   UNL     1       4.991   2.065  29.148  0.00  0.00    +0.189 C 
ENDROOT
BRANCH   6   7
ATOM      7  O   UNL     1       4.379   3.361  29.040  0.00  0.00    -0.385 OA
ATOM      8  H   UNL     1       5.094   4.005  28.853  0.00  0.00    +0.210 HD
ENDBRANCH   6   7
BRANCH   2   9
ATOM      9  O   UNL     1       4.669   3.047  26.370  0.00  0.00    -0.382 OA
ATOM     10  H   UNL     1       3.705   2.925  26.457  0.00  0.00    +0.210 HD
ENDBRANCH   2   9
BRANCH   3  11
ATOM     11  O   UNL     1       7.672   0.919  26.649  0.00  0.00    -0.453 OA
BRANCH  11  12
ATOM     12  C   UNL     1       7.668   0.087  25.545  0.00  0.00    +0.214 A 
ATOM     13  C   UNL     1       7.992  -1.347  25.920  0.00  0.00    +0.238 A 
ATOM     14  O   UNL     1       8.262  -1.601  27.096  0.00  0.00    -0.283 OA
ATOM     15  C   UNL     1       7.915  -2.401  24.895  0.00  0.00    +0.109 A 
ATOM     16  C   UNL     1       7.611  -1.995  23.611  0.00  0.00    +0.147 A 
ATOM     17  C   UNL     1       7.416  -2.924  22.581  0.00  0.00    +0.092 A 
ATOM     18  C   UNL     1       7.553  -4.280  22.845  0.00  0.00    +0.124 A 
ATOM     19  C   UNL     1       7.898  -4.709  24.115  0.00  0.00    +0.091 A 
ATOM     20  O   UNL     1       7.514  -0.684  23.263  0.00  0.00    -0.451 OA
ATOM     21  C   UNL     1       8.093  -3.768  25.133  0.00  0.00    +0.135 A 
ATOM     22  C   UNL     1       7.506   0.344  24.217  0.00  0.00    +0.181 A 
BRANCH  22  23
ATOM     23  C   UNL     1       7.337   1.630  23.457  0.00  0.00    +0.025 A 
ATOM     24  C   UNL     1       8.477   2.478  23.346  0.00  0.00    +0.015 A 
ATOM     25  C   UNL     1       8.433   3.736  22.741  0.00  0.00    +0.050 A 
ATOM     26  C   UNL     1       7.233   4.186  22.239  0.00  0.00    +0.158 A 
ATOM     27  C   UNL     1       6.083   3.407  22.366  0.00  0.00    +0.159 A 
ATOM     28  C   UNL     1       6.120   2.144  22.981  0.00  0.00    +0.060 A 
BRANCH  27  29
ATOM     29  O   UNL     1       4.924   3.952  21.881  0.00  0.00    -0.503 OA
ATOM     30  H   UNL     1       5.127   4.426  21.053  0.00  0.00    +0.292 HD
ENDBRANCH  27  29
BRANCH  26  31
ATOM     31  O   UNL     1       7.190   5.414  21.649  0.00  0.00    -0.503 OA
ATOM     32  H   UNL     1       6.310   5.463  21.229  0.00  0.00    +0.292 HD
ENDBRANCH  26  31
ENDBRANCH  22  23
BRANCH  18  33
ATOM     33  O   UNL     1       7.375  -5.225  21.879  0.00  0.00    -0.507 OA
ATOM     34  H   UNL     1       7.019  -6.037  22.276  0.00  0.00    +0.292 HD
ENDBRANCH  18  33
BRANCH  21  35
ATOM     35  O   UNL     1       8.496  -4.219  26.350  0.00  0.00    -0.506 OA
ATOM     36  H   UNL     1       8.651  -3.464  26.944  0.00  0.00    +0.292 HD
ENDBRANCH  21  35
ENDBRANCH  11  12
ENDBRANCH   3  11
BRANCH   5  37
ATOM     37  C   UNL     1       7.221   0.992  29.885  0.00  0.00    +0.190 C 
BRANCH  37  38
ATOM     38  O   UNL     1       8.464   0.726  29.230  0.00  0.00    -0.392 OA
ATOM     39  H   UNL     1       8.328   0.775  28.267  0.00  0.00    +0.210 HD
ENDBRANCH  37  38
ENDBRANCH   5  37
BRANCH   1  40
ATOM     40  O   UNL     1       5.000  -0.159  28.219  0.00  0.00    -0.453 OA
BRANCH  40  41
ATOM     41  C   UNL     1       3.999  -1.012  28.543  0.00  0.00    +0.332 C 
ATOM     42  O   UNL     1       3.285  -0.936  29.527  0.00  0.00    -0.246 OA
BRANCH  41  44
ATOM     43  C   UNL     1       4.864  -2.968  27.363  0.00  0.00    +0.015 C 
ATOM     44  C   UNL     1       3.908  -2.035  27.481  0.00  0.00    +0.092 C 
BRANCH  43  46
ATOM     45  C   UNL     1       4.325  -3.954  25.103  0.00  0.00    +0.011 A 
ATOM     46  C   UNL     1       4.832  -4.086  26.406  0.00  0.00    -0.025 A 
ATOM     47  C   UNL     1       5.211  -5.360  26.850  0.00  0.00    +0.011 A 
ATOM     48  C   UNL     1       5.090  -6.473  26.014  0.00  0.00    +0.046 A 
ATOM     49  C   UNL     1       4.576  -6.320  24.733  0.00  0.00    +0.117 A 
ATOM     50  C   UNL     1       4.195  -5.069  24.267  0.00  0.00    +0.046 A 
BRANCH  49  51
ATOM     51  O   UNL     1       4.439  -7.438  23.966  0.00  0.00    -0.507 OA
ATOM     52  H   UNL     1       4.422  -7.175  23.030  0.00  0.00    +0.292 HD
ENDBRANCH  49  51
ENDBRANCH  43  46
ENDBRANCH  41  44
ENDBRANCH  40  41
ENDBRANCH   1  40
TORSDOF 16
ENDMDL
MODEL 6
REMARK VINA RESULT:      -6.8      3.129      6.449
REMARK  Name = 
REMARK  16 active torsions:
REMARK  status: ('A' for Active; 'I' for Inactive)
REMARK    1  A    between atoms: C_3  and  O_49
REMARK    2  A    between atoms: C_6  and  C_7
REMARK    3  A    between atoms: C_8  and  C_9
REMARK    4  A    between atoms: C_9  and  O_11
REMARK    5  A    between atoms: O_11  and  C_12
REMARK    6  A    between atoms: C_14  and  O_48
REMARK    7  A    between atoms: C_16  and  C_46
REMARK    8  A    between atoms: C_19  and  O_24
REMARK    9  A    between atoms: C_21  and  O_23
REMARK   10  A    between atoms: O_24  and  C_25
REMARK   11  A    between atoms: C_26  and  C_38
REMARK   12  A    between atoms: C_30  and  O_37
REMARK   13  A    between atoms: C_32  and  O_36
REMARK   14  A    between atoms: C_40  and  O_45
REMARK   15  A    between atoms: C_41  and  O_44
REMARK   16  A    between atoms: C_46  and  O_47
REMARK                            x       y       z     vdW  Elec       q    Type
REMARK                         _______ _______ _______ _____ _____    ______ ____
ROOT
ATOM      1  C   UNL     1       7.975  -1.189  24.289  0.00  0.00    +0.242 C 
ATOM      2  C   UNL     1       8.111   0.163  25.020  0.00  0.00    +0.226 C 
ATOM      3  C   UNL     1       9.040   1.169  24.299  0.00  0.00    +0.341 C 
ATOM      4  O   UNL     1      10.268   0.557  23.852  0.00  0.00    -0.331 OA
ATOM      5  C   UNL     1      10.205  -0.711  23.176  0.00  0.00    +0.180 C 
ATOM      6  C   UNL     1       9.368  -1.744  23.952  0.00  0.00    +0.189 C 
ENDROOT
BRANCH   6   7
ATOM      7  O   UNL     1      10.059  -2.119  25.155  0.00  0.00    -0.385 OA
ATOM      8  H   UNL     1       9.385  -2.453  25.785  0.00  0.00    +0.210 HD
ENDBRANCH   6   7
BRANCH   2   9
ATOM      9  O   UNL     1       8.692  -0.098  26.323  0.00  0.00    -0.382 OA
ATOM     10  H   UNL     1       8.290   0.528  26.953  0.00  0.00    +0.210 HD
ENDBRANCH   2   9
BRANCH   3  11
ATOM     11  O   UNL     1       8.459   1.919  23.239  0.00  0.00    -0.453 OA
BRANCH  11  12
ATOM     12  C   UNL     1       7.721   3.076  23.404  0.00  0.00    +0.214 A 
ATOM     13  C   UNL     1       6.277   2.886  22.979  0.00  0.00    +0.238 A 
ATOM     14  O   UNL     1       5.940   1.798  22.508  0.00  0.00    -0.283 OA
ATOM     15  C   UNL     1       5.307   3.973  23.196  0.00  0.00    +0.109 A 
ATOM     16  C   UNL     1       5.803   5.149  23.723  0.00  0.00    +0.147 A 
ATOM     17  C   UNL     1       4.954   6.210  24.061  0.00  0.00    +0.092 A 
ATOM     18  C   UNL     1       3.588   6.093  23.840  0.00  0.00    +0.124 A 
ATOM     19  C   UNL     1       3.072   4.939  23.275  0.00  0.00    +0.091 A 
ATOM     20  O   UNL     1       7.133   5.360  23.916  0.00  0.00    -0.451 OA
ATOM     21  C   UNL     1       3.935   3.889  22.939  0.00  0.00    +0.135 A 
ATOM     22  C   UNL     1       8.078   4.332  23.795  0.00  0.00    +0.181 A 
BRANCH  22  23
ATOM     23  C   UNL     1       9.414   4.938  24.127  0.00  0.00    +0.025 A 
ATOM     24  C   UNL     1       9.422   6.051  25.016  0.00  0.00    +0.015 A 
ATOM     25  C   UNL     1      10.583   6.757  25.339  0.00  0.00    +0.050 A 
ATOM     26  C   UNL     1      11.773   6.370  24.765  0.00  0.00    +0.158 A 
ATOM     27  C   UNL     1      11.802   5.312  23.857  0.00  0.00    +0.159 A 
ATOM     28  C   UNL     1      10.635   4.604  23.522  0.00  0.00    +0.060 A 
BRANCH  27  29
ATOM     29  O   UNL     1      13.019   5.024  23.299  0.00  0.00    -0.503 OA
ATOM     30  H   UNL     1      12.893   4.861  22.346  0.00  0.00    +0.292 HD
ENDBRANCH  27  29
BRANCH  26  31
ATOM     31  O   UNL     1      12.907   7.058  25.081  0.00  0.00    -0.503 OA
ATOM     32  H   UNL     1      13.459   6.423  25.575  0.00  0.00    +0.292 HD
ENDBRANCH  26  31
ENDBRANCH  22  23
BRANCH  18  33
ATOM     33  O   UNL     1       2.718   7.095  24.150  0.00  0.00    -0.507 OA
ATOM     34  H   UNL     1       3.191   7.813  24.602  0.00  0.00    +0.292 HD
ENDBRANCH  18  33
BRANCH  21  35
ATOM     35  O   UNL     1       3.405   2.799  22.325  0.00  0.00    -0.506 OA
ATOM     36  H   UNL     1       4.079   2.380  21.763  0.00  0.00    +0.292 HD
ENDBRANCH  21  35
ENDBRANCH  11  12
ENDBRANCH   3  11
BRANCH   5  37
ATOM     37  C   UNL     1       9.835  -0.604  21.682  0.00  0.00    +0.190 C 
BRANCH  37  38
ATOM     38  O   UNL     1       9.392  -1.859  21.160  0.00  0.00    -0.392 OA
ATOM     39  H   UNL     1       9.722  -1.953  20.249  0.00  0.00    +0.210 HD
ENDBRANCH  37  38
ENDBRANCH   5  37
BRANCH   1  40
ATOM     40  O   UNL     1       7.217  -1.113  23.068  0.00  0.00    -0.453 OA
BRANCH  40  41
ATOM     41  C   UNL     1       6.513  -2.215  22.714  0.00  0.00    +0.332 C 
ATOM     42  O   UNL     1       6.303  -2.595  21.575  0.00  0.00    -0.246 OA
BRANCH  41  44
ATOM     43  C   UNL     1       6.251  -4.212  24.096  0.00  0.00    +0.015 C 
ATOM     44  C   UNL     1       6.069  -2.891  23.950  0.00  0.00    +0.092 C 
BRANCH  43  46
ATOM     45  C   UNL     1       6.691  -4.869  26.493  0.00  0.00    +0.011 A 
ATOM     46  C   UNL     1       5.934  -4.973  25.314  0.00  0.00    -0.025 A 
ATOM     47  C   UNL     1       4.909  -5.930  25.261  0.00  0.00    +0.011 A 
ATOM     48  C   UNL     1       4.647  -6.756  26.357  0.00  0.00    +0.046 A 
ATOM     49  C   UNL     1       5.416  -6.641  27.508  0.00  0.00    +0.117 A 
ATOM     50  C   UNL     1       6.435  -5.702  27.588  0.00  0.00    +0.046 A 
BRANCH  49  51
ATOM     51  O   UNL     1       5.150  -7.493  28.537  0.00  0.00    -0.507 OA
ATOM     52  H   UNL     1       5.453  -7.086  29.365  0.00  0.00    +0.292 HD
ENDBRANCH  49  51
ENDBRANCH  43  46
ENDBRANCH  41  44
ENDBRANCH  40  41
ENDBRANCH   1  40
TORSDOF 16
ENDMDL
MODEL 7
REMARK VINA RESULT:      -6.8      2.573      6.105
REMARK  Name = 
REMARK  16 active torsions:
REMARK  status: ('A' for Active; 'I' for Inactive)
REMARK    1  A    between atoms: C_3  and  O_49
REMARK    2  A    between atoms: C_6  and  C_7
REMARK    3  A    between atoms: C_8  and  C_9
REMARK    4  A    between atoms: C_9  and  O_11
REMARK    5  A    between atoms: O_11  and  C_12
REMARK    6  A    between atoms: C_14  and  O_48
REMARK    7  A    between atoms: C_16  and  C_46
REMARK    8  A    between atoms: C_19  and  O_24
REMARK    9  A    between atoms: C_21  and  O_23
REMARK   10  A    between atoms: O_24  and  C_25
REMARK   11  A    between atoms: C_26  and  C_38
REMARK   12  A    between atoms: C_30  and  O_37
REMARK   13  A    between atoms: C_32  and  O_36
REMARK   14  A    between atoms: C_40  and  O_45
REMARK   15  A    between atoms: C_41  and  O_44
REMARK   16  A    between atoms: C_46  and  O_47
REMARK                            x       y       z     vdW  Elec       q    Type
REMARK                         _______ _______ _______ _____ _____    ______ ____
ROOT
ATOM      1  C   UNL     1       7.861  -3.123  22.954  0.00  0.00    +0.242 C 
ATOM      2  C   UNL     1       6.483  -2.628  23.443  0.00  0.00    +0.226 C 
ATOM      3  C   UNL     1       6.003  -3.313  24.745  0.00  0.00    +0.341 C 
ATOM      4  O   UNL     1       6.197  -4.743  24.717  0.00  0.00    -0.331 OA
ATOM      5  C   UNL     1       7.458  -5.262  24.258  0.00  0.00    +0.180 C 
ATOM      6  C   UNL     1       7.879  -4.659  22.906  0.00  0.00    +0.189 C 
ENDROOT
BRANCH   6   7
ATOM      7  O   UNL     1       7.003  -5.134  21.871  0.00  0.00    -0.385 OA
ATOM      8  H   UNL     1       6.716  -6.037  22.126  0.00  0.00    +0.210 HD
ENDBRANCH   6   7
BRANCH   2   9
ATOM      9  O   UNL     1       5.513  -2.943  22.412  0.00  0.00    -0.382 OA
ATOM     10  H   UNL     1       6.003  -3.080  21.581  0.00  0.00    +0.210 HD
ENDBRANCH   2   9
BRANCH   3  11
ATOM     11  O   UNL     1       6.509  -2.780  25.963  0.00  0.00    -0.453 OA
BRANCH  11  12
ATOM     12  C   UNL     1       5.734  -2.211  26.957  0.00  0.00    +0.214 A 
ATOM     13  C   UNL     1       5.985  -0.720  27.079  0.00  0.00    +0.238 A 
ATOM     14  O   UNL     1       6.843  -0.206  26.358  0.00  0.00    -0.283 OA
ATOM     15  C   UNL     1       5.164   0.082  28.002  0.00  0.00    +0.109 A 
ATOM     16  C   UNL     1       4.241  -0.605  28.764  0.00  0.00    +0.147 A 
ATOM     17  C   UNL     1       3.341   0.069  29.600  0.00  0.00    +0.092 A 
ATOM     18  C   UNL     1       3.390   1.453  29.687  0.00  0.00    +0.124 A 
ATOM     19  C   UNL     1       4.335   2.161  28.963  0.00  0.00    +0.091 A 
ATOM     20  O   UNL     1       4.168  -1.964  28.776  0.00  0.00    -0.451 OA
ATOM     21  C   UNL     1       5.229   1.473  28.135  0.00  0.00    +0.135 A 
ATOM     22  C   UNL     1       4.875  -2.757  27.862  0.00  0.00    +0.181 A 
BRANCH  22  23
ATOM     23  C   UNL     1       4.502  -4.184  28.157  0.00  0.00    +0.025 A 
ATOM     24  C   UNL     1       3.177  -4.430  28.620  0.00  0.00    +0.015 A 
ATOM     25  C   UNL     1       2.731  -5.695  29.010  0.00  0.00    +0.050 A 
ATOM     26  C   UNL     1       3.611  -6.751  28.957  0.00  0.00    +0.158 A 
ATOM     27  C   UNL     1       4.930  -6.546  28.551  0.00  0.00    +0.159 A 
ATOM     28  C   UNL     1       5.386  -5.274  28.167  0.00  0.00    +0.060 A 
BRANCH  27  29
ATOM     29  O   UNL     1       5.749  -7.643  28.573  0.00  0.00    -0.503 OA
ATOM     30  H   UNL     1       6.675  -7.340  28.529  0.00  0.00    +0.292 HD
ENDBRANCH  27  29
BRANCH  26  31
ATOM     31  O   UNL     1       3.175  -7.986  29.337  0.00  0.00    -0.503 OA
ATOM     32  H   UNL     1       3.695  -8.615  28.800  0.00  0.00    +0.292 HD
ENDBRANCH  26  31
ENDBRANCH  22  23
BRANCH  18  33
ATOM     33  O   UNL     1       2.539   2.157  30.485  0.00  0.00    -0.507 OA
ATOM     34  H   UNL     1       2.775   2.022  31.417  0.00  0.00    +0.292 HD
ENDBRANCH  18  33
BRANCH  21  35
ATOM     35  O   UNL     1       6.185   2.192  27.491  0.00  0.00    -0.506 OA
ATOM     36  H   UNL     1       6.217   3.094  27.854  0.00  0.00    +0.292 HD
ENDBRANCH  21  35
ENDBRANCH  11  12
ENDBRANCH   3  11
BRANCH   5  37
ATOM     37  C   UNL     1       8.569  -5.237  25.327  0.00  0.00    +0.190 C 
BRANCH  37  38
ATOM     38  O   UNL     1       9.854  -5.491  24.754  0.00  0.00    -0.392 OA
ATOM     39  H   UNL     1      10.149  -6.377  25.027  0.00  0.00    +0.210 HD
ENDBRANCH  37  38
ENDBRANCH   5  37
BRANCH   1  40
ATOM     40  O   UNL     1       8.957  -2.689  23.781  0.00  0.00    -0.453 OA
BRANCH  40  41
ATOM     41  C   UNL     1       9.850  -1.840  23.217  0.00  0.00    +0.332 C 
ATOM     42  O   UNL     1      10.851  -2.161  22.601  0.00  0.00    -0.246 OA
BRANCH  41  44
ATOM     43  C   UNL     1      10.231   0.462  23.938  0.00  0.00    +0.015 C 
ATOM     44  C   UNL     1       9.383  -0.459  23.455  0.00  0.00    +0.092 C 
BRANCH  43  46
ATOM     45  C   UNL     1       8.713   2.314  24.736  0.00  0.00    +0.011 A 
ATOM     46  C   UNL     1       9.904   1.884  24.128  0.00  0.00    -0.025 A 
ATOM     47  C   UNL     1      10.757   2.849  23.574  0.00  0.00    +0.011 A 
ATOM     48  C   UNL     1      10.431   4.207  23.629  0.00  0.00    +0.046 A 
ATOM     49  C   UNL     1       9.243   4.607  24.226  0.00  0.00    +0.117 A 
ATOM     50  C   UNL     1       8.380   3.673  24.784  0.00  0.00    +0.046 A 
BRANCH  49  51
ATOM     51  O   UNL     1       8.947   5.937  24.222  0.00  0.00    -0.507 OA
ATOM     52  H   UNL     1       9.510   6.384  24.876  0.00  0.00    +0.292 HD
ENDBRANCH  49  51
ENDBRANCH  43  46
ENDBRANCH  41  44
ENDBRANCH  40  41
ENDBRANCH   1  40
TORSDOF 16
ENDMDL
MODEL 8
REMARK VINA RESULT:      -6.7      2.142      5.126
REMARK  Name = 
REMARK  16 active torsions:
REMARK  status: ('A' for Active; 'I' for Inactive)
REMARK    1  A    between atoms: C_3  and  O_49
REMARK    2  A    between atoms: C_6  and  C_7
REMARK    3  A    between atoms: C_8  and  C_9
REMARK    4  A    between atoms: C_9  and  O_11
REMARK    5  A    between atoms: O_11  and  C_12
REMARK    6  A    between atoms: C_14  and  O_48
REMARK    7  A    between atoms: C_16  and  C_46
REMARK    8  A    between atoms: C_19  and  O_24
REMARK    9  A    between atoms: C_21  and  O_23
REMARK   10  A    between atoms: O_24  and  C_25
REMARK   11  A    between atoms: C_26  and  C_38
REMARK   12  A    between atoms: C_30  and  O_37
REMARK   13  A    between atoms: C_32  and  O_36
REMARK   14  A    between atoms: C_40  and  O_45
REMARK   15  A    between atoms: C_41  and  O_44
REMARK   16  A    between atoms: C_46  and  O_47
REMARK                            x       y       z     vdW  Elec       q    Type
REMARK                         _______ _______ _______ _____ _____    ______ ____
ROOT
ATOM      1  C   UNL     1       9.762  -2.144  23.788  0.00  0.00    +0.242 C 
ATOM      2  C   UNL     1       9.924  -0.724  24.370  0.00  0.00    +0.226 C 
ATOM      3  C   UNL     1       8.631   0.124  24.308  0.00  0.00    +0.341 C 
ATOM      4  O   UNL     1       7.974   0.029  23.027  0.00  0.00    -0.331 OA
ATOM      5  C   UNL     1       7.807  -1.269  22.428  0.00  0.00    +0.180 C 
ATOM      6  C   UNL     1       9.122  -2.068  22.393  0.00  0.00    +0.189 C 
ENDROOT
BRANCH   6   7
ATOM      7  O   UNL     1      10.031  -1.460  21.460  0.00  0.00    -0.385 OA
ATOM      8  H   UNL     1      10.572  -0.814  21.962  0.00  0.00    +0.210 HD
ENDBRANCH   6   7
BRANCH   2   9
ATOM      9  O   UNL     1      10.925  -0.036  23.579  0.00  0.00    -0.382 OA
ATOM     10  H   UNL     1      10.664  -0.117  22.643  0.00  0.00    +0.210 HD
ENDBRANCH   2   9
BRANCH   3  11
ATOM     11  O   UNL     1       7.687  -0.084  25.352  0.00  0.00    -0.453 OA
BRANCH  11  12
ATOM     12  C   UNL     1       6.584   0.715  25.588  0.00  0.00    +0.214 A 
ATOM     13  C   UNL     1       5.437  -0.075  26.190  0.00  0.00    +0.238 A 
ATOM     14  O   UNL     1       5.578  -1.289  26.350  0.00  0.00    -0.283 OA
ATOM     15  C   UNL     1       4.218   0.629  26.623  0.00  0.00    +0.109 A 
ATOM     16  C   UNL     1       4.171   1.988  26.385  0.00  0.00    +0.147 A 
ATOM     17  C   UNL     1       3.104   2.770  26.844  0.00  0.00    +0.092 A 
ATOM     18  C   UNL     1       2.058   2.170  27.531  0.00  0.00    +0.124 A 
ATOM     19  C   UNL     1       2.064   0.802  27.746  0.00  0.00    +0.091 A 
ATOM     20  O   UNL     1       5.129   2.639  25.672  0.00  0.00    -0.451 OA
ATOM     21  C   UNL     1       3.135   0.033  27.279  0.00  0.00    +0.135 A 
ATOM     22  C   UNL     1       6.336   2.025  25.308  0.00  0.00    +0.181 A 
BRANCH  22  23
ATOM     23  C   UNL     1       7.143   3.067  24.583  0.00  0.00    +0.025 A 
ATOM     24  C   UNL     1       8.240   3.646  25.283  0.00  0.00    +0.015 A 
ATOM     25  C   UNL     1       9.016   4.681  24.758  0.00  0.00    +0.050 A 
ATOM     26  C   UNL     1       8.702   5.175  23.512  0.00  0.00    +0.158 A 
ATOM     27  C   UNL     1       7.609   4.666  22.811  0.00  0.00    +0.159 A 
ATOM     28  C   UNL     1       6.821   3.630  23.339  0.00  0.00    +0.060 A 
BRANCH  27  29
ATOM     29  O   UNL     1       7.341   5.246  21.600  0.00  0.00    -0.503 OA
ATOM     30  H   UNL     1       8.081   5.056  20.994  0.00  0.00    +0.292 HD
ENDBRANCH  27  29
BRANCH  26  31
ATOM     31  O   UNL     1       9.460   6.185  22.998  0.00  0.00    -0.503 OA
ATOM     32  H   UNL     1       9.182   6.262  22.065  0.00  0.00    +0.292 HD
ENDBRANCH  26  31
ENDBRANCH  22  23
BRANCH  18  33
ATOM     33  O   UNL     1       0.996   2.884  27.999  0.00  0.00    -0.507 OA
ATOM     34  H   UNL     1       0.737   3.554  27.345  0.00  0.00    +0.292 HD
ENDBRANCH  18  33
BRANCH  21  35
ATOM     35  O   UNL     1       3.077  -1.314  27.448  0.00  0.00    -0.506 OA
ATOM     36  H   UNL     1       3.976  -1.685  27.440  0.00  0.00    +0.292 HD
ENDBRANCH  21  35
ENDBRANCH  11  12
ENDBRANCH   3  11
BRANCH   5  37
ATOM     37  C   UNL     1       6.608  -2.063  22.986  0.00  0.00    +0.190 C 
BRANCH  37  38
ATOM     38  O   UNL     1       6.560  -3.387  22.448  0.00  0.00    -0.392 OA
ATOM     39  H   UNL     1       7.455  -3.769  22.475  0.00  0.00    +0.210 HD
ENDBRANCH  37  38
ENDBRANCH   5  37
BRANCH   1  40
ATOM     40  O   UNL     1       8.956  -3.015  24.603  0.00  0.00    -0.453 OA
BRANCH  40  41
ATOM     41  C   UNL     1       9.394  -4.288  24.756  0.00  0.00    +0.332 C 
ATOM     42  O   UNL     1      10.559  -4.640  24.830  0.00  0.00    -0.246 OA
BRANCH  41  44
ATOM     43  C   UNL     1       7.178  -4.832  25.628  0.00  0.00    +0.015 C 
ATOM     44  C   UNL     1       8.214  -5.171  24.845  0.00  0.00    +0.092 C 
BRANCH  43  46
ATOM     45  C   UNL     1       5.362  -5.981  26.951  0.00  0.00    +0.011 A 
ATOM     46  C   UNL     1       5.917  -5.585  25.724  0.00  0.00    -0.025 A 
ATOM     47  C   UNL     1       5.308  -6.028  24.541  0.00  0.00    +0.011 A 
ATOM     48  C   UNL     1       4.173  -6.842  24.584  0.00  0.00    +0.046 A 
ATOM     49  C   UNL     1       3.648  -7.229  25.810  0.00  0.00    +0.117 A 
ATOM     50  C   UNL     1       4.231  -6.803  26.997  0.00  0.00    +0.046 A 
BRANCH  49  51
ATOM     51  O   UNL     1       2.565  -8.055  25.805  0.00  0.00    -0.507 OA
ATOM     52  H   UNL     1       1.854  -7.635  25.292  0.00  0.00    +0.292 HD
ENDBRANCH  49  51
ENDBRANCH  43  46
ENDBRANCH  41  44
ENDBRANCH  40  41
ENDBRANCH   1  40
TORSDOF 16
ENDMDL
MODEL 9
REMARK VINA RESULT:      -6.7      2.836      5.881
REMARK  Name = 
REMARK  16 active torsions:
REMARK  status: ('A' for Active; 'I' for Inactive)
REMARK    1  A    between atoms: C_3  and  O_49
REMARK    2  A    between atoms: C_6  and  C_7
REMARK    3  A    between atoms: C_8  and  C_9
REMARK    4  A    between atoms: C_9  and  O_11
REMARK    5  A    between atoms: O_11  and  C_12
REMARK    6  A    between atoms: C_14  and  O_48
REMARK    7  A    between atoms: C_16  and  C_46
REMARK    8  A    between atoms: C_19  and  O_24
REMARK    9  A    between atoms: C_21  and  O_23
REMARK   10  A    between atoms: O_24  and  C_25
REMARK   11  A    between atoms: C_26  and  C_38
REMARK   12  A    between atoms: C_30  and  O_37
REMARK   13  A    between atoms: C_32  and  O_36
REMARK   14  A    between atoms: C_40  and  O_45
REMARK   15  A    between atoms: C_41  and  O_44
REMARK   16  A    between atoms: C_46  and  O_47
REMARK                            x       y       z     vdW  Elec       q    Type
REMARK                         _______ _______ _______ _____ _____    ______ ____
ROOT
ATOM      1  C   UNL     1       7.910  -1.728  23.940  0.00  0.00    +0.242 C 
ATOM      2  C   UNL     1       8.111  -0.611  24.987  0.00  0.00    +0.226 C 
ATOM      3  C   UNL     1       8.738   0.679  24.407  0.00  0.00    +0.341 C 
ATOM      4  O   UNL     1       9.860   0.403  23.543  0.00  0.00    -0.331 OA
ATOM      5  C   UNL     1       9.736  -0.636  22.556  0.00  0.00    +0.180 C 
ATOM      6  C   UNL     1       9.215  -1.953  23.159  0.00  0.00    +0.189 C 
ENDROOT
BRANCH   6   7
ATOM      7  O   UNL     1      10.218  -2.520  24.018  0.00  0.00    -0.385 OA
ATOM      8  H   UNL     1       9.894  -2.431  24.939  0.00  0.00    +0.210 HD
ENDBRANCH   6   7
BRANCH   2   9
ATOM      9  O   UNL     1       9.024  -1.114  25.996  0.00  0.00    -0.382 OA
ATOM     10  H   UNL     1       9.097  -0.433  26.690  0.00  0.00    +0.210 HD
ENDBRANCH   2   9
BRANCH   3  11
ATOM     11  O   UNL     1       7.846   1.584  23.768  0.00  0.00    -0.453 OA
BRANCH  11  12
ATOM     12  C   UNL     1       7.241   2.663  24.385  0.00  0.00    +0.214 A 
ATOM     13  C   UNL     1       5.752   2.441  24.574  0.00  0.00    +0.238 A 
ATOM     14  O   UNL     1       5.252   1.402  24.138  0.00  0.00    -0.283 OA
ATOM     15  C   UNL     1       4.960   3.430  25.323  0.00  0.00    +0.109 A 
ATOM     16  C   UNL     1       5.627   4.558  25.756  0.00  0.00    +0.147 A 
ATOM     17  C   UNL     1       4.994   5.514  26.561  0.00  0.00    +0.092 A 
ATOM     18  C   UNL     1       3.662   5.342  26.912  0.00  0.00    +0.124 A 
ATOM     19  C   UNL     1       2.960   4.240  26.456  0.00  0.00    +0.091 A 
ATOM     20  O   UNL     1       6.915   4.824  25.408  0.00  0.00    -0.451 OA
ATOM     21  C   UNL     1       3.606   3.295  25.650  0.00  0.00    +0.135 A 
ATOM     22  C   UNL     1       7.725   3.879  24.764  0.00  0.00    +0.181 A 
BRANCH  22  23
ATOM     23  C   UNL     1       9.076   4.519  24.594  0.00  0.00    +0.025 A 
ATOM     24  C   UNL     1       9.318   5.730  25.305  0.00  0.00    +0.015 A 
ATOM     25  C   UNL     1      10.496   6.468  25.169  0.00  0.00    +0.050 A 
ATOM     26  C   UNL     1      11.464   6.014  24.301  0.00  0.00    +0.158 A 
ATOM     27  C   UNL     1      11.248   4.856  23.554  0.00  0.00    +0.159 A 
ATOM     28  C   UNL     1      10.062   4.115  23.680  0.00  0.00    +0.060 A 
BRANCH  27  29
ATOM     29  O   UNL     1      12.243   4.504  22.682  0.00  0.00    -0.503 OA
ATOM     30  H   UNL     1      13.077   4.418  23.180  0.00  0.00    +0.292 HD
ENDBRANCH  27  29
BRANCH  26  31
ATOM     31  O   UNL     1      12.614   6.734  24.169  0.00  0.00    -0.503 OA
ATOM     32  H   UNL     1      13.140   6.251  23.504  0.00  0.00    +0.292 HD
ENDBRANCH  26  31
ENDBRANCH  22  23
BRANCH  18  33
ATOM     33  O   UNL     1       2.999   6.242  27.692  0.00  0.00    -0.507 OA
ATOM     34  H   UNL     1       3.315   7.140  27.499  0.00  0.00    +0.292 HD
ENDBRANCH  18  33
BRANCH  21  35
ATOM     35  O   UNL     1       2.870   2.261  25.164  0.00  0.00    -0.506 OA
ATOM     36  H   UNL     1       1.941   2.534  25.073  0.00  0.00    +0.292 HD
ENDBRANCH  21  35
ENDBRANCH  11  12
ENDBRANCH   3  11
BRANCH   5  37
ATOM     37  C   UNL     1       8.991  -0.197  21.278  0.00  0.00    +0.190 C 
BRANCH  37  38
ATOM     38  O   UNL     1       9.039   1.222  21.106  0.00  0.00    -0.392 OA
ATOM     39  H   UNL     1       9.388   1.625  21.920  0.00  0.00    +0.210 HD
ENDBRANCH  37  38
ENDBRANCH   5  37
BRANCH   1  40
ATOM     40  O   UNL     1       6.864  -1.449  22.992  0.00  0.00    -0.453 OA
BRANCH  40  41
ATOM     41  C   UNL     1       6.032  -2.473  22.681  0.00  0.00    +0.332 C 
ATOM     42  O   UNL     1       5.619  -2.745  21.567  0.00  0.00    -0.246 OA
BRANCH  41  44
ATOM     43  C   UNL     1       5.708  -4.558  23.911  0.00  0.00    +0.015 C 
ATOM     44  C   UNL     1       5.737  -3.217  23.922  0.00  0.00    +0.092 C 
BRANCH  43  46
ATOM     45  C   UNL     1       4.508  -6.378  25.182  0.00  0.00    +0.011 A 
ATOM     46  C   UNL     1       5.516  -5.403  25.100  0.00  0.00    -0.025 A 
ATOM     47  C   UNL     1       6.290  -5.144  26.240  0.00  0.00    +0.011 A 
ATOM     48  C   UNL     1       6.066  -5.843  27.429  0.00  0.00    +0.046 A 
ATOM     49  C   UNL     1       5.057  -6.795  27.490  0.00  0.00    +0.117 A 
ATOM     50  C   UNL     1       4.276  -7.073  26.375  0.00  0.00    +0.046 A 
BRANCH  49  51
ATOM     51  O   UNL     1       4.847  -7.424  28.680  0.00  0.00    -0.507 OA
ATOM     52  H   UNL     1       3.952  -7.211  28.993  0.00  0.00    +0.292 HD
ENDBRANCH  49  51
ENDBRANCH  43  46
ENDBRANCH  41  44
ENDBRANCH  40  41
ENDBRANCH   1  40
TORSDOF 16
ENDMDL
