MODEL 1
REMARK VINA RESULT:      -7.3      0.000      0.000
REMARK  Name = 
REMARK  10 active torsions:
REMARK  status: ('A' for Active; 'I' for Inactive)
REMARK    1  A    between atoms: C_3  and  O_30
REMARK    2  A    between atoms: C_4  and  O_29
REMARK    3  A    between atoms: C_6  and  C_7
REMARK    4  A    between atoms: C_8  and  O_24
REMARK    5  A    between atoms: C_12  and  O_23
REMARK    6  A    between atoms: C_14  and  O_18
REMARK    7  A    between atoms: O_18  and  S_19
REMARK    8  A    between atoms: S_19  and  O_22
REMARK    9  A    between atoms: O_24  and  S_25
REMARK   10  A    between atoms: S_25  and  O_28
REMARK                            x       y       z     vdW  Elec       q    Type
REMARK                         _______ _______ _______ _____ _____    ______ ____
ROOT
ATOM      1  C   UNL     1       6.682  -2.478  23.949  0.00  0.00    +0.184 A 
ATOM      2  O   UNL     1       6.654  -1.339  23.141  0.00  0.00    -0.451 OA
ATOM      3  C   UNL     1       7.481  -0.285  23.426  0.00  0.00    +0.147 A 
ATOM      4  C   UNL     1       8.441  -0.348  24.423  0.00  0.00    +0.109 A 
ATOM      5  C   UNL     1       9.287   0.744  24.644  0.00  0.00    +0.135 A 
ATOM      6  C   UNL     1       9.156   1.909  23.889  0.00  0.00    +0.095 A 
ATOM      7  C   UNL     1       8.166   1.991  22.909  0.00  0.00    +0.166 A 
ATOM      8  C   UNL     1       8.528  -1.568  25.228  0.00  0.00    +0.241 A 
ATOM      9  O   UNL     1       9.402  -1.670  26.087  0.00  0.00    -0.283 OA
ATOM     10  C   UNL     1       7.342   0.882  22.665  0.00  0.00    +0.096 A 
ATOM     11  C   UNL     1       7.538  -2.650  24.982  0.00  0.00    +0.248 A 
ENDROOT
BRANCH   1  13
ATOM     12  C   UNL     1       4.453  -3.512  24.209  0.00  0.00    +0.015 A 
ATOM     13  C   UNL     1       5.657  -3.433  23.483  0.00  0.00    +0.025 A 
ATOM     14  C   UNL     1       5.925  -4.391  22.499  0.00  0.00    +0.060 A 
ATOM     15  C   UNL     1       5.031  -5.443  22.315  0.00  0.00    +0.159 A 
ATOM     16  C   UNL     1       3.892  -5.567  23.107  0.00  0.00    +0.158 A 
ATOM     17  C   UNL     1       3.573  -4.584  24.032  0.00  0.00    +0.050 A 
BRANCH  15  18
ATOM     18  O   UNL     1       5.306  -6.403  21.380  0.00  0.00    -0.503 OA
ATOM     19  H   UNL     1       6.093  -6.064  20.905  0.00  0.00    +0.292 HD
ENDBRANCH  15  18
BRANCH  16  20
ATOM     20  O   UNL     1       3.133  -6.697  22.972  0.00  0.00    -0.503 OA
ATOM     21  H   UNL     1       2.695  -6.657  22.104  0.00  0.00    +0.292 HD
ENDBRANCH  16  20
ENDBRANCH   1  13
BRANCH   5  22
ATOM     22  O   UNL     1      10.274   0.743  25.591  0.00  0.00    -0.506 OA
ATOM     23  H   UNL     1      10.858   1.520  25.433  0.00  0.00    +0.292 HD
ENDBRANCH   5  22
BRANCH   7  24
ATOM     24  O   UNL     1       7.956   3.089  22.112  0.00  0.00    -0.325 OA
BRANCH  24  25
ATOM     25  S   UNL     1       7.040   4.347  22.605  0.00  0.00    +0.251 S 
ATOM     26  O   UNL     1       7.512   4.818  23.889  0.00  0.00    -0.108 OA
ATOM     27  O   UNL     1       5.652   4.034  22.360  0.00  0.00    -0.108 OA
BRANCH  25  28
ATOM     28  O   UNL     1       7.396   5.486  21.519  0.00  0.00    -0.222 OA
ATOM     29  H   UNL     1       7.284   6.355  21.956  0.00  0.00    +0.248 HD
ENDBRANCH  25  28
ENDBRANCH  24  25
ENDBRANCH   7  24
BRANCH  11  30
ATOM     30  O   UNL     1       7.564  -3.658  25.921  0.00  0.00    -0.317 OA
BRANCH  30  31
ATOM     31  S   UNL     1       8.402  -5.038  25.804  0.00  0.00    +0.252 S 
ATOM     32  O   UNL     1       8.930  -5.196  24.469  0.00  0.00    -0.108 OA
ATOM     33  O   UNL     1       7.642  -6.075  26.468  0.00  0.00    -0.108 OA
BRANCH  31  34
ATOM     34  O   UNL     1       9.657  -4.773  26.783  0.00  0.00    -0.222 OA
ATOM     35  H   UNL     1      10.089  -3.942  26.498  0.00  0.00    +0.248 HD
ENDBRANCH  31  34
ENDBRANCH  30  31
ENDBRANCH  11  30
TORSDOF 10
ENDMDL
MODEL 2
REMARK VINA RESULT:      -7.2      2.193      7.589
REMARK  Name = 
REMARK  10 active torsions:
REMARK  status: ('A' for Active; 'I' for Inactive)
REMARK    1  A    between atoms: C_3  and  O_30
REMARK    2  A    between atoms: C_4  and  O_29
REMARK    3  A    between atoms: C_6  and  C_7
REMARK    4  A    between atoms: C_8  and  O_24
REMARK    5  A    between atoms: C_12  and  O_23
REMARK    6  A    between atoms: C_14  and  O_18
REMARK    7  A    between atoms: O_18  and  S_19
REMARK    8  A    between atoms: S_19  and  O_22
REMARK    9  A    between atoms: O_24  and  S_25
REMARK   10  A    between atoms: S_25  and  O_28
REMARK                            x       y       z     vdW  Elec       q    Type
REMARK                         _______ _______ _______ _____ _____    ______ ____
ROOT
ATOM      1  C   UNL     1       7.481  -0.565  23.015  0.00  0.00    +0.184 A 
ATOM      2  O   UNL     1       6.366  -1.389  22.839  0.00  0.00    -0.451 OA
ATOM      3  C   UNL     1       6.504  -2.747  22.941  0.00  0.00    +0.147 A 
ATOM      4  C   UNL     1       7.692  -3.342  23.334  0.00  0.00    +0.109 A 
ATOM      5  C   UNL     1       7.764  -4.733  23.461  0.00  0.00    +0.135 A 
ATOM      6  C   UNL     1       6.659  -5.532  23.169  0.00  0.00    +0.095 A 
ATOM      7  C   UNL     1       5.472  -4.940  22.737  0.00  0.00    +0.166 A 
ATOM      8  C   UNL     1       8.847  -2.481  23.593  0.00  0.00    +0.241 A 
ATOM      9  O   UNL     1       9.900  -2.978  23.989  0.00  0.00    -0.283 OA
ATOM     10  C   UNL     1       5.391  -3.543  22.645  0.00  0.00    +0.096 A 
ATOM     11  C   UNL     1       8.708  -1.019  23.355  0.00  0.00    +0.248 A 
ENDROOT
BRANCH   1  13
ATOM     12  C   UNL     1       7.736   1.540  21.748  0.00  0.00    +0.015 A 
ATOM     13  C   UNL     1       7.091   0.840  22.785  0.00  0.00    +0.025 A 
ATOM     14  C   UNL     1       6.281   1.544  23.683  0.00  0.00    +0.060 A 
ATOM     15  C   UNL     1       6.194   2.930  23.575  0.00  0.00    +0.159 A 
ATOM     16  C   UNL     1       6.915   3.624  22.606  0.00  0.00    +0.158 A 
ATOM     17  C   UNL     1       7.660   2.933  21.661  0.00  0.00    +0.050 A 
BRANCH  15  18
ATOM     18  O   UNL     1       5.432   3.627  24.472  0.00  0.00    -0.503 OA
ATOM     19  H   UNL     1       4.667   3.042  24.651  0.00  0.00    +0.292 HD
ENDBRANCH  15  18
BRANCH  16  20
ATOM     20  O   UNL     1       6.896   4.991  22.645  0.00  0.00    -0.503 OA
ATOM     21  H   UNL     1       7.718   5.286  23.075  0.00  0.00    +0.292 HD
ENDBRANCH  16  20
ENDBRANCH   1  13
BRANCH   5  22
ATOM     22  O   UNL     1       8.894  -5.387  23.870  0.00  0.00    -0.506 OA
ATOM     23  H   UNL     1       9.649  -5.077  23.320  0.00  0.00    +0.292 HD
ENDBRANCH   5  22
BRANCH   7  24
ATOM     24  O   UNL     1       4.329  -5.636  22.428  0.00  0.00    -0.325 OA
BRANCH  24  25
ATOM     25  S   UNL     1       3.346  -6.233  23.586  0.00  0.00    +0.251 S 
ATOM     26  O   UNL     1       2.053  -6.540  23.015  0.00  0.00    -0.108 OA
ATOM     27  O   UNL     1       3.492  -5.430  24.778  0.00  0.00    -0.108 OA
BRANCH  25  28
ATOM     28  O   UNL     1       4.051  -7.636  23.955  0.00  0.00    -0.222 OA
ATOM     29  H   UNL     1       4.900  -7.432  24.397  0.00  0.00    +0.248 HD
ENDBRANCH  25  28
ENDBRANCH  24  25
ENDBRANCH   7  24
BRANCH  11  30
ATOM     30  O   UNL     1       9.897  -0.326  23.420  0.00  0.00    -0.317 OA
BRANCH  30  31
ATOM     31  S   UNL     1      10.344   0.675  24.611  0.00  0.00    +0.252 S 
ATOM     32  O   UNL     1       9.701   1.959  24.459  0.00  0.00    -0.108 OA
ATOM     33  O   UNL     1      11.773   0.537  24.792  0.00  0.00    -0.108 OA
BRANCH  31  34
ATOM     34  O   UNL     1       9.706  -0.024  25.918  0.00  0.00    -0.222 OA
ATOM     35  H   UNL     1       9.302  -0.871  25.638  0.00  0.00    +0.248 HD
ENDBRANCH  31  34
ENDBRANCH  30  31
ENDBRANCH  11  30
TORSDOF 10
ENDMDL
MODEL 3
REMARK VINA RESULT:      -6.7      1.331      1.678
REMARK  Name = 
REMARK  10 active torsions:
REMARK  status: ('A' for Active; 'I' for Inactive)
REMARK    1  A    between atoms: C_3  and  O_30
REMARK    2  A    between atoms: C_4  and  O_29
REMARK    3  A    between atoms: C_6  and  C_7
REMARK    4  A    between atoms: C_8  and  O_24
REMARK    5  A    between atoms: C_12  and  O_23
REMARK    6  A    between atoms: C_14  and  O_18
REMARK    7  A    between atoms: O_18  and  S_19
REMARK    8  A    between atoms: S_19  and  O_22
REMARK    9  A    between atoms: O_24  and  S_25
REMARK   10  A    between atoms: S_25  and  O_28
REMARK                            x       y       z     vdW  Elec       q    Type
REMARK                         _______ _______ _______ _____ _____    ______ ____
ROOT
ATOM      1  C   UNL     1       6.401  -2.901  23.650  0.00  0.00    +0.184 A 
ATOM      2  O   UNL     1       6.223  -1.625  23.109  0.00  0.00    -0.451 OA
ATOM      3  C   UNL     1       7.305  -0.800  22.948  0.00  0.00    +0.147 A 
ATOM      4  C   UNL     1       8.600  -1.225  23.192  0.00  0.00    +0.109 A 
ATOM      5  C   UNL     1       9.671  -0.352  22.972  0.00  0.00    +0.135 A 
ATOM      6  C   UNL     1       9.447   0.953  22.536  0.00  0.00    +0.095 A 
ATOM      7  C   UNL     1       8.141   1.397  22.325  0.00  0.00    +0.166 A 
ATOM      8  C   UNL     1       8.803  -2.587  23.690  0.00  0.00    +0.241 A 
ATOM      9  O   UNL     1       9.945  -3.006  23.869  0.00  0.00    -0.283 OA
ATOM     10  C   UNL     1       7.071   0.509  22.512  0.00  0.00    +0.096 A 
ATOM     11  C   UNL     1       7.605  -3.422  23.974  0.00  0.00    +0.248 A 
ENDROOT
BRANCH   1  13
ATOM     12  C   UNL     1       4.258  -3.161  24.853  0.00  0.00    +0.015 A 
ATOM     13  C   UNL     1       5.087  -3.560  23.787  0.00  0.00    +0.025 A 
ATOM     14  C   UNL     1       4.741  -4.693  23.042  0.00  0.00    +0.060 A 
ATOM     15  C   UNL     1       3.628  -5.441  23.420  0.00  0.00    +0.159 A 
ATOM     16  C   UNL     1       2.872  -5.092  24.538  0.00  0.00    +0.158 A 
ATOM     17  C   UNL     1       3.156  -3.929  25.239  0.00  0.00    +0.050 A 
BRANCH  15  18
ATOM     18  O   UNL     1       3.307  -6.569  22.718  0.00  0.00    -0.503 OA
ATOM     19  H   UNL     1       4.073  -7.166  22.847  0.00  0.00    +0.292 HD
ENDBRANCH  15  18
BRANCH  16  20
ATOM     20  O   UNL     1       1.882  -5.946  24.937  0.00  0.00    -0.503 OA
ATOM     21  H   UNL     1       2.218  -6.855  24.841  0.00  0.00    +0.292 HD
ENDBRANCH  16  20
ENDBRANCH   1  13
BRANCH   5  22
ATOM     22  O   UNL     1      10.977  -0.711  23.165  0.00  0.00    -0.506 OA
ATOM     23  H   UNL     1      11.129  -1.580  22.727  0.00  0.00    +0.292 HD
ENDBRANCH   5  22
BRANCH   7  24
ATOM     24  O   UNL     1       7.813   2.659  21.894  0.00  0.00    -0.325 OA
BRANCH  24  25
ATOM     25  S   UNL     1       7.741   3.926  22.921  0.00  0.00    +0.251 S 
ATOM     26  O   UNL     1       7.334   3.467  24.231  0.00  0.00    -0.108 OA
ATOM     27  O   UNL     1       7.090   5.028  22.253  0.00  0.00    -0.108 OA
BRANCH  25  28
ATOM     28  O   UNL     1       9.286   4.376  23.032  0.00  0.00    -0.222 OA
ATOM     29  H   UNL     1       9.773   3.652  23.475  0.00  0.00    +0.248 HD
ENDBRANCH  25  28
ENDBRANCH  24  25
ENDBRANCH   7  24
BRANCH  11  30
ATOM     30  O   UNL     1       7.886  -4.599  24.633  0.00  0.00    -0.317 OA
BRANCH  30  31
ATOM     31  S   UNL     1       7.993  -4.782  26.238  0.00  0.00    +0.252 S 
ATOM     32  O   UNL     1       9.369  -4.684  26.666  0.00  0.00    -0.108 OA
ATOM     33  O   UNL     1       7.138  -5.886  26.616  0.00  0.00    -0.108 OA
BRANCH  31  34
ATOM     34  O   UNL     1       7.229  -3.475  26.795  0.00  0.00    -0.222 OA
ATOM     35  H   UNL     1       7.641  -2.689  26.382  0.00  0.00    +0.248 HD
ENDBRANCH  31  34
ENDBRANCH  30  31
ENDBRANCH  11  30
TORSDOF 10
ENDMDL
MODEL 4
REMARK VINA RESULT:      -6.7      2.406      3.814
REMARK  Name = 
REMARK  10 active torsions:
REMARK  status: ('A' for Active; 'I' for Inactive)
REMARK    1  A    between atoms: C_3  and  O_30
REMARK    2  A    between atoms: C_4  and  O_29
REMARK    3  A    between atoms: C_6  and  C_7
REMARK    4  A    between atoms: C_8  and  O_24
REMARK    5  A    between atoms: C_12  and  O_23
REMARK    6  A    between atoms: C_14  and  O_18
REMARK    7  A    between atoms: O_18  and  S_19
REMARK    8  A    between atoms: S_19  and  O_22
REMARK    9  A    between atoms: O_24  and  S_25
REMARK   10  A    between atoms: S_25  and  O_28
REMARK                            x       y       z     vdW  Elec       q    Type
REMARK                         _______ _______ _______ _____ _____    ______ ____
ROOT
ATOM      1  C   UNL     1       7.249  -2.915  24.764  0.00  0.00    +0.184 A 
ATOM      2  O   UNL     1       7.503  -1.616  25.212  0.00  0.00    -0.451 OA
ATOM      3  C   UNL     1       8.150  -0.731  24.391  0.00  0.00    +0.147 A 
ATOM      4  C   UNL     1       8.461  -1.034  23.076  0.00  0.00    +0.109 A 
ATOM      5  C   UNL     1       9.086  -0.076  22.271  0.00  0.00    +0.135 A 
ATOM      6  C   UNL     1       9.425   1.174  22.786  0.00  0.00    +0.095 A 
ATOM      7  C   UNL     1       9.148   1.471  24.121  0.00  0.00    +0.166 A 
ATOM      8  C   UNL     1       8.131  -2.369  22.574  0.00  0.00    +0.241 A 
ATOM      9  O   UNL     1       8.352  -2.649  21.397  0.00  0.00    -0.283 OA
ATOM     10  C   UNL     1       8.489   0.522  24.917  0.00  0.00    +0.096 A 
ATOM     11  C   UNL     1       7.542  -3.355  23.520  0.00  0.00    +0.248 A 
ENDROOT
BRANCH   1  13
ATOM     12  C   UNL     1       5.470  -3.144  26.463  0.00  0.00    +0.015 A 
ATOM     13  C   UNL     1       6.613  -3.689  25.848  0.00  0.00    +0.025 A 
ATOM     14  C   UNL     1       7.223  -4.814  26.416  0.00  0.00    +0.060 A 
ATOM     15  C   UNL     1       6.730  -5.319  27.617  0.00  0.00    +0.159 A 
ATOM     16  C   UNL     1       5.659  -4.711  28.269  0.00  0.00    +0.158 A 
ATOM     17  C   UNL     1       4.996  -3.644  27.679  0.00  0.00    +0.050 A 
BRANCH  15  18
ATOM     18  O   UNL     1       7.344  -6.395  28.196  0.00  0.00    -0.503 OA
ATOM     19  H   UNL     1       8.147  -6.540  27.654  0.00  0.00    +0.292 HD
ENDBRANCH  15  18
BRANCH  16  20
ATOM     20  O   UNL     1       5.317  -5.169  29.511  0.00  0.00    -0.503 OA
ATOM     21  H   UNL     1       5.851  -5.963  29.691  0.00  0.00    +0.292 HD
ENDBRANCH  16  20
ENDBRANCH   1  13
BRANCH   5  22
ATOM     22  O   UNL     1       9.398  -0.295  20.957  0.00  0.00    -0.506 OA
ATOM     23  H   UNL     1       8.915   0.364  20.408  0.00  0.00    +0.292 HD
ENDBRANCH   5  22
BRANCH   7  24
ATOM     24  O   UNL     1       9.438   2.670  24.723  0.00  0.00    -0.325 OA
BRANCH  24  25
ATOM     25  S   UNL     1       8.577   4.021  24.408  0.00  0.00    +0.251 S 
ATOM     26  O   UNL     1       8.698   4.943  25.517  0.00  0.00    -0.108 OA
ATOM     27  O   UNL     1       7.298   3.638  23.859  0.00  0.00    -0.108 OA
BRANCH  25  28
ATOM     28  O   UNL     1       9.376   4.664  23.163  0.00  0.00    -0.222 OA
ATOM     29  H   UNL     1       9.020   5.564  23.017  0.00  0.00    +0.248 HD
ENDBRANCH  25  28
ENDBRANCH  24  25
ENDBRANCH   7  24
BRANCH  11  30
ATOM     30  O   UNL     1       7.464  -4.635  23.018  0.00  0.00    -0.317 OA
BRANCH  30  31
ATOM     31  S   UNL     1       6.125  -5.353  22.458  0.00  0.00    +0.252 S 
ATOM     32  O   UNL     1       5.488  -6.117  23.505  0.00  0.00    -0.108 OA
ATOM     33  O   UNL     1       6.432  -5.915  21.161  0.00  0.00    -0.108 OA
BRANCH  31  34
ATOM     34  O   UNL     1       5.162  -4.099  22.133  0.00  0.00    -0.222 OA
ATOM     35  H   UNL     1       5.725  -3.364  21.815  0.00  0.00    +0.248 HD
ENDBRANCH  31  34
ENDBRANCH  30  31
ENDBRANCH  11  30
TORSDOF 10
ENDMDL
MODEL 5
REMARK VINA RESULT:      -6.6      3.192      7.842
REMARK  Name = 
REMARK  10 active torsions:
REMARK  status: ('A' for Active; 'I' for Inactive)
REMARK    1  A    between atoms: C_3  and  O_30
REMARK    2  A    between atoms: C_4  and  O_29
REMARK    3  A    between atoms: C_6  and  C_7
REMARK    4  A    between atoms: C_8  and  O_24
REMARK    5  A    between atoms: C_12  and  O_23
REMARK    6  A    between atoms: C_14  and  O_18
REMARK    7  A    between atoms: O_18  and  S_19
REMARK    8  A    between atoms: S_19  and  O_22
REMARK    9  A    between atoms: O_24  and  S_25
REMARK   10  A    between atoms: S_25  and  O_28
REMARK                            x       y       z     vdW  Elec       q    Type
REMARK                         _______ _______ _______ _____ _____    ______ ____
ROOT
ATOM      1  C   UNL     1       7.758  -0.798  25.301  0.00  0.00    +0.184 A 
ATOM      2  O   UNL     1       7.165  -1.676  26.211  0.00  0.00    -0.451 OA
ATOM      3  C   UNL     1       7.572  -2.983  26.256  0.00  0.00    +0.147 A 
ATOM      4  C   UNL     1       8.643  -3.449  25.511  0.00  0.00    +0.109 A 
ATOM      5  C   UNL     1       9.042  -4.785  25.627  0.00  0.00    +0.135 A 
ATOM      6  C   UNL     1       8.354  -5.662  26.464  0.00  0.00    +0.095 A 
ATOM      7  C   UNL     1       7.251  -5.207  27.187  0.00  0.00    +0.166 A 
ATOM      8  C   UNL     1       9.320  -2.516  24.609  0.00  0.00    +0.241 A 
ATOM      9  O   UNL     1      10.304  -2.890  23.972  0.00  0.00    -0.283 OA
ATOM     10  C   UNL     1       6.875  -3.858  27.097  0.00  0.00    +0.096 A 
ATOM     11  C   UNL     1       8.782  -1.135  24.485  0.00  0.00    +0.248 A 
ENDROOT
BRANCH   1  13
ATOM     12  C   UNL     1       5.953   0.743  24.615  0.00  0.00    +0.015 A 
ATOM     13  C   UNL     1       7.102   0.521  25.397  0.00  0.00    +0.025 A 
ATOM     14  C   UNL     1       7.698   1.603  26.056  0.00  0.00    +0.060 A 
ATOM     15  C   UNL     1       7.184   2.883  25.861  0.00  0.00    +0.159 A 
ATOM     16  C   UNL     1       6.106   3.104  25.006  0.00  0.00    +0.158 A 
ATOM     17  C   UNL     1       5.458   2.033  24.408  0.00  0.00    +0.050 A 
BRANCH  15  18
ATOM     18  O   UNL     1       7.783   3.948  26.473  0.00  0.00    -0.503 OA
ATOM     19  H   UNL     1       7.045   4.553  26.694  0.00  0.00    +0.292 HD
ENDBRANCH  15  18
BRANCH  16  20
ATOM     20  O   UNL     1       5.743   4.396  24.748  0.00  0.00    -0.503 OA
ATOM     21  H   UNL     1       4.866   4.543  25.147  0.00  0.00    +0.292 HD
ENDBRANCH  16  20
ENDBRANCH   1  13
BRANCH   5  22
ATOM     22  O   UNL     1      10.106  -5.307  24.944  0.00  0.00    -0.506 OA
ATOM     23  H   UNL     1      10.443  -6.087  25.442  0.00  0.00    +0.292 HD
ENDBRANCH   5  22
BRANCH   7  24
ATOM     24  O   UNL     1       6.509  -5.987  28.040  0.00  0.00    -0.325 OA
BRANCH  24  25
ATOM     25  S   UNL     1       5.003  -6.487  27.656  0.00  0.00    +0.251 S 
ATOM     26  O   UNL     1       5.018  -7.116  26.353  0.00  0.00    -0.108 OA
ATOM     27  O   UNL     1       4.067  -5.443  27.998  0.00  0.00    -0.108 OA
BRANCH  25  28
ATOM     28  O   UNL     1       4.732  -7.648  28.743  0.00  0.00    -0.222 OA
ATOM     29  H   UNL     1       5.564  -7.788  29.238  0.00  0.00    +0.248 HD
ENDBRANCH  25  28
ENDBRANCH  24  25
ENDBRANCH   7  24
BRANCH  11  30
ATOM     30  O   UNL     1       9.348  -0.402  23.464  0.00  0.00    -0.317 OA
BRANCH  30  31
ATOM     31  S   UNL     1       9.079  -0.618  21.883  0.00  0.00    +0.252 S 
ATOM     32  O   UNL     1       9.164   0.641  21.181  0.00  0.00    -0.108 OA
ATOM     33  O   UNL     1       7.950  -1.513  21.743  0.00  0.00    -0.108 OA
BRANCH  31  34
ATOM     34  O   UNL     1      10.349  -1.502  21.426  0.00  0.00    -0.222 OA
ATOM     35  H   UNL     1      10.248  -2.395  21.815  0.00  0.00    +0.248 HD
ENDBRANCH  31  34
ENDBRANCH  30  31
ENDBRANCH  11  30
TORSDOF 10
ENDMDL
MODEL 6
REMARK VINA RESULT:      -6.6      2.375      7.713
REMARK  Name = 
REMARK  10 active torsions:
REMARK  status: ('A' for Active; 'I' for Inactive)
REMARK    1  A    between atoms: C_3  and  O_30
REMARK    2  A    between atoms: C_4  and  O_29
REMARK    3  A    between atoms: C_6  and  C_7
REMARK    4  A    between atoms: C_8  and  O_24
REMARK    5  A    between atoms: C_12  and  O_23
REMARK    6  A    between atoms: C_14  and  O_18
REMARK    7  A    between atoms: O_18  and  S_19
REMARK    8  A    between atoms: S_19  and  O_22
REMARK    9  A    between atoms: O_24  and  S_25
REMARK   10  A    between atoms: S_25  and  O_28
REMARK                            x       y       z     vdW  Elec       q    Type
REMARK                         _______ _______ _______ _____ _____    ______ ____
ROOT
ATOM      1  C   UNL     1       7.181   0.774  23.815  0.00  0.00    +0.184 A 
ATOM      2  O   UNL     1       6.375  -0.326  23.509  0.00  0.00    -0.451 OA
ATOM      3  C   UNL     1       6.929  -1.577  23.448  0.00  0.00    +0.147 A 
ATOM      4  C   UNL     1       8.247  -1.819  23.799  0.00  0.00    +0.109 A 
ATOM      5  C   UNL     1       8.749  -3.124  23.758  0.00  0.00    +0.135 A 
ATOM      6  C   UNL     1       7.944  -4.182  23.340  0.00  0.00    +0.095 A 
ATOM      7  C   UNL     1       6.627  -3.938  22.950  0.00  0.00    +0.166 A 
ATOM      8  C   UNL     1       9.081  -0.682  24.194  0.00  0.00    +0.241 A 
ATOM      9  O   UNL     1      10.240  -0.874  24.556  0.00  0.00    -0.283 OA
ATOM     10  C   UNL     1       6.114  -2.634  23.026  0.00  0.00    +0.096 A 
ATOM     11  C   UNL     1       8.492   0.683  24.132  0.00  0.00    +0.248 A 
ENDROOT
BRANCH   1  13
ATOM     12  C   UNL     1       6.087   2.537  22.474  0.00  0.00    +0.015 A 
ATOM     13  C   UNL     1       6.372   2.006  23.747  0.00  0.00    +0.025 A 
ATOM     14  C   UNL     1       6.074   2.765  24.885  0.00  0.00    +0.060 A 
ATOM     15  C   UNL     1       5.573   4.055  24.728  0.00  0.00    +0.159 A 
ATOM     16  C   UNL     1       5.388   4.607  23.462  0.00  0.00    +0.158 A 
ATOM     17  C   UNL     1       5.605   3.841  22.327  0.00  0.00    +0.050 A 
BRANCH  15  18
ATOM     18  O   UNL     1       5.314   4.814  25.836  0.00  0.00    -0.503 OA
ATOM     19  H   UNL     1       5.996   4.543  26.484  0.00  0.00    +0.292 HD
ENDBRANCH  15  18
BRANCH  16  20
ATOM     20  O   UNL     1       5.030   5.924  23.380  0.00  0.00    -0.503 OA
ATOM     21  H   UNL     1       5.345   6.367  24.188  0.00  0.00    +0.292 HD
ENDBRANCH  16  20
ENDBRANCH   1  13
BRANCH   5  22
ATOM     22  O   UNL     1      10.030  -3.441  24.116  0.00  0.00    -0.506 OA
ATOM     23  H   UNL     1      10.643  -2.810  23.674  0.00  0.00    +0.292 HD
ENDBRANCH   5  22
BRANCH   7  24
ATOM     24  O   UNL     1       5.753  -4.909  22.526  0.00  0.00    -0.325 OA
BRANCH  24  25
ATOM     25  S   UNL     1       4.589  -5.504  23.504  0.00  0.00    +0.251 S 
ATOM     26  O   UNL     1       3.287  -5.185  22.960  0.00  0.00    -0.108 OA
ATOM     27  O   UNL     1       4.944  -5.219  24.875  0.00  0.00    -0.108 OA
BRANCH  25  28
ATOM     28  O   UNL     1       4.789  -7.098  23.358  0.00  0.00    -0.222 OA
ATOM     29  H   UNL     1       4.527  -7.508  24.207  0.00  0.00    +0.248 HD
ENDBRANCH  25  28
ENDBRANCH  24  25
ENDBRANCH   7  24
BRANCH  11  30
ATOM     30  O   UNL     1       9.407   1.696  24.314  0.00  0.00    -0.317 OA
BRANCH  30  31
ATOM     31  S   UNL     1      10.151   2.523  23.138  0.00  0.00    +0.252 S 
ATOM     32  O   UNL     1      10.069   1.805  21.888  0.00  0.00    -0.108 OA
ATOM     33  O   UNL     1      11.401   3.021  23.669  0.00  0.00    -0.108 OA
BRANCH  31  34
ATOM     34  O   UNL     1       9.227   3.838  22.991  0.00  0.00    -0.222 OA
ATOM     35  H   UNL     1       8.292   3.557  23.071  0.00  0.00    +0.248 HD
ENDBRANCH  31  34
ENDBRANCH  30  31
ENDBRANCH  11  30
TORSDOF 10
ENDMDL
MODEL 7
REMARK VINA RESULT:      -6.5      1.584      2.133
REMARK  Name = 
REMARK  10 active torsions:
REMARK  status: ('A' for Active; 'I' for Inactive)
REMARK    1  A    between atoms: C_3  and  O_30
REMARK    2  A    between atoms: C_4  and  O_29
REMARK    3  A    between atoms: C_6  and  C_7
REMARK    4  A    between atoms: C_8  and  O_24
REMARK    5  A    between atoms: C_12  and  O_23
REMARK    6  A    between atoms: C_14  and  O_18
REMARK    7  A    between atoms: O_18  and  S_19
REMARK    8  A    between atoms: S_19  and  O_22
REMARK    9  A    between atoms: O_24  and  S_25
REMARK   10  A    between atoms: S_25  and  O_28
REMARK                            x       y       z     vdW  Elec       q    Type
REMARK                         _______ _______ _______ _____ _____    ______ ____
ROOT
ATOM      1  C   UNL     1       6.646  -2.372  24.179  0.00  0.00    +0.184 A 
ATOM      2  O   UNL     1       6.302  -1.018  24.177  0.00  0.00    -0.451 OA
ATOM      3  C   UNL     1       7.282  -0.068  24.288  0.00  0.00    +0.147 A 
ATOM      4  C   UNL     1       8.629  -0.393  24.282  0.00  0.00    +0.109 A 
ATOM      5  C   UNL     1       9.589   0.621  24.356  0.00  0.00    +0.135 A 
ATOM      6  C   UNL     1       9.205   1.957  24.466  0.00  0.00    +0.095 A 
ATOM      7  C   UNL     1       7.850   2.286  24.510  0.00  0.00    +0.166 A 
ATOM      8  C   UNL     1       9.003  -1.807  24.208  0.00  0.00    +0.241 A 
ATOM      9  O   UNL     1      10.190  -2.121  24.153  0.00  0.00    -0.283 OA
ATOM     10  C   UNL     1       6.888   1.270  24.399  0.00  0.00    +0.096 A 
ATOM     11  C   UNL     1       7.919  -2.826  24.214  0.00  0.00    +0.248 A 
ENDROOT
BRANCH   1  13
ATOM     12  C   UNL     1       4.531  -3.120  25.214  0.00  0.00    +0.015 A 
ATOM     13  C   UNL     1       5.418  -3.189  24.122  0.00  0.00    +0.025 A 
ATOM     14  C   UNL     1       5.221  -4.170  23.144  0.00  0.00    +0.060 A 
ATOM     15  C   UNL     1       4.198  -5.101  23.312  0.00  0.00    +0.159 A 
ATOM     16  C   UNL     1       3.389  -5.084  24.447  0.00  0.00    +0.158 A 
ATOM     17  C   UNL     1       3.523  -4.072  25.386  0.00  0.00    +0.050 A 
BRANCH  15  18
ATOM     18  O   UNL     1       4.024  -6.083  22.378  0.00  0.00    -0.503 OA
ATOM     19  H   UNL     1       3.084  -6.345  22.469  0.00  0.00    +0.292 HD
ENDBRANCH  15  18
BRANCH  16  20
ATOM     20  O   UNL     1       2.501  -6.109  24.619  0.00  0.00    -0.503 OA
ATOM     21  H   UNL     1       2.357  -6.219  25.575  0.00  0.00    +0.292 HD
ENDBRANCH  16  20
ENDBRANCH   1  13
BRANCH   5  22
ATOM     22  O   UNL     1      10.935   0.378  24.327  0.00  0.00    -0.506 OA
ATOM     23  H   UNL     1      11.312   0.810  23.528  0.00  0.00    +0.292 HD
ENDBRANCH   5  22
BRANCH   7  24
ATOM     24  O   UNL     1       7.368   3.568  24.614  0.00  0.00    -0.325 OA
BRANCH  24  25
ATOM     25  S   UNL     1       7.425   4.397  26.019  0.00  0.00    +0.251 S 
ATOM     26  O   UNL     1       6.140   5.009  26.274  0.00  0.00    -0.108 OA
ATOM     27  O   UNL     1       8.660   5.146  26.065  0.00  0.00    -0.108 OA
BRANCH  25  28
ATOM     28  O   UNL     1       7.622   3.225  27.110  0.00  0.00    -0.222 OA
ATOM     29  H   UNL     1       6.770   3.115  27.580  0.00  0.00    +0.248 HD
ENDBRANCH  25  28
ENDBRANCH  24  25
ENDBRANCH   7  24
BRANCH  11  30
ATOM     30  O   UNL     1       8.369  -4.121  24.357  0.00  0.00    -0.317 OA
BRANCH  30  31
ATOM     31  S   UNL     1       8.383  -4.972  25.734  0.00  0.00    +0.252 S 
ATOM     32  O   UNL     1       7.192  -5.782  25.837  0.00  0.00    -0.108 OA
ATOM     33  O   UNL     1       8.818  -4.091  26.795  0.00  0.00    -0.108 OA
BRANCH  31  34
ATOM     34  O   UNL     1       9.624  -5.978  25.514  0.00  0.00    -0.222 OA
ATOM     35  H   UNL     1      10.450  -5.459  25.599  0.00  0.00    +0.248 HD
ENDBRANCH  31  34
ENDBRANCH  30  31
ENDBRANCH  11  30
TORSDOF 10
ENDMDL
MODEL 8
REMARK VINA RESULT:      -6.4      1.999      2.501
REMARK  Name = 
REMARK  10 active torsions:
REMARK  status: ('A' for Active; 'I' for Inactive)
REMARK    1  A    between atoms: C_3  and  O_30
REMARK    2  A    between atoms: C_4  and  O_29
REMARK    3  A    between atoms: C_6  and  C_7
REMARK    4  A    between atoms: C_8  and  O_24
REMARK    5  A    between atoms: C_12  and  O_23
REMARK    6  A    between atoms: C_14  and  O_18
REMARK    7  A    between atoms: O_18  and  S_19
REMARK    8  A    between atoms: S_19  and  O_22
REMARK    9  A    between atoms: O_24  and  S_25
REMARK   10  A    between atoms: S_25  and  O_28
REMARK                            x       y       z     vdW  Elec       q    Type
REMARK                         _______ _______ _______ _____ _____    ______ ____
ROOT
ATOM      1  C   UNL     1       6.623  -1.909  24.908  0.00  0.00    +0.184 A 
ATOM      2  O   UNL     1       6.225  -0.757  24.227  0.00  0.00    -0.451 OA
ATOM      3  C   UNL     1       7.140  -0.056  23.487  0.00  0.00    +0.147 A 
ATOM      4  C   UNL     1       8.432  -0.512  23.286  0.00  0.00    +0.109 A 
ATOM      5  C   UNL     1       9.312   0.225  22.487  0.00  0.00    +0.135 A 
ATOM      6  C   UNL     1       8.912   1.430  21.912  0.00  0.00    +0.095 A 
ATOM      7  C   UNL     1       7.624   1.912  22.143  0.00  0.00    +0.166 A 
ATOM      8  C   UNL     1       8.838  -1.760  23.936  0.00  0.00    +0.241 A 
ATOM      9  O   UNL     1       9.963  -2.212  23.736  0.00  0.00    -0.283 OA
ATOM     10  C   UNL     1       6.730   1.155  22.915  0.00  0.00    +0.096 A 
ATOM     11  C   UNL     1       7.866  -2.438  24.835  0.00  0.00    +0.248 A 
ENDROOT
BRANCH   1  13
ATOM     12  C   UNL     1       5.346  -2.016  27.021  0.00  0.00    +0.015 A 
ATOM     13  C   UNL     1       5.483  -2.437  25.684  0.00  0.00    +0.025 A 
ATOM     14  C   UNL     1       4.683  -3.483  25.212  0.00  0.00    +0.060 A 
ATOM     15  C   UNL     1       3.825  -4.133  26.096  0.00  0.00    +0.159 A 
ATOM     16  C   UNL     1       3.769  -3.774  27.441  0.00  0.00    +0.158 A 
ATOM     17  C   UNL     1       4.498  -2.689  27.905  0.00  0.00    +0.050 A 
BRANCH  15  18
ATOM     18  O   UNL     1       3.067  -5.180  25.650  0.00  0.00    -0.503 OA
ATOM     19  H   UNL     1       3.707  -5.911  25.524  0.00  0.00    +0.292 HD
ENDBRANCH  15  18
BRANCH  16  20
ATOM     20  O   UNL     1       3.015  -4.543  28.283  0.00  0.00    -0.503 OA
ATOM     21  H   UNL     1       3.544  -5.324  28.524  0.00  0.00    +0.292 HD
ENDBRANCH  16  20
ENDBRANCH   1  13
BRANCH   5  22
ATOM     22  O   UNL     1      10.593  -0.178  22.222  0.00  0.00    -0.506 OA
ATOM     23  H   UNL     1      11.178   0.152  22.941  0.00  0.00    +0.292 HD
ENDBRANCH   5  22
BRANCH   7  24
ATOM     24  O   UNL     1       7.132   3.084  21.622  0.00  0.00    -0.325 OA
BRANCH  24  25
ATOM     25  S   UNL     1       6.961   4.426  22.536  0.00  0.00    +0.251 S 
ATOM     26  O   UNL     1       7.920   4.402  23.619  0.00  0.00    -0.108 OA
ATOM     27  O   UNL     1       5.553   4.660  22.757  0.00  0.00    -0.108 OA
BRANCH  25  28
ATOM     28  O   UNL     1       7.413   5.599  21.524  0.00  0.00    -0.222 OA
ATOM     29  H   UNL     1       8.366   5.476  21.338  0.00  0.00    +0.248 HD
ENDBRANCH  25  28
ENDBRANCH  24  25
ENDBRANCH   7  24
BRANCH  11  30
ATOM     30  O   UNL     1       8.404  -3.477  25.560  0.00  0.00    -0.317 OA
BRANCH  30  31
ATOM     31  S   UNL     1       8.469  -5.025  25.091  0.00  0.00    +0.252 S 
ATOM     32  O   UNL     1       7.847  -5.186  23.798  0.00  0.00    -0.108 OA
ATOM     33  O   UNL     1       8.122  -5.848  26.229  0.00  0.00    -0.108 OA
BRANCH  31  34
ATOM     34  O   UNL     1      10.052  -5.267  24.890  0.00  0.00    -0.222 OA
ATOM     35  H   UNL     1      10.385  -4.576  24.282  0.00  0.00    +0.248 HD
ENDBRANCH  31  34
ENDBRANCH  30  31
ENDBRANCH  11  30
TORSDOF 10
ENDMDL
MODEL 9
REMARK VINA RESULT:      -6.3      2.566      3.730
REMARK  Name = 
REMARK  10 active torsions:
REMARK  status: ('A' for Active; 'I' for Inactive)
REMARK    1  A    between atoms: C_3  and  O_30
REMARK    2  A    between atoms: C_4  and  O_29
REMARK    3  A    between atoms: C_6  and  C_7
REMARK    4  A    between atoms: C_8  and  O_24
REMARK    5  A    between atoms: C_12  and  O_23
REMARK    6  A    between atoms: C_14  and  O_18
REMARK    7  A    between atoms: O_18  and  S_19
REMARK    8  A    between atoms: S_19  and  O_22
REMARK    9  A    between atoms: O_24  and  S_25
REMARK   10  A    between atoms: S_25  and  O_28
REMARK                            x       y       z     vdW  Elec       q    Type
REMARK                         _______ _______ _______ _____ _____    ______ ____
ROOT
ATOM      1  C   UNL     1       6.887  -2.995  25.114  0.00  0.00    +0.184 A 
ATOM      2  O   UNL     1       7.262  -1.690  25.445  0.00  0.00    -0.451 OA
ATOM      3  C   UNL     1       8.015  -0.957  24.568  0.00  0.00    +0.147 A 
ATOM      4  C   UNL     1       8.325  -1.416  23.298  0.00  0.00    +0.109 A 
ATOM      5  C   UNL     1       9.064  -0.607  22.428  0.00  0.00    +0.135 A 
ATOM      6  C   UNL     1       9.516   0.647  22.835  0.00  0.00    +0.095 A 
ATOM      7  C   UNL     1       9.238   1.098  24.126  0.00  0.00    +0.166 A 
ATOM      8  C   UNL     1       7.873  -2.754  22.913  0.00  0.00    +0.241 A 
ATOM      9  O   UNL     1       8.093  -3.167  21.776  0.00  0.00    -0.283 OA
ATOM     10  C   UNL     1       8.467   0.301  24.985  0.00  0.00    +0.096 A 
ATOM     11  C   UNL     1       7.164  -3.580  23.927  0.00  0.00    +0.248 A 
ENDROOT
BRANCH   1  13
ATOM     12  C   UNL     1       6.861  -4.431  27.124  0.00  0.00    +0.015 A 
ATOM     13  C   UNL     1       6.150  -3.593  26.244  0.00  0.00    +0.025 A 
ATOM     14  C   UNL     1       4.755  -3.533  26.337  0.00  0.00    +0.060 A 
ATOM     15  C   UNL     1       4.099  -4.358  27.248  0.00  0.00    +0.159 A 
ATOM     16  C   UNL     1       4.806  -5.256  28.045  0.00  0.00    +0.158 A 
ATOM     17  C   UNL     1       6.193  -5.271  28.019  0.00  0.00    +0.050 A 
BRANCH  15  18
ATOM     18  O   UNL     1       2.734  -4.330  27.319  0.00  0.00    -0.503 OA
ATOM     19  H   UNL     1       2.472  -3.608  26.710  0.00  0.00    +0.292 HD
ENDBRANCH  15  18
BRANCH  16  20
ATOM     20  O   UNL     1       4.094  -6.135  28.812  0.00  0.00    -0.503 OA
ATOM     21  H   UNL     1       3.406  -6.530  28.248  0.00  0.00    +0.292 HD
ENDBRANCH  16  20
ENDBRANCH   1  13
BRANCH   5  22
ATOM     22  O   UNL     1       9.384  -0.982  21.152  0.00  0.00    -0.506 OA
ATOM     23  H   UNL     1       8.587  -1.385  20.737  0.00  0.00    +0.292 HD
ENDBRANCH   5  22
BRANCH   7  24
ATOM     24  O   UNL     1       9.635   2.316  24.622  0.00  0.00    -0.325 OA
BRANCH  24  25
ATOM     25  S   UNL     1       8.938   3.710  24.137  0.00  0.00    +0.251 S 
ATOM     26  O   UNL     1       8.812   4.608  25.264  0.00  0.00    -0.108 OA
ATOM     27  O   UNL     1       7.824   3.396  23.273  0.00  0.00    -0.108 OA
BRANCH  25  28
ATOM     28  O   UNL     1      10.052   4.335  23.151  0.00  0.00    -0.222 OA
ATOM     29  H   UNL     1      10.666   4.864  23.699  0.00  0.00    +0.248 HD
ENDBRANCH  25  28
ENDBRANCH  24  25
ENDBRANCH   7  24
BRANCH  11  30
ATOM     30  O   UNL     1       6.969  -4.889  23.545  0.00  0.00    -0.317 OA
BRANCH  30  31
ATOM     31  S   UNL     1       5.557  -5.544  23.101  0.00  0.00    +0.252 S 
ATOM     32  O   UNL     1       4.714  -4.551  22.478  0.00  0.00    -0.108 OA
ATOM     33  O   UNL     1       5.098  -6.385  24.185  0.00  0.00    -0.108 OA
BRANCH  31  34
ATOM     34  O   UNL     1       5.997  -6.584  21.948  0.00  0.00    -0.222 OA
ATOM     35  H   UNL     1       6.590  -7.248  22.354  0.00  0.00    +0.248 HD
ENDBRANCH  31  34
ENDBRANCH  30  31
ENDBRANCH  11  30
TORSDOF 10
ENDMDL
