MODEL 1
REMARK VINA RESULT:      -7.0      0.000      0.000
REMARK  Name = 
REMARK  17 active torsions:
REMARK  status: ('A' for Active; 'I' for Inactive)
REMARK    1  A    between atoms: C_4  and  O_53
REMARK    2  A    between atoms: C_6  and  C_7
REMARK    3  A    between atoms: C_8  and  O_20
REMARK    4  A    between atoms: C_12  and  O_19
REMARK    5  A    between atoms: C_14  and  O_18
REMARK    6  A    between atoms: O_20  and  C_21
REMARK    7  A    between atoms: C_23  and  O_36
REMARK    8  A    between atoms: C_25  and  O_35
REMARK    9  A    between atoms: C_27  and  O_34
REMARK   10  A    between atoms: C_29  and  C_32
REMARK   11  A    between atoms: C_32  and  O_33
REMARK   12  A    between atoms: O_36  and  C_37
REMARK   13  A    between atoms: C_39  and  O_52
REMARK   14  A    between atoms: C_41  and  O_51
REMARK   15  A    between atoms: C_43  and  O_50
REMARK   16  A    between atoms: C_45  and  C_48
REMARK   17  A    between atoms: C_48  and  O_49
REMARK                            x       y       z     vdW  Elec       q    Type
REMARK                         _______ _______ _______ _____ _____    ______ ____
ROOT
ATOM      1  C   UNL     1       8.020   0.537  24.220  0.00  0.00    +0.340 C 
ATOM      2  O   UNL     1       7.741   0.161  22.868  0.00  0.00    -0.331 OA
ATOM      3  C   UNL     1       8.815  -0.079  21.966  0.00  0.00    +0.179 C 
ATOM      4  C   UNL     1       9.900   0.995  22.084  0.00  0.00    +0.177 C 
ATOM      5  C   UNL     1      10.325   1.306  23.532  0.00  0.00    +0.180 C 
ATOM      6  C   UNL     1       9.181   1.545  24.525  0.00  0.00    +0.221 C 
ENDROOT
BRANCH   5   7
ATOM      7  O   UNL     1      11.192   0.298  24.055  0.00  0.00    -0.386 OA
ATOM      8  H   UNL     1      12.081   0.690  24.225  0.00  0.00    +0.210 HD
ENDBRANCH   5   7
BRANCH   4   9
ATOM      9  O   UNL     1       9.432   2.154  21.374  0.00  0.00    -0.386 OA
ATOM     10  H   UNL     1       9.440   2.027  20.408  0.00  0.00    +0.210 HD
ENDBRANCH   4   9
BRANCH   6  11
ATOM     11  O   UNL     1       8.711   2.935  24.579  0.00  0.00    -0.337 OA
BRANCH  11  12
ATOM     12  C   UNL     1       7.579   3.190  25.455  0.00  0.00    +0.282 C 
ATOM     13  O   UNL     1       6.322   3.353  24.756  0.00  0.00    -0.341 OA
ATOM     14  C   UNL     1       6.190   4.468  23.847  0.00  0.00    +0.178 C 
ATOM     15  C   UNL     1       6.826   5.811  24.312  0.00  0.00    +0.177 C 
ATOM     16  C   UNL     1       8.051   5.618  25.211  0.00  0.00    +0.179 C 
ATOM     17  C   UNL     1       7.768   4.508  26.235  0.00  0.00    +0.201 C 
BRANCH  17  18
ATOM     18  O   UNL     1       6.605   4.845  27.018  0.00  0.00    -0.384 OA
ATOM     19  H   UNL     1       6.724   4.446  27.906  0.00  0.00    +0.210 HD
ENDBRANCH  17  18
BRANCH  16  20
ATOM     20  O   UNL     1       9.223   5.350  24.431  0.00  0.00    -0.386 OA
ATOM     21  H   UNL     1       9.230   4.392  24.214  0.00  0.00    +0.210 HD
ENDBRANCH  16  20
BRANCH  15  22
ATOM     22  O   UNL     1       5.840   6.583  25.029  0.00  0.00    -0.386 OA
ATOM     23  H   UNL     1       5.552   7.320  24.454  0.00  0.00    +0.210 HD
ENDBRANCH  15  22
BRANCH  14  24
ATOM     24  C   UNL     1       6.635   4.002  22.458  0.00  0.00    +0.190 C 
BRANCH  24  25
ATOM     25  O   UNL     1       7.930   4.466  22.109  0.00  0.00    -0.392 OA
ATOM     26  H   UNL     1       8.066   5.324  22.549  0.00  0.00    +0.210 HD
ENDBRANCH  24  25
ENDBRANCH  14  24
ENDBRANCH  11  12
ENDBRANCH   6  11
BRANCH   3  27
ATOM     27  C   UNL     1       9.318  -1.524  22.015  0.00  0.00    +0.190 C 
BRANCH  27  28
ATOM     28  O   UNL     1      10.712  -1.583  21.776  0.00  0.00    -0.392 OA
ATOM     29  H   UNL     1      10.965  -2.522  21.890  0.00  0.00    +0.210 HD
ENDBRANCH  27  28
ENDBRANCH   3  27
BRANCH   1  30
ATOM     30  O   UNL     1       8.177  -0.621  25.082  0.00  0.00    -0.453 OA
BRANCH  30  41
ATOM     31  C   UNL     1       6.083  -1.828  25.493  0.00  0.00    +0.181 A 
ATOM     32  O   UNL     1       4.803  -1.759  26.130  0.00  0.00    -0.451 OA
ATOM     33  C   UNL     1       4.491  -0.619  26.866  0.00  0.00    +0.147 A 
ATOM     34  C   UNL     1       5.490   0.184  27.388  0.00  0.00    +0.109 A 
ATOM     35  C   UNL     1       5.222   1.366  28.104  0.00  0.00    +0.135 A 
ATOM     36  C   UNL     1       3.917   1.744  28.351  0.00  0.00    +0.091 A 
ATOM     37  C   UNL     1       2.899   0.928  27.868  0.00  0.00    +0.124 A 
ATOM     38  C   UNL     1       6.835  -0.238  27.128  0.00  0.00    +0.238 A 
ATOM     39  O   UNL     1       7.738   0.105  27.887  0.00  0.00    -0.283 OA
ATOM     40  C   UNL     1       3.175  -0.245  27.129  0.00  0.00    +0.092 A 
ATOM     41  C   UNL     1       7.054  -0.934  25.829  0.00  0.00    +0.214 A 
BRANCH  31  43
ATOM     42  C   UNL     1       6.847  -4.173  24.763  0.00  0.00    +0.011 A 
ATOM     43  C   UNL     1       6.228  -2.942  24.454  0.00  0.00    +0.024 A 
ATOM     44  C   UNL     1       5.861  -2.814  23.102  0.00  0.00    +0.056 A 
ATOM     45  C   UNL     1       6.004  -3.883  22.185  0.00  0.00    +0.110 A 
ATOM     46  C   UNL     1       6.575  -5.129  22.480  0.00  0.00    -0.066 A 
ATOM     47  O   UNL     1       6.688  -6.059  21.617  0.00  0.00    -0.871 OA
ATOM     48  C   UNL     1       7.017  -5.217  23.805  0.00  0.00    -0.004 A 
BRANCH  45  49
ATOM     49  O   UNL     1       5.571  -3.722  20.883  0.00  0.00    -0.507 OA
ATOM     50  H   UNL     1       5.476  -2.734  20.884  0.00  0.00    +0.292 HD
ENDBRANCH  45  49
ENDBRANCH  31  43
BRANCH  37  51
ATOM     51  O   UNL     1       1.594   1.272  28.109  0.00  0.00    -0.507 OA
ATOM     52  H   UNL     1       1.179   0.574  28.625  0.00  0.00    +0.292 HD
ENDBRANCH  37  51
BRANCH  35  53
ATOM     53  O   UNL     1       6.207   2.205  28.553  0.00  0.00    -0.506 OA
ATOM     54  H   UNL     1       7.047   1.921  28.134  0.00  0.00    +0.292 HD
ENDBRANCH  35  53
ENDBRANCH  30  41
ENDBRANCH   1  30
TORSDOF 17
ENDMDL
MODEL 2
REMARK VINA RESULT:      -6.7      1.629      5.158
REMARK  Name = 
REMARK  17 active torsions:
REMARK  status: ('A' for Active; 'I' for Inactive)
REMARK    1  A    between atoms: C_4  and  O_53
REMARK    2  A    between atoms: C_6  and  C_7
REMARK    3  A    between atoms: C_8  and  O_20
REMARK    4  A    between atoms: C_12  and  O_19
REMARK    5  A    between atoms: C_14  and  O_18
REMARK    6  A    between atoms: O_20  and  C_21
REMARK    7  A    between atoms: C_23  and  O_36
REMARK    8  A    between atoms: C_25  and  O_35
REMARK    9  A    between atoms: C_27  and  O_34
REMARK   10  A    between atoms: C_29  and  C_32
REMARK   11  A    between atoms: C_32  and  O_33
REMARK   12  A    between atoms: O_36  and  C_37
REMARK   13  A    between atoms: C_39  and  O_52
REMARK   14  A    between atoms: C_41  and  O_51
REMARK   15  A    between atoms: C_43  and  O_50
REMARK   16  A    between atoms: C_45  and  C_48
REMARK   17  A    between atoms: C_48  and  O_49
REMARK                            x       y       z     vdW  Elec       q    Type
REMARK                         _______ _______ _______ _____ _____    ______ ____
ROOT
ATOM      1  C   UNL     1       7.718   0.272  23.516  0.00  0.00    +0.340 C 
ATOM      2  O   UNL     1       8.315   0.065  22.232  0.00  0.00    -0.331 OA
ATOM      3  C   UNL     1       9.720   0.226  22.073  0.00  0.00    +0.179 C 
ATOM      4  C   UNL     1      10.227   1.486  22.780  0.00  0.00    +0.177 C 
ATOM      5  C   UNL     1       9.713   1.650  24.223  0.00  0.00    +0.180 C 
ATOM      6  C   UNL     1       8.204   1.458  24.419  0.00  0.00    +0.221 C 
ENDROOT
BRANCH   5   7
ATOM      7  O   UNL     1      10.412   0.797  25.132  0.00  0.00    -0.386 OA
ATOM      8  H   UNL     1      10.400  -0.126  24.785  0.00  0.00    +0.210 HD
ENDBRANCH   5   7
BRANCH   4   9
ATOM      9  O   UNL     1       9.902   2.605  21.938  0.00  0.00    -0.386 OA
ATOM     10  H   UNL     1      10.689   3.123  21.687  0.00  0.00    +0.210 HD
ENDBRANCH   4   9
BRANCH   6  11
ATOM     11  O   UNL     1       7.410   2.675  24.215  0.00  0.00    -0.337 OA
BRANCH  11  12
ATOM     12  C   UNL     1       6.728   2.783  22.935  0.00  0.00    +0.282 C 
ATOM     13  O   UNL     1       7.318   3.752  22.036  0.00  0.00    -0.341 OA
ATOM     14  C   UNL     1       7.315   5.141  22.437  0.00  0.00    +0.178 C 
ATOM     15  C   UNL     1       6.024   5.647  23.144  0.00  0.00    +0.177 C 
ATOM     16  C   UNL     1       5.306   4.555  23.942  0.00  0.00    +0.179 C 
ATOM     17  C   UNL     1       5.271   3.256  23.121  0.00  0.00    +0.201 C 
BRANCH  17  18
ATOM     18  O   UNL     1       4.612   3.488  21.860  0.00  0.00    -0.384 OA
ATOM     19  H   UNL     1       5.111   4.192  21.394  0.00  0.00    +0.210 HD
ENDBRANCH  17  18
BRANCH  16  20
ATOM     20  O   UNL     1       5.917   4.369  25.224  0.00  0.00    -0.386 OA
ATOM     21  H   UNL     1       6.709   4.949  25.270  0.00  0.00    +0.210 HD
ENDBRANCH  16  20
BRANCH  15  22
ATOM     22  O   UNL     1       5.115   6.175  22.156  0.00  0.00    -0.386 OA
ATOM     23  H   UNL     1       5.122   5.575  21.383  0.00  0.00    +0.210 HD
ENDBRANCH  15  22
BRANCH  14  24
ATOM     24  C   UNL     1       8.610   5.414  23.207  0.00  0.00    +0.190 C 
BRANCH  24  25
ATOM     25  O   UNL     1       8.436   5.357  24.615  0.00  0.00    -0.392 OA
ATOM     26  H   UNL     1       9.004   4.644  24.956  0.00  0.00    +0.210 HD
ENDBRANCH  24  25
ENDBRANCH  14  24
ENDBRANCH  11  12
ENDBRANCH   6  11
BRANCH   3  27
ATOM     27  C   UNL     1      10.501  -1.054  22.382  0.00  0.00    +0.190 C 
BRANCH  27  28
ATOM     28  O   UNL     1       9.694  -2.200  22.187  0.00  0.00    -0.392 OA
ATOM     29  H   UNL     1      10.158  -2.745  21.518  0.00  0.00    +0.210 HD
ENDBRANCH  27  28
ENDBRANCH   3  27
BRANCH   1  30
ATOM     30  O   UNL     1       7.711  -0.942  24.313  0.00  0.00    -0.453 OA
BRANCH  30  41
ATOM     31  C   UNL     1       5.516  -1.685  25.110  0.00  0.00    +0.181 A 
ATOM     32  O   UNL     1       4.581  -2.769  25.112  0.00  0.00    -0.451 OA
ATOM     33  C   UNL     1       4.902  -3.920  24.398  0.00  0.00    +0.147 A 
ATOM     34  C   UNL     1       5.802  -3.876  23.347  0.00  0.00    +0.109 A 
ATOM     35  C   UNL     1       6.187  -5.020  22.623  0.00  0.00    +0.135 A 
ATOM     36  C   UNL     1       5.627  -6.247  22.921  0.00  0.00    +0.091 A 
ATOM     37  C   UNL     1       4.690  -6.304  23.949  0.00  0.00    +0.124 A 
ATOM     38  C   UNL     1       6.359  -2.588  23.051  0.00  0.00    +0.238 A 
ATOM     39  O   UNL     1       6.774  -2.351  21.920  0.00  0.00    -0.283 OA
ATOM     40  C   UNL     1       4.327  -5.156  24.688  0.00  0.00    +0.092 A 
ATOM     41  C   UNL     1       6.545  -1.681  24.218  0.00  0.00    +0.214 A 
BRANCH  31  43
ATOM     42  C   UNL     1       5.482  -0.824  27.534  0.00  0.00    +0.011 A 
ATOM     43  C   UNL     1       5.251  -0.602  26.159  0.00  0.00    +0.024 A 
ATOM     44  C   UNL     1       4.674   0.649  25.873  0.00  0.00    +0.056 A 
ATOM     45  C   UNL     1       4.464   1.622  26.881  0.00  0.00    +0.110 A 
ATOM     46  C   UNL     1       4.727   1.439  28.246  0.00  0.00    -0.066 A 
ATOM     47  O   UNL     1       4.514   2.344  29.117  0.00  0.00    -0.871 OA
ATOM     48  C   UNL     1       5.220   0.161  28.532  0.00  0.00    -0.004 A 
BRANCH  45  49
ATOM     49  O   UNL     1       3.949   2.856  26.535  0.00  0.00    -0.507 OA
ATOM     50  H   UNL     1       4.403   2.961  25.658  0.00  0.00    +0.292 HD
ENDBRANCH  45  49
ENDBRANCH  31  43
BRANCH  37  51
ATOM     51  O   UNL     1       4.109  -7.507  24.259  0.00  0.00    -0.507 OA
ATOM     52  H   UNL     1       4.747  -8.047  24.733  0.00  0.00    +0.292 HD
ENDBRANCH  37  51
BRANCH  35  53
ATOM     53  O   UNL     1       7.136  -4.994  21.636  0.00  0.00    -0.506 OA
ATOM     54  H   UNL     1       7.178  -5.893  21.246  0.00  0.00    +0.292 HD
ENDBRANCH  35  53
ENDBRANCH  30  41
ENDBRANCH   1  30
TORSDOF 17
ENDMDL
MODEL 3
REMARK VINA RESULT:      -6.7      1.251      1.554
REMARK  Name = 
REMARK  17 active torsions:
REMARK  status: ('A' for Active; 'I' for Inactive)
REMARK    1  A    between atoms: C_4  and  O_53
REMARK    2  A    between atoms: C_6  and  C_7
REMARK    3  A    between atoms: C_8  and  O_20
REMARK    4  A    between atoms: C_12  and  O_19
REMARK    5  A    between atoms: C_14  and  O_18
REMARK    6  A    between atoms: O_20  and  C_21
REMARK    7  A    between atoms: C_23  and  O_36
REMARK    8  A    between atoms: C_25  and  O_35
REMARK    9  A    between atoms: C_27  and  O_34
REMARK   10  A    between atoms: C_29  and  C_32
REMARK   11  A    between atoms: C_32  and  O_33
REMARK   12  A    between atoms: O_36  and  C_37
REMARK   13  A    between atoms: C_39  and  O_52
REMARK   14  A    between atoms: C_41  and  O_51
REMARK   15  A    between atoms: C_43  and  O_50
REMARK   16  A    between atoms: C_45  and  C_48
REMARK   17  A    between atoms: C_48  and  O_49
REMARK                            x       y       z     vdW  Elec       q    Type
REMARK                         _______ _______ _______ _____ _____    ______ ____
ROOT
ATOM      1  C   UNL     1       8.027   0.112  23.769  0.00  0.00    +0.340 C 
ATOM      2  O   UNL     1       8.342  -0.327  22.444  0.00  0.00    -0.331 OA
ATOM      3  C   UNL     1       9.675  -0.216  21.961  0.00  0.00    +0.179 C 
ATOM      4  C   UNL     1      10.289   1.143  22.309  0.00  0.00    +0.177 C 
ATOM      5  C   UNL     1      10.091   1.567  23.778  0.00  0.00    +0.180 C 
ATOM      6  C   UNL     1       8.665   1.432  24.324  0.00  0.00    +0.221 C 
ENDROOT
BRANCH   5   7
ATOM      7  O   UNL     1      10.990   0.879  24.650  0.00  0.00    -0.386 OA
ATOM      8  H   UNL     1      11.469   1.537  25.208  0.00  0.00    +0.210 HD
ENDBRANCH   5   7
BRANCH   4   9
ATOM      9  O   UNL     1       9.764   2.100  21.373  0.00  0.00    -0.386 OA
ATOM     10  H   UNL     1      10.236   2.952  21.407  0.00  0.00    +0.210 HD
ENDBRANCH   4   9
BRANCH   6  11
ATOM     11  O   UNL     1       7.814   2.604  24.084  0.00  0.00    -0.337 OA
BRANCH  11  12
ATOM     12  C   UNL     1       6.534   2.343  23.446  0.00  0.00    +0.282 C 
ATOM     13  O   UNL     1       6.194   3.287  22.404  0.00  0.00    -0.341 OA
ATOM     14  C   UNL     1       6.008   4.671  22.777  0.00  0.00    +0.178 C 
ATOM     15  C   UNL     1       5.263   4.925  24.119  0.00  0.00    +0.177 C 
ATOM     16  C   UNL     1       5.484   3.814  25.151  0.00  0.00    +0.179 C 
ATOM     17  C   UNL     1       5.377   2.444  24.462  0.00  0.00    +0.201 C 
BRANCH  17  18
ATOM     18  O   UNL     1       4.088   2.310  23.830  0.00  0.00    -0.384 OA
ATOM     19  H   UNL     1       4.223   1.818  22.993  0.00  0.00    +0.210 HD
ENDBRANCH  17  18
BRANCH  16  20
ATOM     20  O   UNL     1       6.734   3.984  25.829  0.00  0.00    -0.386 OA
ATOM     21  H   UNL     1       7.455   3.812  25.184  0.00  0.00    +0.210 HD
ENDBRANCH  16  20
BRANCH  15  22
ATOM     22  O   UNL     1       3.848   5.048  23.865  0.00  0.00    -0.386 OA
ATOM     23  H   UNL     1       3.409   4.232  24.178  0.00  0.00    +0.210 HD
ENDBRANCH  15  22
BRANCH  14  24
ATOM     24  C   UNL     1       7.360   5.380  22.656  0.00  0.00    +0.190 C 
BRANCH  24  25
ATOM     25  O   UNL     1       7.540   6.014  21.399  0.00  0.00    -0.392 OA
ATOM     26  H   UNL     1       7.005   5.532  20.744  0.00  0.00    +0.210 HD
ENDBRANCH  24  25
ENDBRANCH  14  24
ENDBRANCH  11  12
ENDBRANCH   6  11
BRANCH   3  27
ATOM     27  C   UNL     1      10.537  -1.430  22.315  0.00  0.00    +0.190 C 
BRANCH  27  28
ATOM     28  O   UNL     1       9.732  -2.523  22.717  0.00  0.00    -0.392 OA
ATOM     29  H   UNL     1       9.146  -2.719  21.957  0.00  0.00    +0.210 HD
ENDBRANCH  27  28
ENDBRANCH   3  27
BRANCH   1  30
ATOM     30  O   UNL     1       8.222  -0.942  24.749  0.00  0.00    -0.453 OA
BRANCH  30  41
ATOM     31  C   UNL     1       6.056  -1.828  25.480  0.00  0.00    +0.181 A 
ATOM     32  O   UNL     1       4.902  -1.568  26.286  0.00  0.00    -0.451 OA
ATOM     33  C   UNL     1       4.863  -0.388  27.024  0.00  0.00    +0.147 A 
ATOM     34  C   UNL     1       6.029   0.266  27.379  0.00  0.00    +0.109 A 
ATOM     35  C   UNL     1       6.037   1.481  28.091  0.00  0.00    +0.135 A 
ATOM     36  C   UNL     1       4.847   2.047  28.504  0.00  0.00    +0.091 A 
ATOM     37  C   UNL     1       3.665   1.383  28.190  0.00  0.00    +0.124 A 
ATOM     38  C   UNL     1       7.251  -0.349  26.948  0.00  0.00    +0.238 A 
ATOM     39  O   UNL     1       8.291  -0.134  27.565  0.00  0.00    -0.283 OA
ATOM     40  C   UNL     1       3.664   0.176  27.455  0.00  0.00    +0.092 A 
ATOM     41  C   UNL     1       7.183  -1.081  25.653  0.00  0.00    +0.214 A 
BRANCH  31  43
ATOM     42  C   UNL     1       5.887  -4.318  24.856  0.00  0.00    +0.011 A 
ATOM     43  C   UNL     1       5.894  -2.961  24.464  0.00  0.00    +0.024 A 
ATOM     44  C   UNL     1       5.838  -2.770  23.072  0.00  0.00    +0.056 A 
ATOM     45  C   UNL     1       5.673  -3.854  22.176  0.00  0.00    +0.110 A 
ATOM     46  C   UNL     1       5.619  -5.206  22.546  0.00  0.00    -0.066 A 
ATOM     47  O   UNL     1       5.475  -6.148  21.700  0.00  0.00    -0.871 OA
ATOM     48  C   UNL     1       5.762  -5.392  23.925  0.00  0.00    -0.004 A 
BRANCH  45  49
ATOM     49  O   UNL     1       5.563  -3.605  20.822  0.00  0.00    -0.507 OA
ATOM     50  H   UNL     1       6.476  -3.884  20.550  0.00  0.00    +0.292 HD
ENDBRANCH  45  49
ENDBRANCH  31  43
BRANCH  37  51
ATOM     51  O   UNL     1       2.469   1.915  28.599  0.00  0.00    -0.507 OA
ATOM     52  H   UNL     1       2.216   1.507  29.432  0.00  0.00    +0.292 HD
ENDBRANCH  37  51
BRANCH  35  53
ATOM     53  O   UNL     1       7.185   2.172  28.374  0.00  0.00    -0.506 OA
ATOM     54  H   UNL     1       7.711   1.625  28.995  0.00  0.00    +0.292 HD
ENDBRANCH  35  53
ENDBRANCH  30  41
ENDBRANCH   1  30
TORSDOF 17
ENDMDL
MODEL 4
REMARK VINA RESULT:      -6.6      1.691      5.077
REMARK  Name = 
REMARK  17 active torsions:
REMARK  status: ('A' for Active; 'I' for Inactive)
REMARK    1  A    between atoms: C_4  and  O_53
REMARK    2  A    between atoms: C_6  and  C_7
REMARK    3  A    between atoms: C_8  and  O_20
REMARK    4  A    between atoms: C_12  and  O_19
REMARK    5  A    between atoms: C_14  and  O_18
REMARK    6  A    between atoms: O_20  and  C_21
REMARK    7  A    between atoms: C_23  and  O_36
REMARK    8  A    between atoms: C_25  and  O_35
REMARK    9  A    between atoms: C_27  and  O_34
REMARK   10  A    between atoms: C_29  and  C_32
REMARK   11  A    between atoms: C_32  and  O_33
REMARK   12  A    between atoms: O_36  and  C_37
REMARK   13  A    between atoms: C_39  and  O_52
REMARK   14  A    between atoms: C_41  and  O_51
REMARK   15  A    between atoms: C_43  and  O_50
REMARK   16  A    between atoms: C_45  and  C_48
REMARK   17  A    between atoms: C_48  and  O_49
REMARK                            x       y       z     vdW  Elec       q    Type
REMARK                         _______ _______ _______ _____ _____    ______ ____
ROOT
ATOM      1  C   UNL     1       7.692  -0.137  23.377  0.00  0.00    +0.340 C 
ATOM      2  O   UNL     1       8.330  -0.422  22.128  0.00  0.00    -0.331 OA
ATOM      3  C   UNL     1       9.715  -0.140  21.963  0.00  0.00    +0.179 C 
ATOM      4  C   UNL     1      10.081   1.235  22.528  0.00  0.00    +0.177 C 
ATOM      5  C   UNL     1       9.526   1.504  23.941  0.00  0.00    +0.180 C 
ATOM      6  C   UNL     1       8.041   1.183  24.146  0.00  0.00    +0.221 C 
ENDROOT
BRANCH   5   7
ATOM      7  O   UNL     1      10.290   0.831  24.944  0.00  0.00    -0.386 OA
ATOM      8  H   UNL     1       9.844   0.936  25.817  0.00  0.00    +0.210 HD
ENDBRANCH   5   7
BRANCH   4   9
ATOM      9  O   UNL     1       9.663   2.217  21.565  0.00  0.00    -0.386 OA
ATOM     10  H   UNL     1       9.888   3.125  21.837  0.00  0.00    +0.210 HD
ENDBRANCH   4   9
BRANCH   6  11
ATOM     11  O   UNL     1       7.134   2.285  23.802  0.00  0.00    -0.337 OA
BRANCH  11  12
ATOM     12  C   UNL     1       7.332   3.526  24.533  0.00  0.00    +0.282 C 
ATOM     13  O   UNL     1       6.111   4.096  25.062  0.00  0.00    -0.341 OA
ATOM     14  C   UNL     1       5.098   4.520  24.123  0.00  0.00    +0.178 C 
ATOM     15  C   UNL     1       5.610   5.224  22.833  0.00  0.00    +0.177 C 
ATOM     16  C   UNL     1       6.995   4.740  22.392  0.00  0.00    +0.179 C 
ATOM     17  C   UNL     1       7.914   4.623  23.618  0.00  0.00    +0.201 C 
BRANCH  17  18
ATOM     18  O   UNL     1       8.005   5.896  24.289  0.00  0.00    -0.384 OA
ATOM     19  H   UNL     1       7.099   6.144  24.569  0.00  0.00    +0.210 HD
ENDBRANCH  17  18
BRANCH  16  20
ATOM     20  O   UNL     1       6.901   3.509  21.665  0.00  0.00    -0.386 OA
ATOM     21  H   UNL     1       7.772   3.058  21.718  0.00  0.00    +0.210 HD
ENDBRANCH  16  20
BRANCH  15  22
ATOM     22  O   UNL     1       5.666   6.649  23.056  0.00  0.00    -0.386 OA
ATOM     23  H   UNL     1       4.755   7.003  22.996  0.00  0.00    +0.210 HD
ENDBRANCH  15  22
BRANCH  14  24
ATOM     24  C   UNL     1       4.160   3.336  23.871  0.00  0.00    +0.190 C 
BRANCH  24  25
ATOM     25  O   UNL     1       4.385   2.713  22.616  0.00  0.00    -0.392 OA
ATOM     26  H   UNL     1       4.595   3.411  21.971  0.00  0.00    +0.210 HD
ENDBRANCH  24  25
ENDBRANCH  14  24
ENDBRANCH  11  12
ENDBRANCH   6  11
BRANCH   3  27
ATOM     27  C   UNL     1      10.613  -1.292  22.418  0.00  0.00    +0.190 C 
BRANCH  27  28
ATOM     28  O   UNL     1       9.863  -2.478  22.602  0.00  0.00    -0.392 OA
ATOM     29  H   UNL     1       9.548  -2.456  23.530  0.00  0.00    +0.210 HD
ENDBRANCH  27  28
ENDBRANCH   3  27
BRANCH   1  30
ATOM     30  O   UNL     1       7.791  -1.251  24.303  0.00  0.00    -0.453 OA
BRANCH  30  41
ATOM     31  C   UNL     1       5.777  -1.645  25.643  0.00  0.00    +0.181 A 
ATOM     32  O   UNL     1       4.797  -2.619  26.018  0.00  0.00    -0.451 OA
ATOM     33  C   UNL     1       4.883  -3.891  25.460  0.00  0.00    +0.147 A 
ATOM     34  C   UNL     1       5.535  -4.096  24.257  0.00  0.00    +0.109 A 
ATOM     35  C   UNL     1       5.680  -5.369  23.674  0.00  0.00    +0.135 A 
ATOM     36  C   UNL     1       5.121  -6.476  24.283  0.00  0.00    +0.091 A 
ATOM     37  C   UNL     1       4.428  -6.284  25.474  0.00  0.00    +0.124 A 
ATOM     38  C   UNL     1       6.095  -2.929  23.639  0.00  0.00    +0.238 A 
ATOM     39  O   UNL     1       6.271  -2.909  22.424  0.00  0.00    -0.283 OA
ATOM     40  C   UNL     1       4.307  -5.006  26.065  0.00  0.00    +0.092 A 
ATOM     41  C   UNL     1       6.587  -1.878  24.573  0.00  0.00    +0.214 A 
BRANCH  31  43
ATOM     42  C   UNL     1       4.831   0.614  26.432  0.00  0.00    +0.011 A 
ATOM     43  C   UNL     1       5.815  -0.394  26.525  0.00  0.00    +0.024 A 
ATOM     44  C   UNL     1       6.859  -0.089  27.417  0.00  0.00    +0.056 A 
ATOM     45  C   UNL     1       6.838   1.077  28.221  0.00  0.00    +0.110 A 
ATOM     46  C   UNL     1       5.848   2.069  28.177  0.00  0.00    -0.066 A 
ATOM     47  O   UNL     1       5.877   3.106  28.917  0.00  0.00    -0.871 OA
ATOM     48  C   UNL     1       4.859   1.800  27.225  0.00  0.00    -0.004 A 
BRANCH  45  49
ATOM     49  O   UNL     1       7.859   1.297  29.124  0.00  0.00    -0.507 OA
ATOM     50  H   UNL     1       8.249   2.109  28.706  0.00  0.00    +0.292 HD
ENDBRANCH  45  49
ENDBRANCH  31  43
BRANCH  37  51
ATOM     51  O   UNL     1       3.852  -7.362  26.095  0.00  0.00    -0.507 OA
ATOM     52  H   UNL     1       3.183  -7.734  25.513  0.00  0.00    +0.292 HD
ENDBRANCH  37  51
BRANCH  35  53
ATOM     53  O   UNL     1       6.393  -5.587  22.525  0.00  0.00    -0.506 OA
ATOM     54  H   UNL     1       7.042  -6.298  22.713  0.00  0.00    +0.292 HD
ENDBRANCH  35  53
ENDBRANCH  30  41
ENDBRANCH   1  30
TORSDOF 17
ENDMDL
MODEL 5
REMARK VINA RESULT:      -6.5      2.415      5.552
REMARK  Name = 
REMARK  17 active torsions:
REMARK  status: ('A' for Active; 'I' for Inactive)
REMARK    1  A    between atoms: C_4  and  O_53
REMARK    2  A    between atoms: C_6  and  C_7
REMARK    3  A    between atoms: C_8  and  O_20
REMARK    4  A    between atoms: C_12  and  O_19
REMARK    5  A    between atoms: C_14  and  O_18
REMARK    6  A    between atoms: O_20  and  C_21
REMARK    7  A    between atoms: C_23  and  O_36
REMARK    8  A    between atoms: C_25  and  O_35
REMARK    9  A    between atoms: C_27  and  O_34
REMARK   10  A    between atoms: C_29  and  C_32
REMARK   11  A    between atoms: C_32  and  O_33
REMARK   12  A    between atoms: O_36  and  C_37
REMARK   13  A    between atoms: C_39  and  O_52
REMARK   14  A    between atoms: C_41  and  O_51
REMARK   15  A    between atoms: C_43  and  O_50
REMARK   16  A    between atoms: C_45  and  C_48
REMARK   17  A    between atoms: C_48  and  O_49
REMARK                            x       y       z     vdW  Elec       q    Type
REMARK                         _______ _______ _______ _____ _____    ______ ____
ROOT
ATOM      1  C   UNL     1       6.082  -0.827  25.562  0.00  0.00    +0.340 C 
ATOM      2  O   UNL     1       6.063  -0.862  26.993  0.00  0.00    -0.331 OA
ATOM      3  C   UNL     1       5.313   0.110  27.712  0.00  0.00    +0.179 C 
ATOM      4  C   UNL     1       5.522   1.517  27.144  0.00  0.00    +0.177 C 
ATOM      5  C   UNL     1       5.396   1.603  25.611  0.00  0.00    +0.180 C 
ATOM      6  C   UNL     1       6.178   0.549  24.818  0.00  0.00    +0.221 C 
ENDROOT
BRANCH   5   7
ATOM      7  O   UNL     1       4.029   1.580  25.193  0.00  0.00    -0.386 OA
ATOM      8  H   UNL     1       3.479   2.063  25.854  0.00  0.00    +0.210 HD
ENDBRANCH   5   7
BRANCH   4   9
ATOM      9  O   UNL     1       6.789   1.988  27.631  0.00  0.00    -0.386 OA
ATOM     10  H   UNL     1       7.414   2.189  26.910  0.00  0.00    +0.210 HD
ENDBRANCH   4   9
BRANCH   6  11
ATOM     11  O   UNL     1       7.566   0.926  24.521  0.00  0.00    -0.337 OA
BRANCH  11  12
ATOM     12  C   UNL     1       7.799   1.520  23.215  0.00  0.00    +0.282 C 
ATOM     13  O   UNL     1       9.109   1.238  22.668  0.00  0.00    -0.341 OA
ATOM     14  C   UNL     1      10.263   1.740  23.379  0.00  0.00    +0.178 C 
ATOM     15  C   UNL     1      10.130   3.169  23.982  0.00  0.00    +0.177 C 
ATOM     16  C   UNL     1       8.694   3.522  24.383  0.00  0.00    +0.179 C 
ATOM     17  C   UNL     1       7.724   3.059  23.285  0.00  0.00    +0.201 C 
BRANCH  17  18
ATOM     18  O   UNL     1       8.072   3.676  22.029  0.00  0.00    -0.384 OA
ATOM     19  H   UNL     1       7.437   4.408  21.876  0.00  0.00    +0.210 HD
ENDBRANCH  17  18
BRANCH  16  20
ATOM     20  O   UNL     1       8.368   2.967  25.663  0.00  0.00    -0.386 OA
ATOM     21  H   UNL     1       7.551   3.407  25.985  0.00  0.00    +0.210 HD
ENDBRANCH  16  20
BRANCH  15  22
ATOM     22  O   UNL     1      10.595   4.138  23.019  0.00  0.00    -0.386 OA
ATOM     23  H   UNL     1      10.360   3.818  22.125  0.00  0.00    +0.210 HD
ENDBRANCH  15  22
BRANCH  14  24
ATOM     24  C   UNL     1      10.706   0.668  24.378  0.00  0.00    +0.190 C 
BRANCH  24  25
ATOM     25  O   UNL     1      10.019   0.751  25.617  0.00  0.00    -0.392 OA
ATOM     26  H   UNL     1      10.679   0.682  26.328  0.00  0.00    +0.210 HD
ENDBRANCH  24  25
ENDBRANCH  14  24
ENDBRANCH  11  12
ENDBRANCH   6  11
BRANCH   3  27
ATOM     27  C   UNL     1       3.853  -0.301  27.917  0.00  0.00    +0.190 C 
BRANCH  27  28
ATOM     28  O   UNL     1       3.195  -0.468  26.675  0.00  0.00    -0.392 OA
ATOM     29  H   UNL     1       2.879  -1.395  26.660  0.00  0.00    +0.210 HD
ENDBRANCH  27  28
ENDBRANCH   3  27
BRANCH   1  30
ATOM     30  O   UNL     1       4.987  -1.587  24.988  0.00  0.00    -0.453 OA
BRANCH  30  41
ATOM     31  C   UNL     1       6.071  -3.732  24.507  0.00  0.00    +0.181 A 
ATOM     32  O   UNL     1       5.861  -5.142  24.375  0.00  0.00    -0.451 OA
ATOM     33  C   UNL     1       4.583  -5.644  24.604  0.00  0.00    +0.147 A 
ATOM     34  C   UNL     1       3.678  -4.951  25.388  0.00  0.00    +0.109 A 
ATOM     35  C   UNL     1       2.363  -5.400  25.615  0.00  0.00    +0.135 A 
ATOM     36  C   UNL     1       1.942  -6.602  25.081  0.00  0.00    +0.091 A 
ATOM     37  C   UNL     1       2.851  -7.333  24.322  0.00  0.00    +0.124 A 
ATOM     38  C   UNL     1       4.144  -3.712  25.940  0.00  0.00    +0.238 A 
ATOM     39  O   UNL     1       3.633  -3.273  26.966  0.00  0.00    -0.283 OA
ATOM     40  C   UNL     1       4.161  -6.864  24.079  0.00  0.00    +0.092 A 
ATOM     41  C   UNL     1       5.121  -2.960  25.104  0.00  0.00    +0.214 A 
BRANCH  31  43
ATOM     42  C   UNL     1       8.620  -3.397  24.616  0.00  0.00    +0.011 A 
ATOM     43  C   UNL     1       7.395  -3.220  23.935  0.00  0.00    +0.024 A 
ATOM     44  C   UNL     1       7.504  -2.457  22.758  0.00  0.00    +0.056 A 
ATOM     45  C   UNL     1       8.757  -2.019  22.265  0.00  0.00    +0.110 A 
ATOM     46  C   UNL     1       9.990  -2.222  22.901  0.00  0.00    -0.066 A 
ATOM     47  O   UNL     1      11.092  -1.803  22.420  0.00  0.00    -0.871 OA
ATOM     48  C   UNL     1       9.863  -2.907  24.115  0.00  0.00    -0.004 A 
BRANCH  45  49
ATOM     49  O   UNL     1       8.812  -1.325  21.072  0.00  0.00    -0.507 OA
ATOM     50  H   UNL     1       8.832  -2.102  20.454  0.00  0.00    +0.292 HD
ENDBRANCH  45  49
ENDBRANCH  31  43
BRANCH  37  51
ATOM     51  O   UNL     1       2.464  -8.536  23.790  0.00  0.00    -0.507 OA
ATOM     52  H   UNL     1       2.480  -8.470  22.830  0.00  0.00    +0.292 HD
ENDBRANCH  37  51
BRANCH  35  53
ATOM     53  O   UNL     1       1.440  -4.678  26.323  0.00  0.00    -0.506 OA
ATOM     54  H   UNL     1       1.806  -3.777  26.449  0.00  0.00    +0.292 HD
ENDBRANCH  35  53
ENDBRANCH  30  41
ENDBRANCH   1  30
TORSDOF 17
ENDMDL
MODEL 6
REMARK VINA RESULT:      -6.5      1.235      1.806
REMARK  Name = 
REMARK  17 active torsions:
REMARK  status: ('A' for Active; 'I' for Inactive)
REMARK    1  A    between atoms: C_4  and  O_53
REMARK    2  A    between atoms: C_6  and  C_7
REMARK    3  A    between atoms: C_8  and  O_20
REMARK    4  A    between atoms: C_12  and  O_19
REMARK    5  A    between atoms: C_14  and  O_18
REMARK    6  A    between atoms: O_20  and  C_21
REMARK    7  A    between atoms: C_23  and  O_36
REMARK    8  A    between atoms: C_25  and  O_35
REMARK    9  A    between atoms: C_27  and  O_34
REMARK   10  A    between atoms: C_29  and  C_32
REMARK   11  A    between atoms: C_32  and  O_33
REMARK   12  A    between atoms: O_36  and  C_37
REMARK   13  A    between atoms: C_39  and  O_52
REMARK   14  A    between atoms: C_41  and  O_51
REMARK   15  A    between atoms: C_43  and  O_50
REMARK   16  A    between atoms: C_45  and  C_48
REMARK   17  A    between atoms: C_48  and  O_49
REMARK                            x       y       z     vdW  Elec       q    Type
REMARK                         _______ _______ _______ _____ _____    ______ ____
ROOT
ATOM      1  C   UNL     1       7.983   0.075  23.676  0.00  0.00    +0.340 C 
ATOM      2  O   UNL     1       8.358  -0.276  22.340  0.00  0.00    -0.331 OA
ATOM      3  C   UNL     1       9.711  -0.131  21.926  0.00  0.00    +0.179 C 
ATOM      4  C   UNL     1      10.303   1.203  22.389  0.00  0.00    +0.177 C 
ATOM      5  C   UNL     1      10.038   1.530  23.871  0.00  0.00    +0.180 C 
ATOM      6  C   UNL     1       8.589   1.357  24.343  0.00  0.00    +0.221 C 
ENDROOT
BRANCH   5   7
ATOM      7  O   UNL     1      10.900   0.788  24.736  0.00  0.00    -0.386 OA
ATOM      8  H   UNL     1      10.420  -0.006  25.071  0.00  0.00    +0.210 HD
ENDBRANCH   5   7
BRANCH   4   9
ATOM      9  O   UNL     1       9.815   2.218  21.494  0.00  0.00    -0.386 OA
ATOM     10  H   UNL     1       8.849   2.335  21.555  0.00  0.00    +0.210 HD
ENDBRANCH   4   9
BRANCH   6  11
ATOM     11  O   UNL     1       7.745   2.541  24.142  0.00  0.00    -0.337 OA
BRANCH  11  12
ATOM     12  C   UNL     1       6.471   2.310  23.481  0.00  0.00    +0.282 C 
ATOM     13  O   UNL     1       6.154   3.286  22.460  0.00  0.00    -0.341 OA
ATOM     14  C   UNL     1       5.977   4.661  22.868  0.00  0.00    +0.178 C 
ATOM     15  C   UNL     1       5.217   4.888  24.207  0.00  0.00    +0.177 C 
ATOM     16  C   UNL     1       5.413   3.747  25.211  0.00  0.00    +0.179 C 
ATOM     17  C   UNL     1       5.302   2.397  24.484  0.00  0.00    +0.201 C 
BRANCH  17  18
ATOM     18  O   UNL     1       4.020   2.293  23.832  0.00  0.00    -0.384 OA
ATOM     19  H   UNL     1       3.866   1.344  23.640  0.00  0.00    +0.210 HD
ENDBRANCH  17  18
BRANCH  16  20
ATOM     20  O   UNL     1       6.656   3.885  25.909  0.00  0.00    -0.386 OA
ATOM     21  H   UNL     1       6.470   3.832  26.873  0.00  0.00    +0.210 HD
ENDBRANCH  16  20
BRANCH  15  22
ATOM     22  O   UNL     1       3.807   5.032  23.937  0.00  0.00    -0.386 OA
ATOM     23  H   UNL     1       3.693   5.749  23.281  0.00  0.00    +0.210 HD
ENDBRANCH  15  22
BRANCH  14  24
ATOM     24  C   UNL     1       7.338   5.359  22.784  0.00  0.00    +0.190 C 
BRANCH  24  25
ATOM     25  O   UNL     1       7.978   5.471  24.045  0.00  0.00    -0.392 OA
ATOM     26  H   UNL     1       7.863   6.386  24.356  0.00  0.00    +0.210 HD
ENDBRANCH  24  25
ENDBRANCH  14  24
ENDBRANCH  11  12
ENDBRANCH   6  11
BRANCH   3  27
ATOM     27  C   UNL     1      10.562  -1.365  22.238  0.00  0.00    +0.190 C 
BRANCH  27  28
ATOM     28  O   UNL     1       9.747  -2.466  22.593  0.00  0.00    -0.392 OA
ATOM     29  H   UNL     1       8.829  -2.203  22.375  0.00  0.00    +0.210 HD
ENDBRANCH  27  28
ENDBRANCH   3  27
BRANCH   1  30
ATOM     30  O   UNL     1       8.139  -1.040  24.592  0.00  0.00    -0.453 OA
BRANCH  30  41
ATOM     31  C   UNL     1       5.954  -2.011  25.135  0.00  0.00    +0.181 A 
ATOM     32  O   UNL     1       4.748  -1.824  25.883  0.00  0.00    -0.451 OA
ATOM     33  C   UNL     1       4.638  -0.693  26.688  0.00  0.00    +0.147 A 
ATOM     34  C   UNL     1       5.765  -0.040  27.152  0.00  0.00    +0.109 A 
ATOM     35  C   UNL     1       5.703   1.129  27.935  0.00  0.00    +0.135 A 
ATOM     36  C   UNL     1       4.478   1.645  28.309  0.00  0.00    +0.091 A 
ATOM     37  C   UNL     1       3.331   0.979  27.884  0.00  0.00    +0.124 A 
ATOM     38  C   UNL     1       7.024  -0.603  26.760  0.00  0.00    +0.238 A 
ATOM     39  O   UNL     1       8.020  -0.407  27.451  0.00  0.00    -0.283 OA
ATOM     40  C   UNL     1       3.403  -0.180  27.078  0.00  0.00    +0.092 A 
ATOM     41  C   UNL     1       7.051  -1.255  25.421  0.00  0.00    +0.214 A 
BRANCH  31  43
ATOM     42  C   UNL     1       6.073  -2.772  22.681  0.00  0.00    +0.011 A 
ATOM     43  C   UNL     1       5.879  -3.082  24.045  0.00  0.00    +0.024 A 
ATOM     44  C   UNL     1       5.520  -4.422  24.278  0.00  0.00    +0.056 A 
ATOM     45  C   UNL     1       5.479  -5.377  23.233  0.00  0.00    +0.110 A 
ATOM     46  C   UNL     1       5.711  -5.101  21.878  0.00  0.00    -0.066 A 
ATOM     47  O   UNL     1       5.656  -5.995  20.972  0.00  0.00    -0.871 OA
ATOM     48  C   UNL     1       5.983  -3.748  21.644  0.00  0.00    -0.004 A 
BRANCH  45  49
ATOM     49  O   UNL     1       5.179  -6.693  23.528  0.00  0.00    -0.507 OA
ATOM     50  H   UNL     1       4.192  -6.640  23.431  0.00  0.00    +0.292 HD
ENDBRANCH  45  49
ENDBRANCH  31  43
BRANCH  37  51
ATOM     51  O   UNL     1       2.102   1.461  28.250  0.00  0.00    -0.507 OA
ATOM     52  H   UNL     1       2.085   1.578  29.204  0.00  0.00    +0.292 HD
ENDBRANCH  37  51
BRANCH  35  53
ATOM     53  O   UNL     1       6.815   1.823  28.329  0.00  0.00    -0.506 OA
ATOM     54  H   UNL     1       7.594   1.378  27.933  0.00  0.00    +0.292 HD
ENDBRANCH  35  53
ENDBRANCH  30  41
ENDBRANCH   1  30
TORSDOF 17
ENDMDL
MODEL 7
REMARK VINA RESULT:      -6.4      2.486      7.746
REMARK  Name = 
REMARK  17 active torsions:
REMARK  status: ('A' for Active; 'I' for Inactive)
REMARK    1  A    between atoms: C_4  and  O_53
REMARK    2  A    between atoms: C_6  and  C_7
REMARK    3  A    between atoms: C_8  and  O_20
REMARK    4  A    between atoms: C_12  and  O_19
REMARK    5  A    between atoms: C_14  and  O_18
REMARK    6  A    between atoms: O_20  and  C_21
REMARK    7  A    between atoms: C_23  and  O_36
REMARK    8  A    between atoms: C_25  and  O_35
REMARK    9  A    between atoms: C_27  and  O_34
REMARK   10  A    between atoms: C_29  and  C_32
REMARK   11  A    between atoms: C_32  and  O_33
REMARK   12  A    between atoms: O_36  and  C_37
REMARK   13  A    between atoms: C_39  and  O_52
REMARK   14  A    between atoms: C_41  and  O_51
REMARK   15  A    between atoms: C_43  and  O_50
REMARK   16  A    between atoms: C_45  and  C_48
REMARK   17  A    between atoms: C_48  and  O_49
REMARK                            x       y       z     vdW  Elec       q    Type
REMARK                         _______ _______ _______ _____ _____    ______ ____
ROOT
ATOM      1  C   UNL     1       5.671  -1.278  26.216  0.00  0.00    +0.340 C 
ATOM      2  O   UNL     1       5.156  -0.449  25.169  0.00  0.00    -0.331 OA
ATOM      3  C   UNL     1       5.051   0.955  25.368  0.00  0.00    +0.179 C 
ATOM      4  C   UNL     1       4.467   1.287  26.745  0.00  0.00    +0.177 C 
ATOM      5  C   UNL     1       5.116   0.512  27.908  0.00  0.00    +0.180 C 
ATOM      6  C   UNL     1       5.260  -1.001  27.703  0.00  0.00    +0.221 C 
ENDROOT
BRANCH   5   7
ATOM      7  O   UNL     1       6.390   1.057  28.259  0.00  0.00    -0.386 OA
ATOM      8  H   UNL     1       6.569   0.877  29.212  0.00  0.00    +0.210 HD
ENDBRANCH   5   7
BRANCH   4   9
ATOM      9  O   UNL     1       3.046   1.091  26.663  0.00  0.00    -0.386 OA
ATOM     10  H   UNL     1       2.708   0.513  27.371  0.00  0.00    +0.210 HD
ENDBRANCH   4   9
BRANCH   6  11
ATOM     11  O   UNL     1       4.083  -1.778  28.109  0.00  0.00    -0.337 OA
BRANCH  11  12
ATOM     12  C   UNL     1       4.318  -3.182  28.406  0.00  0.00    +0.282 C 
ATOM     13  O   UNL     1       4.029  -4.072  27.302  0.00  0.00    -0.341 OA
ATOM     14  C   UNL     1       2.666  -4.143  26.827  0.00  0.00    +0.178 C 
ATOM     15  C   UNL     1       1.557  -4.120  27.919  0.00  0.00    +0.177 C 
ATOM     16  C   UNL     1       1.957  -3.326  29.167  0.00  0.00    +0.179 C 
ATOM     17  C   UNL     1       3.405  -3.667  29.552  0.00  0.00    +0.201 C 
BRANCH  17  18
ATOM     18  O   UNL     1       3.533  -5.085  29.782  0.00  0.00    -0.384 OA
ATOM     19  H   UNL     1       4.175  -5.205  30.513  0.00  0.00    +0.210 HD
ENDBRANCH  17  18
BRANCH  16  20
ATOM     20  O   UNL     1       1.767  -1.921  28.964  0.00  0.00    -0.386 OA
ATOM     21  H   UNL     1       1.932  -1.726  28.016  0.00  0.00    +0.210 HD
ENDBRANCH  16  20
BRANCH  15  22
ATOM     22  O   UNL     1       1.243  -5.473  28.310  0.00  0.00    -0.386 OA
ATOM     23  H   UNL     1       1.605  -5.623  29.207  0.00  0.00    +0.210 HD
ENDBRANCH  15  22
BRANCH  14  24
ATOM     24  C   UNL     1       2.493  -3.095  25.724  0.00  0.00    +0.190 C 
BRANCH  24  25
ATOM     25  O   UNL     1       2.037  -1.846  26.217  0.00  0.00    -0.392 OA
ATOM     26  H   UNL     1       2.269  -1.165  25.562  0.00  0.00    +0.210 HD
ENDBRANCH  24  25
ENDBRANCH  14  24
ENDBRANCH  11  12
ENDBRANCH   6  11
BRANCH   3  27
ATOM     27  C   UNL     1       6.337   1.703  25.008  0.00  0.00    +0.190 C 
BRANCH  27  28
ATOM     28  O   UNL     1       6.494   2.858  25.811  0.00  0.00    -0.392 OA
ATOM     29  H   UNL     1       6.136   3.603  25.284  0.00  0.00    +0.210 HD
ENDBRANCH  27  28
ENDBRANCH   3  27
BRANCH   1  30
ATOM     30  O   UNL     1       7.117  -1.396  26.151  0.00  0.00    -0.453 OA
BRANCH  30  41
ATOM     31  C   UNL     1       8.253  -1.975  24.058  0.00  0.00    +0.181 A 
ATOM     32  O   UNL     1       8.306  -2.916  22.981  0.00  0.00    -0.451 OA
ATOM     33  C   UNL     1       7.438  -4.005  23.011  0.00  0.00    +0.147 A 
ATOM     34  C   UNL     1       6.907  -4.456  24.207  0.00  0.00    +0.109 A 
ATOM     35  C   UNL     1       5.996  -5.527  24.282  0.00  0.00    +0.135 A 
ATOM     36  C   UNL     1       5.632  -6.205  23.135  0.00  0.00    +0.091 A 
ATOM     37  C   UNL     1       6.186  -5.791  21.928  0.00  0.00    +0.124 A 
ATOM     38  C   UNL     1       7.311  -3.742  25.383  0.00  0.00    +0.238 A 
ATOM     39  O   UNL     1       7.285  -4.304  26.475  0.00  0.00    -0.283 OA
ATOM     40  C   UNL     1       7.081  -4.699  21.858  0.00  0.00    +0.092 A 
ATOM     41  C   UNL     1       7.575  -2.288  25.197  0.00  0.00    +0.214 A 
BRANCH  31  43
ATOM     42  C   UNL     1       9.905  -0.122  24.734  0.00  0.00    +0.011 A 
ATOM     43  C   UNL     1       8.990  -0.658  23.801  0.00  0.00    +0.024 A 
ATOM     44  C   UNL     1       8.759   0.172  22.690  0.00  0.00    +0.056 A 
ATOM     45  C   UNL     1       9.480   1.375  22.493  0.00  0.00    +0.110 A 
ATOM     46  C   UNL     1      10.424   1.904  23.384  0.00  0.00    -0.066 A 
ATOM     47  O   UNL     1      11.043   2.996  23.166  0.00  0.00    -0.871 OA
ATOM     48  C   UNL     1      10.585   1.115  24.529  0.00  0.00    -0.004 A 
BRANCH  45  49
ATOM     49  O   UNL     1       9.256   2.122  21.353  0.00  0.00    -0.507 OA
ATOM     50  H   UNL     1       9.264   1.381  20.692  0.00  0.00    +0.292 HD
ENDBRANCH  45  49
ENDBRANCH  31  43
BRANCH  37  51
ATOM     51  O   UNL     1       5.852  -6.453  20.775  0.00  0.00    -0.507 OA
ATOM     52  H   UNL     1       5.301  -7.209  20.999  0.00  0.00    +0.292 HD
ENDBRANCH  37  51
BRANCH  35  53
ATOM     53  O   UNL     1       5.407  -5.924  25.452  0.00  0.00    -0.506 OA
ATOM     54  H   UNL     1       6.116  -6.272  26.034  0.00  0.00    +0.292 HD
ENDBRANCH  35  53
ENDBRANCH  30  41
ENDBRANCH   1  30
TORSDOF 17
ENDMDL
MODEL 8
REMARK VINA RESULT:      -6.2      1.292      1.635
REMARK  Name = 
REMARK  17 active torsions:
REMARK  status: ('A' for Active; 'I' for Inactive)
REMARK    1  A    between atoms: C_4  and  O_53
REMARK    2  A    between atoms: C_6  and  C_7
REMARK    3  A    between atoms: C_8  and  O_20
REMARK    4  A    between atoms: C_12  and  O_19
REMARK    5  A    between atoms: C_14  and  O_18
REMARK    6  A    between atoms: O_20  and  C_21
REMARK    7  A    between atoms: C_23  and  O_36
REMARK    8  A    between atoms: C_25  and  O_35
REMARK    9  A    between atoms: C_27  and  O_34
REMARK   10  A    between atoms: C_29  and  C_32
REMARK   11  A    between atoms: C_32  and  O_33
REMARK   12  A    between atoms: O_36  and  C_37
REMARK   13  A    between atoms: C_39  and  O_52
REMARK   14  A    between atoms: C_41  and  O_51
REMARK   15  A    between atoms: C_43  and  O_50
REMARK   16  A    between atoms: C_45  and  C_48
REMARK   17  A    between atoms: C_48  and  O_49
REMARK                            x       y       z     vdW  Elec       q    Type
REMARK                         _______ _______ _______ _____ _____    ______ ____
ROOT
ATOM      1  C   UNL     1       7.880   0.865  24.331  0.00  0.00    +0.340 C 
ATOM      2  O   UNL     1       7.539   0.340  23.044  0.00  0.00    -0.331 OA
ATOM      3  C   UNL     1       8.549  -0.244  22.230  0.00  0.00    +0.179 C 
ATOM      4  C   UNL     1       9.824   0.602  22.219  0.00  0.00    +0.177 C 
ATOM      5  C   UNL     1      10.295   1.052  23.615  0.00  0.00    +0.180 C 
ATOM      6  C   UNL     1       9.216   1.664  24.517  0.00  0.00    +0.221 C 
ENDROOT
BRANCH   5   7
ATOM      7  O   UNL     1      10.943  -0.008  24.320  0.00  0.00    -0.386 OA
ATOM      8  H   UNL     1      11.136   0.284  25.242  0.00  0.00    +0.210 HD
ENDBRANCH   5   7
BRANCH   4   9
ATOM      9  O   UNL     1       9.597   1.702  21.321  0.00  0.00    -0.386 OA
ATOM     10  H   UNL     1       9.271   2.497  21.781  0.00  0.00    +0.210 HD
ENDBRANCH   4   9
BRANCH   6  11
ATOM     11  O   UNL     1       9.029   3.109  24.338  0.00  0.00    -0.337 OA
BRANCH  11  12
ATOM     12  C   UNL     1       8.146   3.760  25.292  0.00  0.00    +0.282 C 
ATOM     13  O   UNL     1       6.781   3.897  24.829  0.00  0.00    -0.341 OA
ATOM     14  C   UNL     1       6.539   4.719  23.665  0.00  0.00    +0.178 C 
ATOM     15  C   UNL     1       7.368   6.032  23.568  0.00  0.00    +0.177 C 
ATOM     16  C   UNL     1       8.744   5.927  24.233  0.00  0.00    +0.179 C 
ATOM     17  C   UNL     1       8.610   5.203  25.582  0.00  0.00    +0.201 C 
BRANCH  17  18
ATOM     18  O   UNL     1       7.683   5.910  26.430  0.00  0.00    -0.384 OA
ATOM     19  H   UNL     1       7.756   6.863  26.211  0.00  0.00    +0.210 HD
ENDBRANCH  17  18
BRANCH  16  20
ATOM     20  O   UNL     1       9.686   5.285  23.365  0.00  0.00    -0.386 OA
ATOM     21  H   UNL     1      10.579   5.376  23.765  0.00  0.00    +0.210 HD
ENDBRANCH  16  20
BRANCH  15  22
ATOM     22  O   UNL     1       6.633   7.108  24.189  0.00  0.00    -0.386 OA
ATOM     23  H   UNL     1       5.916   6.717  24.728  0.00  0.00    +0.210 HD
ENDBRANCH  15  22
BRANCH  14  24
ATOM     24  C   UNL     1       6.622   3.822  22.427  0.00  0.00    +0.190 C 
BRANCH  24  25
ATOM     25  O   UNL     1       7.928   3.768  21.873  0.00  0.00    -0.392 OA
ATOM     26  H   UNL     1       8.553   4.066  22.556  0.00  0.00    +0.210 HD
ENDBRANCH  24  25
ENDBRANCH  14  24
ENDBRANCH  11  12
ENDBRANCH   6  11
BRANCH   3  27
ATOM     27  C   UNL     1       8.757  -1.733  22.521  0.00  0.00    +0.190 C 
BRANCH  27  28
ATOM     28  O   UNL     1       9.110  -1.939  23.876  0.00  0.00    -0.392 OA
ATOM     29  H   UNL     1      10.085  -2.029  23.889  0.00  0.00    +0.210 HD
ENDBRANCH  27  28
ENDBRANCH   3  27
BRANCH   1  30
ATOM     30  O   UNL     1       7.801  -0.149  25.367  0.00  0.00    -0.453 OA
BRANCH  30  41
ATOM     31  C   UNL     1       5.578  -1.022  25.919  0.00  0.00    +0.181 A 
ATOM     32  O   UNL     1       4.277  -0.677  26.406  0.00  0.00    -0.451 OA
ATOM     33  C   UNL     1       4.038   0.644  26.774  0.00  0.00    +0.147 A 
ATOM     34  C   UNL     1       5.080   1.479  27.137  0.00  0.00    +0.109 A 
ATOM     35  C   UNL     1       4.891   2.832  27.478  0.00  0.00    +0.135 A 
ATOM     36  C   UNL     1       3.618   3.366  27.505  0.00  0.00    +0.091 A 
ATOM     37  C   UNL     1       2.553   2.531  27.181  0.00  0.00    +0.124 A 
ATOM     38  C   UNL     1       6.390   0.896  27.113  0.00  0.00    +0.238 A 
ATOM     39  O   UNL     1       7.277   1.364  27.821  0.00  0.00    -0.283 OA
ATOM     40  C   UNL     1       2.753   1.181  26.815  0.00  0.00    +0.092 A 
ATOM     41  C   UNL     1       6.612  -0.150  26.076  0.00  0.00    +0.214 A 
BRANCH  31  43
ATOM     42  C   UNL     1       5.363  -2.567  23.872  0.00  0.00    +0.011 A 
ATOM     43  C   UNL     1       5.671  -2.391  25.239  0.00  0.00    +0.024 A 
ATOM     44  C   UNL     1       5.968  -3.588  25.914  0.00  0.00    +0.056 A 
ATOM     45  C   UNL     1       6.055  -4.827  25.234  0.00  0.00    +0.110 A 
ATOM     46  C   UNL     1       5.797  -5.019  23.870  0.00  0.00    -0.066 A 
ATOM     47  O   UNL     1       5.883  -6.156  23.303  0.00  0.00    -0.871 OA
ATOM     48  C   UNL     1       5.418  -3.836  23.223  0.00  0.00    -0.004 A 
BRANCH  45  49
ATOM     49  O   UNL     1       6.409  -5.964  25.936  0.00  0.00    -0.507 OA
ATOM     50  H   UNL     1       5.497  -6.310  26.118  0.00  0.00    +0.292 HD
ENDBRANCH  45  49
ENDBRANCH  31  43
BRANCH  37  51
ATOM     51  O   UNL     1       1.276   3.031  27.210  0.00  0.00    -0.507 OA
ATOM     52  H   UNL     1       0.660   2.320  27.013  0.00  0.00    +0.292 HD
ENDBRANCH  37  51
BRANCH  35  53
ATOM     53  O   UNL     1       5.927   3.682  27.760  0.00  0.00    -0.506 OA
ATOM     54  H   UNL     1       6.439   3.286  28.497  0.00  0.00    +0.292 HD
ENDBRANCH  35  53
ENDBRANCH  30  41
ENDBRANCH   1  30
TORSDOF 17
ENDMDL
MODEL 9
REMARK VINA RESULT:      -6.0      2.317      8.498
REMARK  Name = 
REMARK  17 active torsions:
REMARK  status: ('A' for Active; 'I' for Inactive)
REMARK    1  A    between atoms: C_4  and  O_53
REMARK    2  A    between atoms: C_6  and  C_7
REMARK    3  A    between atoms: C_8  and  O_20
REMARK    4  A    between atoms: C_12  and  O_19
REMARK    5  A    between atoms: C_14  and  O_18
REMARK    6  A    between atoms: O_20  and  C_21
REMARK    7  A    between atoms: C_23  and  O_36
REMARK    8  A    between atoms: C_25  and  O_35
REMARK    9  A    between atoms: C_27  and  O_34
REMARK   10  A    between atoms: C_29  and  C_32
REMARK   11  A    between atoms: C_32  and  O_33
REMARK   12  A    between atoms: O_36  and  C_37
REMARK   13  A    between atoms: C_39  and  O_52
REMARK   14  A    between atoms: C_41  and  O_51
REMARK   15  A    between atoms: C_43  and  O_50
REMARK   16  A    between atoms: C_45  and  C_48
REMARK   17  A    between atoms: C_48  and  O_49
REMARK                            x       y       z     vdW  Elec       q    Type
REMARK                         _______ _______ _______ _____ _____    ______ ____
ROOT
ATOM      1  C   UNL     1       5.504  -1.948  26.049  0.00  0.00    +0.340 C 
ATOM      2  O   UNL     1       4.125  -1.589  25.912  0.00  0.00    -0.331 OA
ATOM      3  C   UNL     1       3.143  -2.245  26.705  0.00  0.00    +0.179 C 
ATOM      4  C   UNL     1       3.372  -3.758  26.749  0.00  0.00    +0.177 C 
ATOM      5  C   UNL     1       4.827  -4.167  27.047  0.00  0.00    +0.180 C 
ATOM      6  C   UNL     1       5.903  -3.455  26.218  0.00  0.00    +0.221 C 
ENDROOT
BRANCH   5   7
ATOM      7  O   UNL     1       5.141  -4.027  28.435  0.00  0.00    -0.386 OA
ATOM      8  H   UNL     1       6.067  -3.702  28.527  0.00  0.00    +0.210 HD
ENDBRANCH   5   7
BRANCH   4   9
ATOM      9  O   UNL     1       2.878  -4.299  25.513  0.00  0.00    -0.386 OA
ATOM     10  H   UNL     1       3.412  -5.050  25.195  0.00  0.00    +0.210 HD
ENDBRANCH   4   9
BRANCH   6  11
ATOM     11  O   UNL     1       6.199  -4.100  24.933  0.00  0.00    -0.337 OA
BRANCH  11  12
ATOM     12  C   UNL     1       5.445  -3.615  23.789  0.00  0.00    +0.282 C 
ATOM     13  O   UNL     1       4.460  -4.553  23.295  0.00  0.00    -0.341 OA
ATOM     14  C   UNL     1       4.929  -5.815  22.767  0.00  0.00    +0.178 C 
ATOM     15  C   UNL     1       6.226  -5.760  21.909  0.00  0.00    +0.177 C 
ATOM     16  C   UNL     1       7.178  -4.634  22.328  0.00  0.00    +0.179 C 
ATOM     17  C   UNL     1       6.373  -3.349  22.586  0.00  0.00    +0.201 C 
BRANCH  17  18
ATOM     18  O   UNL     1       5.636  -2.985  21.402  0.00  0.00    -0.384 OA
ATOM     19  H   UNL     1       5.413  -3.815  20.929  0.00  0.00    +0.210 HD
ENDBRANCH  17  18
BRANCH  16  20
ATOM     20  O   UNL     1       7.962  -5.019  23.463  0.00  0.00    -0.386 OA
ATOM     21  H   UNL     1       8.317  -4.203  23.878  0.00  0.00    +0.210 HD
ENDBRANCH  16  20
BRANCH  15  22
ATOM     22  O   UNL     1       5.875  -5.579  20.522  0.00  0.00    -0.386 OA
ATOM     23  H   UNL     1       6.031  -6.424  20.054  0.00  0.00    +0.210 HD
ENDBRANCH  15  22
BRANCH  14  24
ATOM     24  C   UNL     1       4.971  -6.823  23.919  0.00  0.00    +0.190 C 
BRANCH  24  25
ATOM     25  O   UNL     1       3.798  -7.618  23.998  0.00  0.00    -0.392 OA
ATOM     26  H   UNL     1       3.824  -8.260  23.268  0.00  0.00    +0.210 HD
ENDBRANCH  24  25
ENDBRANCH  14  24
ENDBRANCH  11  12
ENDBRANCH   6  11
BRANCH   3  27
ATOM     27  C   UNL     1       2.939  -1.576  28.067  0.00  0.00    +0.190 C 
BRANCH  27  28
ATOM     28  O   UNL     1       3.398  -0.238  28.049  0.00  0.00    -0.392 OA
ATOM     29  H   UNL     1       2.869   0.219  27.362  0.00  0.00    +0.210 HD
ENDBRANCH  27  28
ENDBRANCH   3  27
BRANCH   1  30
ATOM     30  O   UNL     1       6.164  -1.177  27.087  0.00  0.00    -0.453 OA
BRANCH  30  41
ATOM     31  C   UNL     1       7.061   1.068  26.678  0.00  0.00    +0.181 A 
ATOM     32  O   UNL     1       7.891   1.853  25.816  0.00  0.00    -0.451 OA
ATOM     33  C   UNL     1       8.528   1.218  24.753  0.00  0.00    +0.147 A 
ATOM     34  C   UNL     1       8.776  -0.143  24.786  0.00  0.00    +0.109 A 
ATOM     35  C   UNL     1       9.382  -0.834  23.719  0.00  0.00    +0.135 A 
ATOM     36  C   UNL     1       9.797  -0.145  22.597  0.00  0.00    +0.091 A 
ATOM     37  C   UNL     1       9.592   1.231  22.563  0.00  0.00    +0.124 A 
ATOM     38  C   UNL     1       8.346  -0.833  25.967  0.00  0.00    +0.238 A 
ATOM     39  O   UNL     1       8.896  -1.880  26.295  0.00  0.00    -0.283 OA
ATOM     40  C   UNL     1       8.962   1.914  23.627  0.00  0.00    +0.092 A 
ATOM     41  C   UNL     1       7.121  -0.292  26.619  0.00  0.00    +0.214 A 
BRANCH  31  43
ATOM     42  C   UNL     1       6.243   1.768  29.015  0.00  0.00    +0.011 A 
ATOM     43  C   UNL     1       6.152   1.873  27.609  0.00  0.00    +0.024 A 
ATOM     44  C   UNL     1       5.101   2.697  27.168  0.00  0.00    +0.056 A 
ATOM     45  C   UNL     1       4.297   3.433  28.073  0.00  0.00    +0.110 A 
ATOM     46  C   UNL     1       4.399   3.377  29.470  0.00  0.00    -0.066 A 
ATOM     47  O   UNL     1       3.648   4.055  30.244  0.00  0.00    -0.871 OA
ATOM     48  C   UNL     1       5.391   2.489  29.903  0.00  0.00    -0.004 A 
BRANCH  45  49
ATOM     49  O   UNL     1       3.317   4.273  27.582  0.00  0.00    -0.507 OA
ATOM     50  H   UNL     1       3.652   4.357  26.651  0.00  0.00    +0.292 HD
ENDBRANCH  45  49
ENDBRANCH  31  43
BRANCH  37  51
ATOM     51  O   UNL     1      10.006   1.943  21.467  0.00  0.00    -0.507 OA
ATOM     52  H   UNL     1       9.249   2.104  20.897  0.00  0.00    +0.292 HD
ENDBRANCH  37  51
BRANCH  35  53
ATOM     53  O   UNL     1       9.555  -2.193  23.713  0.00  0.00    -0.506 OA
ATOM     54  H   UNL     1       8.941  -2.564  23.045  0.00  0.00    +0.292 HD
ENDBRANCH  35  53
ENDBRANCH  30  41
ENDBRANCH   1  30
TORSDOF 17
ENDMDL
