MODEL 1
REMARK VINA RESULT:      -6.9      0.000      0.000
REMARK  Name = 
REMARK  19 active torsions:
REMARK  status: ('A' for Active; 'I' for Inactive)
REMARK    1  A    between atoms: C_1  and  O_2
REMARK    2  A    between atoms: O_2  and  C_3
REMARK    3  A    between atoms: C_4  and  C_44
REMARK    4  A    between atoms: C_8  and  O_15
REMARK    5  A    between atoms: C_10  and  O_14
REMARK    6  A    between atoms: O_15  and  C_16
REMARK    7  A    between atoms: C_18  and  O_43
REMARK    8  A    between atoms: C_19  and  O_42
REMARK    9  A    between atoms: C_21  and  O_27
REMARK   10  A    between atoms: C_23  and  C_25
REMARK   11  A    between atoms: C_25  and  O_26
REMARK   12  A    between atoms: O_27  and  C_28
REMARK   13  A    between atoms: C_30  and  O_41
REMARK   14  A    between atoms: C_31  and  O_40
REMARK   15  A    between atoms: C_33  and  O_39
REMARK   16  A    between atoms: C_35  and  C_37
REMARK   17  A    between atoms: C_37  and  O_38
REMARK   18  A    between atoms: C_46  and  O_51
REMARK   19  A    between atoms: C_47  and  O_50
REMARK                            x       y       z     vdW  Elec       q    Type
REMARK                         _______ _______ _______ _____ _____    ______ ____
ROOT
ATOM      1  C   UNL     1       7.129  -5.322  25.901  0.00  0.00    +0.339 C 
ATOM      2  O   UNL     1       6.588  -4.532  24.784  0.00  0.00    -0.331 OA
ATOM      3  C   UNL     1       5.473  -3.647  25.050  0.00  0.00    +0.179 C 
ATOM      4  C   UNL     1       4.334  -4.348  25.843  0.00  0.00    +0.184 C 
ATOM      5  C   UNL     1       4.987  -4.753  27.152  0.00  0.00    +0.180 C 
ATOM      6  C   UNL     1       5.966  -5.852  26.798  0.00  0.00    +0.214 C 
ENDROOT
BRANCH   6   7
ATOM      7  O   UNL     1       6.217  -6.513  28.037  0.00  0.00    -0.383 OA
ATOM      8  H   UNL     1       7.177  -6.438  28.224  0.00  0.00    +0.210 HD
ENDBRANCH   6   7
BRANCH   5   9
ATOM      9  O   UNL     1       5.587  -3.691  27.900  0.00  0.00    -0.386 OA
ATOM     10  H   UNL     1       6.302  -4.032  28.474  0.00  0.00    +0.210 HD
ENDBRANCH   5   9
BRANCH   4  11
ATOM     11  O   UNL     1       3.786  -5.528  25.148  0.00  0.00    -0.340 OA
BRANCH  11  12
ATOM     12  C   UNL     1       2.328  -5.590  25.036  0.00  0.00    +0.282 C 
ATOM     13  O   UNL     1       1.707  -6.148  26.212  0.00  0.00    -0.341 OA
ATOM     14  C   UNL     1       1.892  -7.553  26.424  0.00  0.00    +0.178 C 
ATOM     15  C   UNL     1       1.703  -8.414  25.154  0.00  0.00    +0.177 C 
ATOM     16  C   UNL     1       2.377  -7.796  23.937  0.00  0.00    +0.179 C 
ATOM     17  C   UNL     1       1.856  -6.368  23.799  0.00  0.00    +0.201 C 
BRANCH  17  18
ATOM     18  O   UNL     1       2.263  -5.820  22.550  0.00  0.00    -0.384 OA
ATOM     19  H   UNL     1       3.162  -6.117  22.335  0.00  0.00    +0.210 HD
ENDBRANCH  17  18
BRANCH  16  20
ATOM     20  O   UNL     1       3.807  -7.900  24.130  0.00  0.00    -0.386 OA
ATOM     21  H   UNL     1       4.098  -7.107  24.630  0.00  0.00    +0.210 HD
ENDBRANCH  16  20
BRANCH  15  22
ATOM     22  O   UNL     1       2.238  -9.722  25.383  0.00  0.00    -0.386 OA
ATOM     23  H   UNL     1       1.488 -10.248  25.736  0.00  0.00    +0.210 HD
ENDBRANCH  15  22
BRANCH  14  24
ATOM     24  C   UNL     1       0.883  -8.064  27.481  0.00  0.00    +0.190 C 
BRANCH  24  25
ATOM     25  O   UNL     1       1.334  -9.263  28.112  0.00  0.00    -0.392 OA
ATOM     26  H   UNL     1       1.693  -9.853  27.418  0.00  0.00    +0.210 HD
ENDBRANCH  24  25
ENDBRANCH  14  24
ENDBRANCH  11  12
ENDBRANCH   4  11
BRANCH   3  27
ATOM     27  C   UNL     1       4.953  -2.969  23.768  0.00  0.00    +0.190 C 
BRANCH  27  28
ATOM     28  O   UNL     1       4.628  -3.958  22.788  0.00  0.00    -0.392 OA
ATOM     29  H   UNL     1       5.419  -4.503  22.623  0.00  0.00    +0.210 HD
ENDBRANCH  27  28
ENDBRANCH   3  27
BRANCH   1  30
ATOM     30  O   UNL     1       8.175  -4.612  26.599  0.00  0.00    -0.461 OA
BRANCH  30  37
ATOM     31  C   UNL     1       8.529   1.205  23.943  0.00  0.00    +0.211 A 
ATOM     32  C   UNL     1       9.417   0.025  23.619  0.00  0.00    +0.238 A 
ATOM     33  O   UNL     1      10.292   0.075  22.764  0.00  0.00    -0.283 OA
ATOM     34  C   UNL     1       9.212  -1.200  24.415  0.00  0.00    +0.109 A 
ATOM     35  C   UNL     1       8.537  -1.058  25.611  0.00  0.00    +0.147 A 
ATOM     36  C   UNL     1       8.426  -2.152  26.475  0.00  0.00    +0.093 A 
ATOM     37  C   UNL     1       8.672  -3.453  26.035  0.00  0.00    +0.131 A 
ATOM     38  C   UNL     1       9.386  -3.600  24.847  0.00  0.00    +0.092 A 
ATOM     39  O   UNL     1       7.904   0.102  25.999  0.00  0.00    -0.451 OA
ATOM     40  C   UNL     1       9.700  -2.471  24.070  0.00  0.00    +0.135 A 
ATOM     41  C   UNL     1       7.817   1.144  25.082  0.00  0.00    +0.181 A 
BRANCH  41  42
ATOM     42  C   UNL     1       6.905   2.234  25.528  0.00  0.00    +0.025 A 
ATOM     43  C   UNL     1       5.556   2.254  25.129  0.00  0.00    +0.015 A 
ATOM     44  C   UNL     1       4.689   3.237  25.615  0.00  0.00    +0.050 A 
ATOM     45  C   UNL     1       5.151   4.198  26.502  0.00  0.00    +0.158 A 
ATOM     46  C   UNL     1       6.494   4.215  26.875  0.00  0.00    +0.159 A 
ATOM     47  C   UNL     1       7.369   3.229  26.403  0.00  0.00    +0.060 A 
BRANCH  46  48
ATOM     48  O   UNL     1       6.907   5.208  27.727  0.00  0.00    -0.503 OA
ATOM     49  H   UNL     1       6.117   5.554  28.182  0.00  0.00    +0.292 HD
ENDBRANCH  46  48
BRANCH  45  50
ATOM     50  O   UNL     1       4.295   5.139  27.004  0.00  0.00    -0.503 OA
ATOM     51  H   UNL     1       3.598   4.626  27.458  0.00  0.00    +0.292 HD
ENDBRANCH  45  50
ENDBRANCH  41  42
BRANCH  31  53
ATOM     52  C   UNL     1       7.742   2.247  21.934  0.00  0.00    +0.277 C 
ATOM     53  O   UNL     1       8.491   2.344  23.143  0.00  0.00    -0.488 OA
ENDBRANCH  31  53
BRANCH  40  54
ATOM     54  O   UNL     1      10.443  -2.649  22.936  0.00  0.00    -0.506 OA
ATOM     55  H   UNL     1       9.859  -2.827  22.180  0.00  0.00    +0.292 HD
ENDBRANCH  40  54
ENDBRANCH  30  37
ENDBRANCH   1  30
TORSDOF 18
ENDMDL
MODEL 2
REMARK VINA RESULT:      -6.9      1.779      2.876
REMARK  Name = 
REMARK  19 active torsions:
REMARK  status: ('A' for Active; 'I' for Inactive)
REMARK    1  A    between atoms: C_1  and  O_2
REMARK    2  A    between atoms: O_2  and  C_3
REMARK    3  A    between atoms: C_4  and  C_44
REMARK    4  A    between atoms: C_8  and  O_15
REMARK    5  A    between atoms: C_10  and  O_14
REMARK    6  A    between atoms: O_15  and  C_16
REMARK    7  A    between atoms: C_18  and  O_43
REMARK    8  A    between atoms: C_19  and  O_42
REMARK    9  A    between atoms: C_21  and  O_27
REMARK   10  A    between atoms: C_23  and  C_25
REMARK   11  A    between atoms: C_25  and  O_26
REMARK   12  A    between atoms: O_27  and  C_28
REMARK   13  A    between atoms: C_30  and  O_41
REMARK   14  A    between atoms: C_31  and  O_40
REMARK   15  A    between atoms: C_33  and  O_39
REMARK   16  A    between atoms: C_35  and  C_37
REMARK   17  A    between atoms: C_37  and  O_38
REMARK   18  A    between atoms: C_46  and  O_51
REMARK   19  A    between atoms: C_47  and  O_50
REMARK                            x       y       z     vdW  Elec       q    Type
REMARK                         _______ _______ _______ _____ _____    ______ ____
ROOT
ATOM      1  C   UNL     1       8.525  -3.678  23.689  0.00  0.00    +0.339 C 
ATOM      2  O   UNL     1       7.358  -2.836  23.992  0.00  0.00    -0.331 OA
ATOM      3  C   UNL     1       6.863  -2.820  25.354  0.00  0.00    +0.179 C 
ATOM      4  C   UNL     1       6.690  -4.250  25.940  0.00  0.00    +0.184 C 
ATOM      5  C   UNL     1       8.090  -4.834  25.913  0.00  0.00    +0.180 C 
ATOM      6  C   UNL     1       8.422  -5.037  24.449  0.00  0.00    +0.214 C 
ENDROOT
BRANCH   6   7
ATOM      7  O   UNL     1       9.496  -5.975  24.458  0.00  0.00    -0.383 OA
ATOM      8  H   UNL     1      10.314  -5.491  24.216  0.00  0.00    +0.210 HD
ENDBRANCH   6   7
BRANCH   5   9
ATOM      9  O   UNL     1       9.088  -4.084  26.613  0.00  0.00    -0.386 OA
ATOM     10  H   UNL     1       8.674  -3.454  27.236  0.00  0.00    +0.210 HD
ENDBRANCH   5   9
BRANCH   4  11
ATOM     11  O   UNL     1       5.761  -5.088  25.158  0.00  0.00    -0.340 OA
BRANCH  11  12
ATOM     12  C   UNL     1       4.404  -4.566  24.997  0.00  0.00    +0.282 C 
ATOM     13  O   UNL     1       3.449  -5.240  25.843  0.00  0.00    -0.341 OA
ATOM     14  C   UNL     1       3.124  -6.589  25.488  0.00  0.00    +0.178 C 
ATOM     15  C   UNL     1       2.874  -6.803  23.978  0.00  0.00    +0.177 C 
ATOM     16  C   UNL     1       3.904  -6.084  23.118  0.00  0.00    +0.179 C 
ATOM     17  C   UNL     1       3.912  -4.617  23.543  0.00  0.00    +0.201 C 
BRANCH  17  18
ATOM     18  O   UNL     1       4.676  -3.848  22.620  0.00  0.00    -0.384 OA
ATOM     19  H   UNL     1       5.564  -3.687  22.977  0.00  0.00    +0.210 HD
ENDBRANCH  17  18
BRANCH  16  20
ATOM     20  O   UNL     1       5.168  -6.767  23.288  0.00  0.00    -0.386 OA
ATOM     21  H   UNL     1       4.992  -7.604  23.767  0.00  0.00    +0.210 HD
ENDBRANCH  16  20
BRANCH  15  22
ATOM     22  O   UNL     1       2.905  -8.204  23.686  0.00  0.00    -0.386 OA
ATOM     23  H   UNL     1       1.982  -8.514  23.817  0.00  0.00    +0.210 HD
ENDBRANCH  15  22
BRANCH  14  24
ATOM     24  C   UNL     1       1.844  -7.037  26.236  0.00  0.00    +0.190 C 
BRANCH  24  25
ATOM     25  O   UNL     1       1.772  -8.458  26.363  0.00  0.00    -0.392 OA
ATOM     26  H   UNL     1       0.843  -8.728  26.218  0.00  0.00    +0.210 HD
ENDBRANCH  24  25
ENDBRANCH  14  24
ENDBRANCH  11  12
ENDBRANCH   4  11
BRANCH   3  27
ATOM     27  C   UNL     1       5.580  -1.978  25.493  0.00  0.00    +0.190 C 
BRANCH  27  28
ATOM     28  O   UNL     1       5.353  -1.229  24.296  0.00  0.00    -0.392 OA
ATOM     29  H   UNL     1       5.374  -0.280  24.516  0.00  0.00    +0.210 HD
ENDBRANCH  27  28
ENDBRANCH   3  27
BRANCH   1  30
ATOM     30  O   UNL     1       9.764  -2.958  23.872  0.00  0.00    -0.461 OA
BRANCH  30  37
ATOM     31  C   UNL     1       7.664   3.009  24.879  0.00  0.00    +0.211 A 
ATOM     32  C   UNL     1       8.636   2.577  23.804  0.00  0.00    +0.238 A 
ATOM     33  O   UNL     1       9.096   3.360  22.981  0.00  0.00    -0.283 OA
ATOM     34  C   UNL     1       9.048   1.162  23.806  0.00  0.00    +0.109 A 
ATOM     35  C   UNL     1       8.844   0.458  24.977  0.00  0.00    +0.147 A 
ATOM     36  C   UNL     1       9.332  -0.847  25.092  0.00  0.00    +0.093 A 
ATOM     37  C   UNL     1       9.715  -1.581  23.968  0.00  0.00    +0.131 A 
ATOM     38  C   UNL     1       9.958  -0.869  22.795  0.00  0.00    +0.092 A 
ATOM     39  O   UNL     1       8.130   0.947  26.048  0.00  0.00    -0.451 OA
ATOM     40  C   UNL     1       9.675   0.507  22.734  0.00  0.00    +0.135 A 
ATOM     41  C   UNL     1       7.457   2.154  25.898  0.00  0.00    +0.181 A 
BRANCH  41  42
ATOM     42  C   UNL     1       6.531   2.448  27.026  0.00  0.00    +0.025 A 
ATOM     43  C   UNL     1       6.975   3.161  28.155  0.00  0.00    +0.015 A 
ATOM     44  C   UNL     1       6.080   3.500  29.175  0.00  0.00    +0.050 A 
ATOM     45  C   UNL     1       4.744   3.141  29.078  0.00  0.00    +0.158 A 
ATOM     46  C   UNL     1       4.298   2.399  27.985  0.00  0.00    +0.159 A 
ATOM     47  C   UNL     1       5.183   2.064  26.953  0.00  0.00    +0.060 A 
BRANCH  46  48
ATOM     48  O   UNL     1       2.975   2.039  27.955  0.00  0.00    -0.503 OA
ATOM     49  H   UNL     1       2.450   2.824  28.198  0.00  0.00    +0.292 HD
ENDBRANCH  46  48
BRANCH  45  50
ATOM     50  O   UNL     1       3.862   3.502  30.058  0.00  0.00    -0.503 OA
ATOM     51  H   UNL     1       4.422   3.760  30.816  0.00  0.00    +0.292 HD
ENDBRANCH  45  50
ENDBRANCH  41  42
BRANCH  31  53
ATOM     52  C   UNL     1       5.942   4.417  23.991  0.00  0.00    +0.277 C 
ATOM     53  O   UNL     1       7.055   4.259  24.868  0.00  0.00    -0.488 OA
ENDBRANCH  31  53
BRANCH  40  54
ATOM     54  O   UNL     1       9.971   1.181  21.583  0.00  0.00    -0.506 OA
ATOM     55  H   UNL     1      10.932   1.198  21.444  0.00  0.00    +0.292 HD
ENDBRANCH  40  54
ENDBRANCH  30  37
ENDBRANCH   1  30
TORSDOF 18
ENDMDL
MODEL 3
REMARK VINA RESULT:      -6.9      2.395     10.739
REMARK  Name = 
REMARK  19 active torsions:
REMARK  status: ('A' for Active; 'I' for Inactive)
REMARK    1  A    between atoms: C_1  and  O_2
REMARK    2  A    between atoms: O_2  and  C_3
REMARK    3  A    between atoms: C_4  and  C_44
REMARK    4  A    between atoms: C_8  and  O_15
REMARK    5  A    between atoms: C_10  and  O_14
REMARK    6  A    between atoms: O_15  and  C_16
REMARK    7  A    between atoms: C_18  and  O_43
REMARK    8  A    between atoms: C_19  and  O_42
REMARK    9  A    between atoms: C_21  and  O_27
REMARK   10  A    between atoms: C_23  and  C_25
REMARK   11  A    between atoms: C_25  and  O_26
REMARK   12  A    between atoms: O_27  and  C_28
REMARK   13  A    between atoms: C_30  and  O_41
REMARK   14  A    between atoms: C_31  and  O_40
REMARK   15  A    between atoms: C_33  and  O_39
REMARK   16  A    between atoms: C_35  and  C_37
REMARK   17  A    between atoms: C_37  and  O_38
REMARK   18  A    between atoms: C_46  and  O_51
REMARK   19  A    between atoms: C_47  and  O_50
REMARK                            x       y       z     vdW  Elec       q    Type
REMARK                         _______ _______ _______ _____ _____    ______ ____
ROOT
ATOM      1  C   UNL     1       8.041   0.623  23.599  0.00  0.00    +0.339 C 
ATOM      2  O   UNL     1       6.765   1.355  23.609  0.00  0.00    -0.331 OA
ATOM      3  C   UNL     1       6.499   2.278  22.525  0.00  0.00    +0.179 C 
ATOM      4  C   UNL     1       7.693   3.238  22.255  0.00  0.00    +0.184 C 
ATOM      5  C   UNL     1       8.833   2.314  21.870  0.00  0.00    +0.180 C 
ATOM      6  C   UNL     1       9.197   1.563  23.134  0.00  0.00    +0.214 C 
ENDROOT
BRANCH   6   7
ATOM      7  O   UNL     1      10.511   1.068  22.883  0.00  0.00    -0.383 OA
ATOM      8  H   UNL     1      11.129   1.560  23.464  0.00  0.00    +0.210 HD
ENDBRANCH   6   7
BRANCH   5   9
ATOM      9  O   UNL     1       8.580   1.447  20.760  0.00  0.00    -0.386 OA
ATOM     10  H   UNL     1       8.147   0.622  21.057  0.00  0.00    +0.210 HD
ENDBRANCH   5   9
BRANCH   4  11
ATOM     11  O   UNL     1       8.057   4.052  23.430  0.00  0.00    -0.340 OA
BRANCH  11  12
ATOM     12  C   UNL     1       8.304   5.472  23.178  0.00  0.00    +0.282 C 
ATOM     13  O   UNL     1       9.649   5.868  23.522  0.00  0.00    -0.341 OA
ATOM     14  C   UNL     1       9.961   5.917  24.919  0.00  0.00    +0.178 C 
ATOM     15  C   UNL     1       8.875   6.592  25.786  0.00  0.00    +0.177 C 
ATOM     16  C   UNL     1       7.472   6.144  25.400  0.00  0.00    +0.179 C 
ATOM     17  C   UNL     1       7.308   6.390  23.901  0.00  0.00    +0.201 C 
BRANCH  17  18
ATOM     18  O   UNL     1       5.946   6.218  23.527  0.00  0.00    -0.384 OA
ATOM     19  H   UNL     1       5.585   7.054  23.192  0.00  0.00    +0.210 HD
ENDBRANCH  17  18
BRANCH  16  20
ATOM     20  O   UNL     1       7.327   4.763  25.803  0.00  0.00    -0.386 OA
ATOM     21  H   UNL     1       6.892   4.753  26.682  0.00  0.00    +0.210 HD
ENDBRANCH  16  20
BRANCH  15  22
ATOM     22  O   UNL     1       9.110   6.285  27.165  0.00  0.00    -0.386 OA
ATOM     23  H   UNL     1       8.271   5.887  27.486  0.00  0.00    +0.210 HD
ENDBRANCH  15  22
BRANCH  14  24
ATOM     24  C   UNL     1      11.278   6.702  25.137  0.00  0.00    +0.190 C 
BRANCH  24  25
ATOM     25  O   UNL     1      12.321   6.240  24.275  0.00  0.00    -0.392 OA
ATOM     26  H   UNL     1      13.171   6.342  24.748  0.00  0.00    +0.210 HD
ENDBRANCH  24  25
ENDBRANCH  14  24
ENDBRANCH  11  12
ENDBRANCH   4  11
BRANCH   3  27
ATOM     27  C   UNL     1       5.176   3.042  22.727  0.00  0.00    +0.190 C 
BRANCH  27  28
ATOM     28  O   UNL     1       5.125   3.594  24.045  0.00  0.00    -0.392 OA
ATOM     29  H   UNL     1       5.730   4.357  24.085  0.00  0.00    +0.210 HD
ENDBRANCH  27  28
ENDBRANCH   3  27
BRANCH   1  30
ATOM     30  O   UNL     1       7.934  -0.627  22.885  0.00  0.00    -0.461 OA
BRANCH  30  37
ATOM     31  C   UNL     1       5.870  -5.749  26.130  0.00  0.00    +0.211 A 
ATOM     32  C   UNL     1       7.117  -4.948  26.432  0.00  0.00    +0.238 A 
ATOM     33  O   UNL     1       7.848  -5.203  27.381  0.00  0.00    -0.283 OA
ATOM     34  C   UNL     1       7.447  -3.853  25.501  0.00  0.00    +0.109 A 
ATOM     35  C   UNL     1       6.850  -3.895  24.256  0.00  0.00    +0.147 A 
ATOM     36  C   UNL     1       7.220  -2.965  23.281  0.00  0.00    +0.093 A 
ATOM     37  C   UNL     1       7.914  -1.800  23.614  0.00  0.00    +0.131 A 
ATOM     38  C   UNL     1       8.549  -1.769  24.854  0.00  0.00    +0.092 A 
ATOM     39  O   UNL     1       5.850  -4.780  23.918  0.00  0.00    -0.451 OA
ATOM     40  C   UNL     1       8.358  -2.819  25.770  0.00  0.00    +0.135 A 
ATOM     41  C   UNL     1       5.312  -5.582  24.918  0.00  0.00    +0.181 A 
BRANCH  41  42
ATOM     42  C   UNL     1       4.086  -6.307  24.483  0.00  0.00    +0.025 A 
ATOM     43  C   UNL     1       3.282  -5.805  23.443  0.00  0.00    +0.015 A 
ATOM     44  C   UNL     1       2.177  -6.532  22.989  0.00  0.00    +0.050 A 
ATOM     45  C   UNL     1       1.868  -7.759  23.557  0.00  0.00    +0.158 A 
ATOM     46  C   UNL     1       2.631  -8.250  24.615  0.00  0.00    +0.159 A 
ATOM     47  C   UNL     1       3.746  -7.536  25.071  0.00  0.00    +0.060 A 
BRANCH  46  48
ATOM     48  O   UNL     1       2.262  -9.451  25.164  0.00  0.00    -0.503 OA
ATOM     49  H   UNL     1       1.494  -9.782  24.662  0.00  0.00    +0.292 HD
ENDBRANCH  46  48
BRANCH  45  50
ATOM     50  O   UNL     1       0.808  -8.485  23.090  0.00  0.00    -0.503 OA
ATOM     51  H   UNL     1       0.033  -7.901  23.208  0.00  0.00    +0.292 HD
ENDBRANCH  45  50
ENDBRANCH  41  42
BRANCH  31  53
ATOM     52  C   UNL     1       4.740  -6.144  28.206  0.00  0.00    +0.277 C 
ATOM     53  O   UNL     1       5.348  -6.674  27.030  0.00  0.00    -0.488 OA
ENDBRANCH  31  53
BRANCH  40  54
ATOM     54  O   UNL     1       9.035  -2.777  26.957  0.00  0.00    -0.506 OA
ATOM     55  H   UNL     1       8.493  -3.166  27.664  0.00  0.00    +0.292 HD
ENDBRANCH  40  54
ENDBRANCH  30  37
ENDBRANCH   1  30
TORSDOF 18
ENDMDL
MODEL 4
REMARK VINA RESULT:      -6.8      2.568      4.939
REMARK  Name = 
REMARK  19 active torsions:
REMARK  status: ('A' for Active; 'I' for Inactive)
REMARK    1  A    between atoms: C_1  and  O_2
REMARK    2  A    between atoms: O_2  and  C_3
REMARK    3  A    between atoms: C_4  and  C_44
REMARK    4  A    between atoms: C_8  and  O_15
REMARK    5  A    between atoms: C_10  and  O_14
REMARK    6  A    between atoms: O_15  and  C_16
REMARK    7  A    between atoms: C_18  and  O_43
REMARK    8  A    between atoms: C_19  and  O_42
REMARK    9  A    between atoms: C_21  and  O_27
REMARK   10  A    between atoms: C_23  and  C_25
REMARK   11  A    between atoms: C_25  and  O_26
REMARK   12  A    between atoms: O_27  and  C_28
REMARK   13  A    between atoms: C_30  and  O_41
REMARK   14  A    between atoms: C_31  and  O_40
REMARK   15  A    between atoms: C_33  and  O_39
REMARK   16  A    between atoms: C_35  and  C_37
REMARK   17  A    between atoms: C_37  and  O_38
REMARK   18  A    between atoms: C_46  and  O_51
REMARK   19  A    between atoms: C_47  and  O_50
REMARK                            x       y       z     vdW  Elec       q    Type
REMARK                         _______ _______ _______ _____ _____    ______ ____
ROOT
ATOM      1  C   UNL     1       8.423  -1.311  24.755  0.00  0.00    +0.339 C 
ATOM      2  O   UNL     1       9.045  -2.476  25.402  0.00  0.00    -0.331 OA
ATOM      3  C   UNL     1       9.161  -3.701  24.638  0.00  0.00    +0.179 C 
ATOM      4  C   UNL     1       7.827  -4.094  23.940  0.00  0.00    +0.184 C 
ATOM      5  C   UNL     1       7.542  -2.934  23.004  0.00  0.00    +0.180 C 
ATOM      6  C   UNL     1       7.198  -1.761  23.898  0.00  0.00    +0.214 C 
ENDROOT
BRANCH   6   7
ATOM      7  O   UNL     1       6.510  -0.853  23.039  0.00  0.00    -0.383 OA
ATOM      8  H   UNL     1       6.910   0.034  23.164  0.00  0.00    +0.210 HD
ENDBRANCH   6   7
BRANCH   5   9
ATOM      9  O   UNL     1       8.574  -2.632  22.059  0.00  0.00    -0.386 OA
ATOM     10  H   UNL     1       9.412  -2.420  22.518  0.00  0.00    +0.210 HD
ENDBRANCH   5   9
BRANCH   4  11
ATOM     11  O   UNL     1       6.713  -4.284  24.887  0.00  0.00    -0.340 OA
BRANCH  11  12
ATOM     12  C   UNL     1       6.108  -5.616  24.910  0.00  0.00    +0.282 C 
ATOM     13  O   UNL     1       5.036  -5.752  23.954  0.00  0.00    -0.341 OA
ATOM     14  C   UNL     1       3.826  -5.044  24.249  0.00  0.00    +0.178 C 
ATOM     15  C   UNL     1       3.365  -5.163  25.719  0.00  0.00    +0.177 C 
ATOM     16  C   UNL     1       4.521  -5.007  26.697  0.00  0.00    +0.179 C 
ATOM     17  C   UNL     1       5.596  -6.017  26.301  0.00  0.00    +0.201 C 
BRANCH  17  18
ATOM     18  O   UNL     1       6.594  -6.087  27.314  0.00  0.00    -0.384 OA
ATOM     19  H   UNL     1       6.341  -5.530  28.068  0.00  0.00    +0.210 HD
ENDBRANCH  17  18
BRANCH  16  20
ATOM     20  O   UNL     1       4.948  -3.625  26.653  0.00  0.00    -0.386 OA
ATOM     21  H   UNL     1       4.157  -3.075  26.464  0.00  0.00    +0.210 HD
ENDBRANCH  16  20
BRANCH  15  22
ATOM     22  O   UNL     1       2.375  -4.164  25.989  0.00  0.00    -0.386 OA
ATOM     23  H   UNL     1       1.998  -4.406  26.863  0.00  0.00    +0.210 HD
ENDBRANCH  15  22
BRANCH  14  24
ATOM     24  C   UNL     1       2.674  -5.575  23.360  0.00  0.00    +0.190 C 
BRANCH  24  25
ATOM     25  O   UNL     1       3.068  -6.725  22.610  0.00  0.00    -0.392 OA
ATOM     26  H   UNL     1       2.292  -7.316  22.533  0.00  0.00    +0.210 HD
ENDBRANCH  24  25
ENDBRANCH  14  24
ENDBRANCH  11  12
ENDBRANCH   4  11
BRANCH   3  27
ATOM     27  C   UNL     1       9.736  -4.856  25.480  0.00  0.00    +0.190 C 
BRANCH  27  28
ATOM     28  O   UNL     1       9.102  -4.892  26.761  0.00  0.00    -0.392 OA
ATOM     29  H   UNL     1       8.328  -5.482  26.707  0.00  0.00    +0.210 HD
ENDBRANCH  27  28
ENDBRANCH   3  27
BRANCH   1  30
ATOM     30  O   UNL     1       9.398  -0.500  24.064  0.00  0.00    -0.461 OA
BRANCH  30  37
ATOM     31  C   UNL     1       7.363   5.557  23.622  0.00  0.00    +0.211 A 
ATOM     32  C   UNL     1       8.804   5.098  23.588  0.00  0.00    +0.238 A 
ATOM     33  O   UNL     1       9.738   5.875  23.434  0.00  0.00    -0.283 OA
ATOM     34  C   UNL     1       9.049   3.658  23.791  0.00  0.00    +0.109 A 
ATOM     35  C   UNL     1       8.030   2.930  24.374  0.00  0.00    +0.147 A 
ATOM     36  C   UNL     1       8.246   1.592  24.716  0.00  0.00    +0.093 A 
ATOM     37  C   UNL     1       9.322   0.873  24.193  0.00  0.00    +0.131 A 
ATOM     38  C   UNL     1      10.369   1.606  23.638  0.00  0.00    +0.092 A 
ATOM     39  O   UNL     1       6.767   3.429  24.599  0.00  0.00    -0.451 OA
ATOM     40  C   UNL     1      10.252   2.999  23.489  0.00  0.00    +0.135 A 
ATOM     41  C   UNL     1       6.452   4.684  24.089  0.00  0.00    +0.181 A 
BRANCH  41  42
ATOM     42  C   UNL     1       5.000   5.001  24.183  0.00  0.00    +0.025 A 
ATOM     43  C   UNL     1       4.470   5.619  25.330  0.00  0.00    +0.015 A 
ATOM     44  C   UNL     1       3.120   5.984  25.378  0.00  0.00    +0.050 A 
ATOM     45  C   UNL     1       2.295   5.744  24.290  0.00  0.00    +0.158 A 
ATOM     46  C   UNL     1       2.796   5.097  23.162  0.00  0.00    +0.159 A 
ATOM     47  C   UNL     1       4.147   4.737  23.099  0.00  0.00    +0.060 A 
BRANCH  46  48
ATOM     48  O   UNL     1       1.928   4.852  22.128  0.00  0.00    -0.503 OA
ATOM     49  H   UNL     1       1.022   4.981  22.466  0.00  0.00    +0.292 HD
ENDBRANCH  46  48
BRANCH  45  50
ATOM     50  O   UNL     1       0.984   6.132  24.324  0.00  0.00    -0.503 OA
ATOM     51  H   UNL     1       0.756   6.163  25.274  0.00  0.00    +0.292 HD
ENDBRANCH  45  50
ENDBRANCH  41  42
BRANCH  31  53
ATOM     52  C   UNL     1       6.818   7.086  21.860  0.00  0.00    +0.277 C 
ATOM     53  O   UNL     1       6.988   6.845  23.255  0.00  0.00    -0.488 OA
ENDBRANCH  31  53
BRANCH  40  54
ATOM     54  O   UNL     1      11.318   3.690  22.985  0.00  0.00    -0.506 OA
ATOM     55  H   UNL     1      11.008   4.402  22.400  0.00  0.00    +0.292 HD
ENDBRANCH  40  54
ENDBRANCH  30  37
ENDBRANCH   1  30
TORSDOF 18
ENDMDL
MODEL 5
REMARK VINA RESULT:      -6.7      2.307      3.940
REMARK  Name = 
REMARK  19 active torsions:
REMARK  status: ('A' for Active; 'I' for Inactive)
REMARK    1  A    between atoms: C_1  and  O_2
REMARK    2  A    between atoms: O_2  and  C_3
REMARK    3  A    between atoms: C_4  and  C_44
REMARK    4  A    between atoms: C_8  and  O_15
REMARK    5  A    between atoms: C_10  and  O_14
REMARK    6  A    between atoms: O_15  and  C_16
REMARK    7  A    between atoms: C_18  and  O_43
REMARK    8  A    between atoms: C_19  and  O_42
REMARK    9  A    between atoms: C_21  and  O_27
REMARK   10  A    between atoms: C_23  and  C_25
REMARK   11  A    between atoms: C_25  and  O_26
REMARK   12  A    between atoms: O_27  and  C_28
REMARK   13  A    between atoms: C_30  and  O_41
REMARK   14  A    between atoms: C_31  and  O_40
REMARK   15  A    between atoms: C_33  and  O_39
REMARK   16  A    between atoms: C_35  and  C_37
REMARK   17  A    between atoms: C_37  and  O_38
REMARK   18  A    between atoms: C_46  and  O_51
REMARK   19  A    between atoms: C_47  and  O_50
REMARK                            x       y       z     vdW  Elec       q    Type
REMARK                         _______ _______ _______ _____ _____    ______ ____
ROOT
ATOM      1  C   UNL     1       7.606  -2.492  25.116  0.00  0.00    +0.339 C 
ATOM      2  O   UNL     1       7.023  -3.219  26.254  0.00  0.00    -0.331 OA
ATOM      3  C   UNL     1       7.360  -4.618  26.416  0.00  0.00    +0.179 C 
ATOM      4  C   UNL     1       7.199  -5.425  25.096  0.00  0.00    +0.184 C 
ATOM      5  C   UNL     1       8.180  -4.772  24.140  0.00  0.00    +0.180 C 
ATOM      6  C   UNL     1       7.613  -3.399  23.845  0.00  0.00    +0.214 C 
ENDROOT
BRANCH   6   7
ATOM      7  O   UNL     1       8.266  -2.999  22.642  0.00  0.00    -0.383 OA
ATOM      8  H   UNL     1       9.230  -2.975  22.822  0.00  0.00    +0.210 HD
ENDBRANCH   6   7
BRANCH   5   9
ATOM      9  O   UNL     1       9.541  -4.729  24.581  0.00  0.00    -0.386 OA
ATOM     10  H   UNL     1       9.633  -4.148  25.363  0.00  0.00    +0.210 HD
ENDBRANCH   5   9
BRANCH   4  11
ATOM     11  O   UNL     1       5.830  -5.375  24.551  0.00  0.00    -0.340 OA
BRANCH  11  12
ATOM     12  C   UNL     1       4.747  -5.608  25.507  0.00  0.00    +0.282 C 
ATOM     13  O   UNL     1       4.089  -6.875  25.298  0.00  0.00    -0.341 OA
ATOM     14  C   UNL     1       3.268  -6.981  24.129  0.00  0.00    +0.178 C 
ATOM     15  C   UNL     1       2.354  -5.758  23.885  0.00  0.00    +0.177 C 
ATOM     16  C   UNL     1       3.085  -4.442  24.108  0.00  0.00    +0.179 C 
ATOM     17  C   UNL     1       3.697  -4.488  25.506  0.00  0.00    +0.201 C 
BRANCH  17  18
ATOM     18  O   UNL     1       4.187  -3.200  25.865  0.00  0.00    -0.384 OA
ATOM     19  H   UNL     1       3.492  -2.534  25.740  0.00  0.00    +0.210 HD
ENDBRANCH  17  18
BRANCH  16  20
ATOM     20  O   UNL     1       4.044  -4.287  23.036  0.00  0.00    -0.386 OA
ATOM     21  H   UNL     1       3.552  -4.326  22.188  0.00  0.00    +0.210 HD
ENDBRANCH  16  20
BRANCH  15  22
ATOM     22  O   UNL     1       1.850  -5.802  22.545  0.00  0.00    -0.386 OA
ATOM     23  H   UNL     1       1.142  -5.122  22.515  0.00  0.00    +0.210 HD
ENDBRANCH  15  22
BRANCH  14  24
ATOM     24  C   UNL     1       2.354  -8.226  24.238  0.00  0.00    +0.190 C 
BRANCH  24  25
ATOM     25  O   UNL     1       2.709  -9.051  25.349  0.00  0.00    -0.392 OA
ATOM     26  H   UNL     1       3.490  -9.582  25.093  0.00  0.00    +0.210 HD
ENDBRANCH  24  25
ENDBRANCH  14  24
ENDBRANCH  11  12
ENDBRANCH   4  11
BRANCH   3  27
ATOM     27  C   UNL     1       6.595  -5.266  27.587  0.00  0.00    +0.190 C 
BRANCH  27  28
ATOM     28  O   UNL     1       7.390  -6.295  28.182  0.00  0.00    -0.392 OA
ATOM     29  H   UNL     1       7.021  -6.502  29.060  0.00  0.00    +0.210 HD
ENDBRANCH  27  28
ENDBRANCH   3  27
BRANCH   1  30
ATOM     30  O   UNL     1       8.876  -1.896  25.457  0.00  0.00    -0.461 OA
BRANCH  30  37
ATOM     31  C   UNL     1       8.036   4.141  23.488  0.00  0.00    +0.211 A 
ATOM     32  C   UNL     1       9.360   3.491  23.823  0.00  0.00    +0.238 A 
ATOM     33  O   UNL     1      10.428   4.079  23.709  0.00  0.00    -0.283 OA
ATOM     34  C   UNL     1       9.312   2.110  24.339  0.00  0.00    +0.109 A 
ATOM     35  C   UNL     1       8.100   1.675  24.839  0.00  0.00    +0.147 A 
ATOM     36  C   UNL     1       8.019   0.427  25.464  0.00  0.00    +0.093 A 
ATOM     37  C   UNL     1       9.022  -0.530  25.307  0.00  0.00    +0.131 A 
ATOM     38  C   UNL     1      10.257  -0.088  24.837  0.00  0.00    +0.092 A 
ATOM     39  O   UNL     1       6.925   2.382  24.715  0.00  0.00    -0.451 OA
ATOM     40  C   UNL     1      10.413   1.241  24.407  0.00  0.00    +0.135 A 
ATOM     41  C   UNL     1       6.922   3.526  23.925  0.00  0.00    +0.181 A 
BRANCH  41  42
ATOM     42  C   UNL     1       5.553   4.054  23.672  0.00  0.00    +0.025 A 
ATOM     43  C   UNL     1       4.949   4.952  24.571  0.00  0.00    +0.015 A 
ATOM     44  C   UNL     1       3.696   5.503  24.286  0.00  0.00    +0.050 A 
ATOM     45  C   UNL     1       3.040   5.172  23.111  0.00  0.00    +0.158 A 
ATOM     46  C   UNL     1       3.606   4.252  22.230  0.00  0.00    +0.159 A 
ATOM     47  C   UNL     1       4.865   3.703  22.499  0.00  0.00    +0.060 A 
BRANCH  46  48
ATOM     48  O   UNL     1       2.899   3.933  21.099  0.00  0.00    -0.503 OA
ATOM     49  H   UNL     1       3.401   3.246  20.621  0.00  0.00    +0.292 HD
ENDBRANCH  46  48
BRANCH  45  50
ATOM     50  O   UNL     1       1.830   5.736  22.817  0.00  0.00    -0.503 OA
ATOM     51  H   UNL     1       1.168   5.102  23.157  0.00  0.00    +0.292 HD
ENDBRANCH  45  50
ENDBRANCH  41  42
BRANCH  31  53
ATOM     52  C   UNL     1       8.422   6.505  23.526  0.00  0.00    +0.277 C 
ATOM     53  O   UNL     1       7.957   5.358  22.818  0.00  0.00    -0.488 OA
ENDBRANCH  31  53
BRANCH  40  54
ATOM     54  O   UNL     1      11.651   1.651  23.999  0.00  0.00    -0.506 OA
ATOM     55  H   UNL     1      11.573   2.437  23.432  0.00  0.00    +0.292 HD
ENDBRANCH  40  54
ENDBRANCH  30  37
ENDBRANCH   1  30
TORSDOF 18
ENDMDL
MODEL 6
REMARK VINA RESULT:      -6.6      2.214      3.824
REMARK  Name = 
REMARK  19 active torsions:
REMARK  status: ('A' for Active; 'I' for Inactive)
REMARK    1  A    between atoms: C_1  and  O_2
REMARK    2  A    between atoms: O_2  and  C_3
REMARK    3  A    between atoms: C_4  and  C_44
REMARK    4  A    between atoms: C_8  and  O_15
REMARK    5  A    between atoms: C_10  and  O_14
REMARK    6  A    between atoms: O_15  and  C_16
REMARK    7  A    between atoms: C_18  and  O_43
REMARK    8  A    between atoms: C_19  and  O_42
REMARK    9  A    between atoms: C_21  and  O_27
REMARK   10  A    between atoms: C_23  and  C_25
REMARK   11  A    between atoms: C_25  and  O_26
REMARK   12  A    between atoms: O_27  and  C_28
REMARK   13  A    between atoms: C_30  and  O_41
REMARK   14  A    between atoms: C_31  and  O_40
REMARK   15  A    between atoms: C_33  and  O_39
REMARK   16  A    between atoms: C_35  and  C_37
REMARK   17  A    between atoms: C_37  and  O_38
REMARK   18  A    between atoms: C_46  and  O_51
REMARK   19  A    between atoms: C_47  and  O_50
REMARK                            x       y       z     vdW  Elec       q    Type
REMARK                         _______ _______ _______ _____ _____    ______ ____
ROOT
ATOM      1  C   UNL     1       7.640  -2.609  23.587  0.00  0.00    +0.339 C 
ATOM      2  O   UNL     1       7.941  -4.003  23.228  0.00  0.00    -0.331 OA
ATOM      3  C   UNL     1       7.021  -4.697  22.351  0.00  0.00    +0.179 C 
ATOM      4  C   UNL     1       5.540  -4.542  22.802  0.00  0.00    +0.184 C 
ATOM      5  C   UNL     1       5.284  -3.048  22.731  0.00  0.00    +0.180 C 
ATOM      6  C   UNL     1       6.109  -2.438  23.844  0.00  0.00    +0.214 C 
ENDROOT
BRANCH   6   7
ATOM      7  O   UNL     1       5.523  -1.154  24.054  0.00  0.00    -0.383 OA
ATOM      8  H   UNL     1       4.550  -1.258  23.986  0.00  0.00    +0.210 HD
ENDBRANCH   6   7
BRANCH   5   9
ATOM      9  O   UNL     1       5.525  -2.438  21.459  0.00  0.00    -0.386 OA
ATOM     10  H   UNL     1       5.096  -1.561  21.409  0.00  0.00    +0.210 HD
ENDBRANCH   5   9
BRANCH   4  11
ATOM     11  O   UNL     1       5.294  -5.048  24.165  0.00  0.00    -0.340 OA
BRANCH  11  12
ATOM     12  C   UNL     1       3.901  -5.343  24.501  0.00  0.00    +0.282 C 
ATOM     13  O   UNL     1       3.332  -4.371  25.402  0.00  0.00    -0.341 OA
ATOM     14  C   UNL     1       3.811  -4.398  26.753  0.00  0.00    +0.178 C 
ATOM     15  C   UNL     1       3.919  -5.816  27.357  0.00  0.00    +0.177 C 
ATOM     16  C   UNL     1       4.530  -6.811  26.380  0.00  0.00    +0.179 C 
ATOM     17  C   UNL     1       3.713  -6.749  25.091  0.00  0.00    +0.201 C 
BRANCH  17  18
ATOM     18  O   UNL     1       4.083  -7.820  24.230  0.00  0.00    -0.384 OA
ATOM     19  H   UNL     1       4.492  -7.470  23.422  0.00  0.00    +0.210 HD
ENDBRANCH  17  18
BRANCH  16  20
ATOM     20  O   UNL     1       5.927  -6.470  26.225  0.00  0.00    -0.386 OA
ATOM     21  H   UNL     1       6.249  -6.899  25.403  0.00  0.00    +0.210 HD
ENDBRANCH  16  20
BRANCH  15  22
ATOM     22  O   UNL     1       4.715  -5.766  28.546  0.00  0.00    -0.386 OA
ATOM     23  H   UNL     1       4.839  -4.809  28.732  0.00  0.00    +0.210 HD
ENDBRANCH  15  22
BRANCH  14  24
ATOM     24  C   UNL     1       2.863  -3.579  27.663  0.00  0.00    +0.190 C 
BRANCH  24  25
ATOM     25  O   UNL     1       3.535  -3.086  28.824  0.00  0.00    -0.392 OA
ATOM     26  H   UNL     1       3.121  -2.235  29.073  0.00  0.00    +0.210 HD
ENDBRANCH  24  25
ENDBRANCH  14  24
ENDBRANCH  11  12
ENDBRANCH   4  11
BRANCH   3  27
ATOM     27  C   UNL     1       7.414  -6.173  22.151  0.00  0.00    +0.190 C 
BRANCH  27  28
ATOM     28  O   UNL     1       6.256  -7.006  22.246  0.00  0.00    -0.392 OA
ATOM     29  H   UNL     1       5.757  -6.754  23.044  0.00  0.00    +0.210 HD
ENDBRANCH  27  28
ENDBRANCH   3  27
BRANCH   1  30
ATOM     30  O   UNL     1       8.218  -1.678  22.647  0.00  0.00    -0.461 OA
BRANCH  30  37
ATOM     31  C   UNL     1       8.403   4.257  25.047  0.00  0.00    +0.211 A 
ATOM     32  C   UNL     1       9.347   3.686  24.012  0.00  0.00    +0.238 A 
ATOM     33  O   UNL     1      10.242   4.349  23.502  0.00  0.00    -0.283 OA
ATOM     34  C   UNL     1       9.172   2.264  23.663  0.00  0.00    +0.109 A 
ATOM     35  C   UNL     1       8.460   1.488  24.557  0.00  0.00    +0.147 A 
ATOM     36  C   UNL     1       8.371   0.108  24.354  0.00  0.00    +0.093 A 
ATOM     37  C   UNL     1       8.682  -0.467  23.121  0.00  0.00    +0.131 A 
ATOM     38  C   UNL     1       9.432   0.300  22.231  0.00  0.00    +0.092 A 
ATOM     39  O   UNL     1       7.771   2.000  25.633  0.00  0.00    -0.451 OA
ATOM     40  C   UNL     1       9.720   1.643  22.529  0.00  0.00    +0.135 A 
ATOM     41  C   UNL     1       7.665   3.382  25.753  0.00  0.00    +0.181 A 
BRANCH  41  42
ATOM     42  C   UNL     1       6.698   3.801  26.805  0.00  0.00    +0.025 A 
ATOM     43  C   UNL     1       5.386   4.180  26.469  0.00  0.00    +0.015 A 
ATOM     44  C   UNL     1       4.462   4.497  27.470  0.00  0.00    +0.050 A 
ATOM     45  C   UNL     1       4.831   4.432  28.804  0.00  0.00    +0.158 A 
ATOM     46  C   UNL     1       6.139   4.097  29.152  0.00  0.00    +0.159 A 
ATOM     47  C   UNL     1       7.069   3.768  28.159  0.00  0.00    +0.060 A 
BRANCH  46  48
ATOM     48  O   UNL     1       6.461   4.082  30.485  0.00  0.00    -0.503 OA
ATOM     49  H   UNL     1       7.433   4.033  30.553  0.00  0.00    +0.292 HD
ENDBRANCH  46  48
BRANCH  45  50
ATOM     50  O   UNL     1       3.918   4.709  29.784  0.00  0.00    -0.503 OA
ATOM     51  H   UNL     1       3.803   3.865  30.265  0.00  0.00    +0.292 HD
ENDBRANCH  45  50
ENDBRANCH  41  42
BRANCH  31  53
ATOM     52  C   UNL     1       7.606   6.420  24.395  0.00  0.00    +0.277 C 
ATOM     53  O   UNL     1       8.340   5.620  25.319  0.00  0.00    -0.488 OA
ENDBRANCH  31  53
BRANCH  40  54
ATOM     54  O   UNL     1      10.499   2.350  21.655  0.00  0.00    -0.506 OA
ATOM     55  H   UNL     1      10.190   2.210  20.745  0.00  0.00    +0.292 HD
ENDBRANCH  40  54
ENDBRANCH  30  37
ENDBRANCH   1  30
TORSDOF 18
ENDMDL
MODEL 7
REMARK VINA RESULT:      -6.6      2.098      4.020
REMARK  Name = 
REMARK  19 active torsions:
REMARK  status: ('A' for Active; 'I' for Inactive)
REMARK    1  A    between atoms: C_1  and  O_2
REMARK    2  A    between atoms: O_2  and  C_3
REMARK    3  A    between atoms: C_4  and  C_44
REMARK    4  A    between atoms: C_8  and  O_15
REMARK    5  A    between atoms: C_10  and  O_14
REMARK    6  A    between atoms: O_15  and  C_16
REMARK    7  A    between atoms: C_18  and  O_43
REMARK    8  A    between atoms: C_19  and  O_42
REMARK    9  A    between atoms: C_21  and  O_27
REMARK   10  A    between atoms: C_23  and  C_25
REMARK   11  A    between atoms: C_25  and  O_26
REMARK   12  A    between atoms: O_27  and  C_28
REMARK   13  A    between atoms: C_30  and  O_41
REMARK   14  A    between atoms: C_31  and  O_40
REMARK   15  A    between atoms: C_33  and  O_39
REMARK   16  A    between atoms: C_35  and  C_37
REMARK   17  A    between atoms: C_37  and  O_38
REMARK   18  A    between atoms: C_46  and  O_51
REMARK   19  A    between atoms: C_47  and  O_50
REMARK                            x       y       z     vdW  Elec       q    Type
REMARK                         _______ _______ _______ _____ _____    ______ ____
ROOT
ATOM      1  C   UNL     1       7.610  -2.316  24.258  0.00  0.00    +0.339 C 
ATOM      2  O   UNL     1       8.303  -3.314  25.087  0.00  0.00    -0.331 OA
ATOM      3  C   UNL     1       8.435  -4.660  24.570  0.00  0.00    +0.179 C 
ATOM      4  C   UNL     1       7.091  -5.222  24.025  0.00  0.00    +0.184 C 
ATOM      5  C   UNL     1       6.723  -4.276  22.897  0.00  0.00    +0.180 C 
ATOM      6  C   UNL     1       6.370  -2.962  23.563  0.00  0.00    +0.214 C 
ENDROOT
BRANCH   6   7
ATOM      7  O   UNL     1       5.612  -2.260  22.579  0.00  0.00    -0.383 OA
ATOM      8  H   UNL     1       6.210  -1.609  22.153  0.00  0.00    +0.210 HD
ENDBRANCH   6   7
BRANCH   5   9
ATOM      9  O   UNL     1       7.703  -4.132  21.864  0.00  0.00    -0.386 OA
ATOM     10  H   UNL     1       8.536  -4.579  22.113  0.00  0.00    +0.210 HD
ENDBRANCH   5   9
BRANCH   4  11
ATOM     11  O   UNL     1       6.024  -5.258  25.043  0.00  0.00    -0.340 OA
BRANCH  11  12
ATOM     12  C   UNL     1       5.088  -6.379  24.955  0.00  0.00    +0.282 C 
ATOM     13  O   UNL     1       4.044  -6.152  23.986  0.00  0.00    -0.341 OA
ATOM     14  C   UNL     1       3.057  -5.172  24.331  0.00  0.00    +0.178 C 
ATOM     15  C   UNL     1       2.543  -5.278  25.785  0.00  0.00    +0.177 C 
ATOM     16  C   UNL     1       3.674  -5.510  26.778  0.00  0.00    +0.179 C 
ATOM     17  C   UNL     1       4.453  -6.736  26.307  0.00  0.00    +0.201 C 
BRANCH  17  18
ATOM     18  O   UNL     1       5.370  -7.145  27.316  0.00  0.00    -0.384 OA
ATOM     19  H   UNL     1       5.328  -6.536  28.070  0.00  0.00    +0.210 HD
ENDBRANCH  17  18
BRANCH  16  20
ATOM     20  O   UNL     1       4.451  -4.292  26.848  0.00  0.00    -0.386 OA
ATOM     21  H   UNL     1       4.693  -4.040  25.931  0.00  0.00    +0.210 HD
ENDBRANCH  16  20
BRANCH  15  22
ATOM     22  O   UNL     1       1.846  -4.076  26.130  0.00  0.00    -0.386 OA
ATOM     23  H   UNL     1       0.943  -4.367  26.386  0.00  0.00    +0.210 HD
ENDBRANCH  15  22
BRANCH  14  24
ATOM     24  C   UNL     1       1.829  -5.309  23.397  0.00  0.00    +0.190 C 
BRANCH  24  25
ATOM     25  O   UNL     1       0.709  -5.886  24.071  0.00  0.00    -0.392 OA
ATOM     26  H   UNL     1       0.245  -5.171  24.552  0.00  0.00    +0.210 HD
ENDBRANCH  24  25
ENDBRANCH  14  24
ENDBRANCH  11  12
ENDBRANCH   4  11
BRANCH   3  27
ATOM     27  C   UNL     1       9.089  -5.611  25.591  0.00  0.00    +0.190 C 
BRANCH  27  28
ATOM     28  O   UNL     1       8.179  -5.884  26.659  0.00  0.00    -0.392 OA
ATOM     29  H   UNL     1       8.635  -5.720  27.505  0.00  0.00    +0.210 HD
ENDBRANCH  27  28
ENDBRANCH   3  27
BRANCH   1  30
ATOM     30  O   UNL     1       8.524  -1.627  23.378  0.00  0.00    -0.461 OA
BRANCH  30  37
ATOM     31  C   UNL     1       8.218   4.554  25.030  0.00  0.00    +0.211 A 
ATOM     32  C   UNL     1       9.197   3.942  24.053  0.00  0.00    +0.238 A 
ATOM     33  O   UNL     1      10.025   4.610  23.447  0.00  0.00    -0.283 OA
ATOM     34  C   UNL     1       9.142   2.478  23.884  0.00  0.00    +0.109 A 
ATOM     35  C   UNL     1       8.510   1.761  24.881  0.00  0.00    +0.147 A 
ATOM     36  C   UNL     1       8.538   0.364  24.851  0.00  0.00    +0.093 A 
ATOM     37  C   UNL     1       8.886  -0.331  23.691  0.00  0.00    +0.131 A 
ATOM     38  C   UNL     1       9.557   0.381  22.699  0.00  0.00    +0.092 A 
ATOM     39  O   UNL     1       7.789   2.342  25.900  0.00  0.00    -0.451 OA
ATOM     40  C   UNL     1       9.731   1.771  22.824  0.00  0.00    +0.135 A 
ATOM     41  C   UNL     1       7.565   3.713  25.852  0.00  0.00    +0.181 A 
BRANCH  41  42
ATOM     42  C   UNL     1       6.576   4.176  26.866  0.00  0.00    +0.025 A 
ATOM     43  C   UNL     1       5.231   4.392  26.514  0.00  0.00    +0.015 A 
ATOM     44  C   UNL     1       4.293   4.750  27.488  0.00  0.00    +0.050 A 
ATOM     45  C   UNL     1       4.682   4.889  28.811  0.00  0.00    +0.158 A 
ATOM     46  C   UNL     1       6.019   4.718  29.168  0.00  0.00    +0.159 A 
ATOM     47  C   UNL     1       6.964   4.348  28.204  0.00  0.00    +0.060 A 
BRANCH  46  48
ATOM     48  O   UNL     1       6.356   4.901  30.485  0.00  0.00    -0.503 OA
ATOM     49  H   UNL     1       6.291   4.036  30.930  0.00  0.00    +0.292 HD
ENDBRANCH  46  48
BRANCH  45  50
ATOM     50  O   UNL     1       3.759   5.206  29.769  0.00  0.00    -0.503 OA
ATOM     51  H   UNL     1       3.592   6.161  29.649  0.00  0.00    +0.292 HD
ENDBRANCH  45  50
ENDBRANCH  41  42
BRANCH  31  53
ATOM     52  C   UNL     1       7.240   6.546  24.127  0.00  0.00    +0.277 C 
ATOM     53  O   UNL     1       8.039   5.930  25.134  0.00  0.00    -0.488 OA
ENDBRANCH  31  53
BRANCH  40  54
ATOM     54  O   UNL     1      10.436   2.427  21.854  0.00  0.00    -0.506 OA
ATOM     55  H   UNL     1      11.077   3.034  22.261  0.00  0.00    +0.292 HD
ENDBRANCH  40  54
ENDBRANCH  30  37
ENDBRANCH   1  30
TORSDOF 18
ENDMDL
MODEL 8
REMARK VINA RESULT:      -6.1      2.842     11.150
REMARK  Name = 
REMARK  19 active torsions:
REMARK  status: ('A' for Active; 'I' for Inactive)
REMARK    1  A    between atoms: C_1  and  O_2
REMARK    2  A    between atoms: O_2  and  C_3
REMARK    3  A    between atoms: C_4  and  C_44
REMARK    4  A    between atoms: C_8  and  O_15
REMARK    5  A    between atoms: C_10  and  O_14
REMARK    6  A    between atoms: O_15  and  C_16
REMARK    7  A    between atoms: C_18  and  O_43
REMARK    8  A    between atoms: C_19  and  O_42
REMARK    9  A    between atoms: C_21  and  O_27
REMARK   10  A    between atoms: C_23  and  C_25
REMARK   11  A    between atoms: C_25  and  O_26
REMARK   12  A    between atoms: O_27  and  C_28
REMARK   13  A    between atoms: C_30  and  O_41
REMARK   14  A    between atoms: C_31  and  O_40
REMARK   15  A    between atoms: C_33  and  O_39
REMARK   16  A    between atoms: C_35  and  C_37
REMARK   17  A    between atoms: C_37  and  O_38
REMARK   18  A    between atoms: C_46  and  O_51
REMARK   19  A    between atoms: C_47  and  O_50
REMARK                            x       y       z     vdW  Elec       q    Type
REMARK                         _______ _______ _______ _____ _____    ______ ____
ROOT
ATOM      1  C   UNL     1       7.686   1.328  24.844  0.00  0.00    +0.339 C 
ATOM      2  O   UNL     1       6.636   2.190  24.279  0.00  0.00    -0.331 OA
ATOM      3  C   UNL     1       6.856   2.766  22.969  0.00  0.00    +0.179 C 
ATOM      4  C   UNL     1       8.255   3.433  22.841  0.00  0.00    +0.184 C 
ATOM      5  C   UNL     1       9.232   2.294  23.067  0.00  0.00    +0.180 C 
ATOM      6  C   UNL     1       9.095   1.922  24.529  0.00  0.00    +0.214 C 
ENDROOT
BRANCH   6   7
ATOM      7  O   UNL     1      10.293   1.205  24.823  0.00  0.00    -0.383 OA
ATOM      8  H   UNL     1      11.044   1.827  24.716  0.00  0.00    +0.210 HD
ENDBRANCH   6   7
BRANCH   5   9
ATOM      9  O   UNL     1       9.089   1.172  22.190  0.00  0.00    -0.386 OA
ATOM     10  H   UNL     1       9.881   0.598  22.230  0.00  0.00    +0.210 HD
ENDBRANCH   5   9
BRANCH   4  11
ATOM     11  O   UNL     1       8.475   4.510  23.824  0.00  0.00    -0.340 OA
BRANCH  11  12
ATOM     12  C   UNL     1       8.981   5.775  23.291  0.00  0.00    +0.282 C 
ATOM     13  O   UNL     1      10.415   5.886  23.400  0.00  0.00    -0.341 OA
ATOM     14  C   UNL     1      10.941   6.071  24.719  0.00  0.00    +0.178 C 
ATOM     15  C   UNL     1      10.172   7.108  25.568  0.00  0.00    +0.177 C 
ATOM     16  C   UNL     1       8.663   6.954  25.433  0.00  0.00    +0.179 C 
ATOM     17  C   UNL     1       8.329   7.003  23.944  0.00  0.00    +0.201 C 
BRANCH  17  18
ATOM     18  O   UNL     1       6.920   7.105  23.765  0.00  0.00    -0.384 OA
ATOM     19  H   UNL     1       6.554   7.761  24.381  0.00  0.00    +0.210 HD
ENDBRANCH  17  18
BRANCH  16  20
ATOM     20  O   UNL     1       8.288   5.724  26.095  0.00  0.00    -0.386 OA
ATOM     21  H   UNL     1       8.848   5.006  25.729  0.00  0.00    +0.210 HD
ENDBRANCH  16  20
BRANCH  15  22
ATOM     22  O   UNL     1      10.544   6.966  26.943  0.00  0.00    -0.386 OA
ATOM     23  H   UNL     1       9.738   6.629  27.394  0.00  0.00    +0.210 HD
ENDBRANCH  15  22
BRANCH  14  24
ATOM     24  C   UNL     1      12.414   6.542  24.638  0.00  0.00    +0.190 C 
BRANCH  24  25
ATOM     25  O   UNL     1      13.215   5.651  23.860  0.00  0.00    -0.392 OA
ATOM     26  H   UNL     1      12.658   5.293  23.140  0.00  0.00    +0.210 HD
ENDBRANCH  24  25
ENDBRANCH  14  24
ENDBRANCH  11  12
ENDBRANCH   4  11
BRANCH   3  27
ATOM     27  C   UNL     1       5.719   3.722  22.559  0.00  0.00    +0.190 C 
BRANCH  27  28
ATOM     28  O   UNL     1       6.253   4.843  21.851  0.00  0.00    -0.392 OA
ATOM     29  H   UNL     1       7.132   5.051  22.217  0.00  0.00    +0.210 HD
ENDBRANCH  27  28
ENDBRANCH   3  27
BRANCH   1  30
ATOM     30  O   UNL     1       7.499  -0.055  24.473  0.00  0.00    -0.461 OA
BRANCH  30  37
ATOM     31  C   UNL     1       3.212  -4.081  27.007  0.00  0.00    +0.211 A 
ATOM     32  C   UNL     1       3.950  -2.988  27.746  0.00  0.00    +0.238 A 
ATOM     33  O   UNL     1       3.758  -2.751  28.933  0.00  0.00    -0.283 OA
ATOM     34  C   UNL     1       4.958  -2.231  26.982  0.00  0.00    +0.109 A 
ATOM     35  C   UNL     1       5.422  -2.813  25.819  0.00  0.00    +0.147 A 
ATOM     36  C   UNL     1       6.472  -2.214  25.117  0.00  0.00    +0.093 A 
ATOM     37  C   UNL     1       6.842  -0.889  25.356  0.00  0.00    +0.131 A 
ATOM     38  C   UNL     1       6.407  -0.310  26.546  0.00  0.00    +0.092 A 
ATOM     39  O   UNL     1       4.873  -3.945  25.259  0.00  0.00    -0.451 OA
ATOM     40  C   UNL     1       5.511  -1.003  27.380  0.00  0.00    +0.135 A 
ATOM     41  C   UNL     1       3.703  -4.454  25.812  0.00  0.00    +0.181 A 
BRANCH  41  42
ATOM     42  C   UNL     1       3.081  -5.518  24.976  0.00  0.00    +0.025 A 
ATOM     43  C   UNL     1       2.488  -5.209  23.738  0.00  0.00    +0.015 A 
ATOM     44  C   UNL     1       1.977  -6.225  22.925  0.00  0.00    +0.050 A 
ATOM     45  C   UNL     1       2.056  -7.548  23.330  0.00  0.00    +0.158 A 
ATOM     46  C   UNL     1       2.604  -7.867  24.571  0.00  0.00    +0.159 A 
ATOM     47  C   UNL     1       3.129  -6.859  25.389  0.00  0.00    +0.060 A 
BRANCH  46  48
ATOM     48  O   UNL     1       2.627  -9.188  24.939  0.00  0.00    -0.503 OA
ATOM     49  H   UNL     1       2.044  -9.289  25.715  0.00  0.00    +0.292 HD
ENDBRANCH  46  48
BRANCH  45  50
ATOM     50  O   UNL     1       1.587  -8.545  22.520  0.00  0.00    -0.503 OA
ATOM     51  H   UNL     1       2.261  -9.250  22.573  0.00  0.00    +0.292 HD
ENDBRANCH  45  50
ENDBRANCH  41  42
BRANCH  31  53
ATOM     52  C   UNL     1       0.861  -4.052  27.471  0.00  0.00    +0.277 C 
ATOM     53  O   UNL     1       2.111  -4.733  27.556  0.00  0.00    -0.488 OA
ENDBRANCH  31  53
BRANCH  40  54
ATOM     54  O   UNL     1       5.144  -0.424  28.563  0.00  0.00    -0.506 OA
ATOM     55  H   UNL     1       4.340  -0.847  28.906  0.00  0.00    +0.292 HD
ENDBRANCH  40  54
ENDBRANCH  30  37
ENDBRANCH   1  30
TORSDOF 18
ENDMDL
MODEL 9
REMARK VINA RESULT:      -6.0      2.739      6.271
REMARK  Name = 
REMARK  19 active torsions:
REMARK  status: ('A' for Active; 'I' for Inactive)
REMARK    1  A    between atoms: C_1  and  O_2
REMARK    2  A    between atoms: O_2  and  C_3
REMARK    3  A    between atoms: C_4  and  C_44
REMARK    4  A    between atoms: C_8  and  O_15
REMARK    5  A    between atoms: C_10  and  O_14
REMARK    6  A    between atoms: O_15  and  C_16
REMARK    7  A    between atoms: C_18  and  O_43
REMARK    8  A    between atoms: C_19  and  O_42
REMARK    9  A    between atoms: C_21  and  O_27
REMARK   10  A    between atoms: C_23  and  C_25
REMARK   11  A    between atoms: C_25  and  O_26
REMARK   12  A    between atoms: O_27  and  C_28
REMARK   13  A    between atoms: C_30  and  O_41
REMARK   14  A    between atoms: C_31  and  O_40
REMARK   15  A    between atoms: C_33  and  O_39
REMARK   16  A    between atoms: C_35  and  C_37
REMARK   17  A    between atoms: C_37  and  O_38
REMARK   18  A    between atoms: C_46  and  O_51
REMARK   19  A    between atoms: C_47  and  O_50
REMARK                            x       y       z     vdW  Elec       q    Type
REMARK                         _______ _______ _______ _____ _____    ______ ____
ROOT
ATOM      1  C   UNL     1       8.150   0.249  23.100  0.00  0.00    +0.339 C 
ATOM      2  O   UNL     1       7.914   0.051  24.538  0.00  0.00    -0.331 OA
ATOM      3  C   UNL     1       8.906  -0.680  25.299  0.00  0.00    +0.179 C 
ATOM      4  C   UNL     1       9.319  -2.013  24.611  0.00  0.00    +0.184 C 
ATOM      5  C   UNL     1       9.913  -1.578  23.284  0.00  0.00    +0.180 C 
ATOM      6  C   UNL     1       8.751  -1.047  22.470  0.00  0.00    +0.214 C 
ENDROOT
BRANCH   6   7
ATOM      7  O   UNL     1       9.222  -1.077  21.124  0.00  0.00    -0.383 OA
ATOM      8  H   UNL     1       8.499  -1.435  20.565  0.00  0.00    +0.210 HD
ENDBRANCH   6   7
BRANCH   5   9
ATOM      9  O   UNL     1      11.004  -0.655  23.366  0.00  0.00    -0.386 OA
ATOM     10  H   UNL     1      10.938   0.022  22.664  0.00  0.00    +0.210 HD
ENDBRANCH   5   9
BRANCH   4  11
ATOM     11  O   UNL     1       8.183  -2.929  24.397  0.00  0.00    -0.340 OA
BRANCH  11  12
ATOM     12  C   UNL     1       8.476  -4.358  24.524  0.00  0.00    +0.282 C 
ATOM     13  O   UNL     1       8.190  -5.089  23.313  0.00  0.00    -0.341 OA
ATOM     14  C   UNL     1       6.806  -5.258  22.983  0.00  0.00    +0.178 C 
ATOM     15  C   UNL     1       5.916  -5.665  24.179  0.00  0.00    +0.177 C 
ATOM     16  C   UNL     1       6.242  -4.867  25.434  0.00  0.00    +0.179 C 
ATOM     17  C   UNL     1       7.738  -5.017  25.698  0.00  0.00    +0.201 C 
BRANCH  17  18
ATOM     18  O   UNL     1       8.060  -4.496  26.983  0.00  0.00    -0.384 OA
ATOM     19  H   UNL     1       7.826  -5.140  27.670  0.00  0.00    +0.210 HD
ENDBRANCH  17  18
BRANCH  16  20
ATOM     20  O   UNL     1       5.803  -3.506  25.213  0.00  0.00    -0.386 OA
ATOM     21  H   UNL     1       5.791  -3.351  24.245  0.00  0.00    +0.210 HD
ENDBRANCH  16  20
BRANCH  15  22
ATOM     22  O   UNL     1       4.540  -5.469  23.834  0.00  0.00    -0.386 OA
ATOM     23  H   UNL     1       4.172  -6.374  23.725  0.00  0.00    +0.210 HD
ENDBRANCH  15  22
BRANCH  14  24
ATOM     24  C   UNL     1       6.654  -6.355  21.901  0.00  0.00    +0.190 C 
BRANCH  24  25
ATOM     25  O   UNL     1       5.459  -6.185  21.136  0.00  0.00    -0.392 OA
ATOM     26  H   UNL     1       4.768  -6.760  21.524  0.00  0.00    +0.210 HD
ENDBRANCH  24  25
ENDBRANCH  14  24
ENDBRANCH  11  12
ENDBRANCH   4  11
BRANCH   3  27
ATOM     27  C   UNL     1       8.472  -0.894  26.762  0.00  0.00    +0.190 C 
BRANCH  27  28
ATOM     28  O   UNL     1       7.295  -1.704  26.810  0.00  0.00    -0.392 OA
ATOM     29  H   UNL     1       7.200  -2.060  27.712  0.00  0.00    +0.210 HD
ENDBRANCH  27  28
ENDBRANCH   3  27
BRANCH   1  30
ATOM     30  O   UNL     1       8.887   1.463  22.842  0.00  0.00    -0.461 OA
BRANCH  30  37
ATOM     31  C   UNL     1       4.824   5.814  25.205  0.00  0.00    +0.211 A 
ATOM     32  C   UNL     1       5.740   6.005  24.017  0.00  0.00    +0.238 A 
ATOM     33  O   UNL     1       5.758   7.039  23.360  0.00  0.00    -0.283 OA
ATOM     34  C   UNL     1       6.656   4.895  23.696  0.00  0.00    +0.109 A 
ATOM     35  C   UNL     1       6.887   3.972  24.697  0.00  0.00    +0.147 A 
ATOM     36  C   UNL     1       7.845   2.972  24.506  0.00  0.00    +0.093 A 
ATOM     37  C   UNL     1       8.331   2.665  23.234  0.00  0.00    +0.131 A 
ATOM     38  C   UNL     1       8.132   3.611  22.231  0.00  0.00    +0.092 A 
ATOM     39  O   UNL     1       6.184   3.936  25.881  0.00  0.00    -0.451 OA
ATOM     40  C   UNL     1       7.342   4.747  22.480  0.00  0.00    +0.135 A 
ATOM     41  C   UNL     1       5.090   4.781  26.025  0.00  0.00    +0.181 A 
BRANCH  41  42
ATOM     42  C   UNL     1       4.275   4.475  27.233  0.00  0.00    +0.025 A 
ATOM     43  C   UNL     1       4.138   5.418  28.268  0.00  0.00    +0.015 A 
ATOM     44  C   UNL     1       3.308   5.153  29.362  0.00  0.00    +0.050 A 
ATOM     45  C   UNL     1       2.608   3.958  29.432  0.00  0.00    +0.158 A 
ATOM     46  C   UNL     1       2.765   2.997  28.435  0.00  0.00    +0.159 A 
ATOM     47  C   UNL     1       3.585   3.257  27.330  0.00  0.00    +0.060 A 
BRANCH  46  48
ATOM     48  O   UNL     1       2.077   1.819  28.570  0.00  0.00    -0.503 OA
ATOM     49  H   UNL     1       2.472   1.174  27.954  0.00  0.00    +0.292 HD
ENDBRANCH  46  48
BRANCH  45  50
ATOM     50  O   UNL     1       1.771   3.713  30.485  0.00  0.00    -0.503 OA
ATOM     51  H   UNL     1       1.781   2.742  30.592  0.00  0.00    +0.292 HD
ENDBRANCH  45  50
ENDBRANCH  41  42
BRANCH  31  53
ATOM     52  C   UNL     1       2.599   6.557  24.717  0.00  0.00    +0.277 C 
ATOM     53  O   UNL     1       3.788   6.698  25.491  0.00  0.00    -0.488 OA
ENDBRANCH  31  53
BRANCH  40  54
ATOM     54  O   UNL     1       7.209   5.677  21.487  0.00  0.00    -0.506 OA
ATOM     55  H   UNL     1       6.269   5.873  21.337  0.00  0.00    +0.292 HD
ENDBRANCH  40  54
ENDBRANCH  30  37
ENDBRANCH   1  30
TORSDOF 18
ENDMDL
