MODEL 1
REMARK VINA RESULT:      -8.0      0.000      0.000
REMARK  Name = 
REMARK  20 active torsions:
REMARK  status: ('A' for Active; 'I' for Inactive)
REMARK    1  A    between atoms: C_3  and  O_60
REMARK    2  A    between atoms: C_6  and  C_7
REMARK    3  A    between atoms: C_8  and  C_9
REMARK    4  A    between atoms: C_9  and  O_11
REMARK    5  A    between atoms: O_11  and  C_12
REMARK    6  A    between atoms: C_12  and  C_13
REMARK    7  A    between atoms: C_15  and  O_59
REMARK    8  A    between atoms: C_17  and  O_47
REMARK    9  A    between atoms: C_19  and  O_46
REMARK   10  A    between atoms: C_21  and  O_24
REMARK   11  A    between atoms: O_24  and  C_25
REMARK   12  A    between atoms: C_26  and  C_38
REMARK   13  A    between atoms: C_30  and  O_37
REMARK   14  A    between atoms: C_32  and  O_36
REMARK   15  A    between atoms: C_40  and  O_45
REMARK   16  A    between atoms: C_41  and  O_44
REMARK   17  A    between atoms: O_47  and  C_48
REMARK   18  A    between atoms: C_48  and  C_50
REMARK   19  A    between atoms: C_51  and  C_52
REMARK   20  A    between atoms: C_55  and  O_58
REMARK                            x       y       z     vdW  Elec       q    Type
REMARK                         _______ _______ _______ _____ _____    ______ ____
ROOT
ATOM      1  C   UNL     1       5.400  -0.557  27.860  0.00  0.00    +0.192 C 
ATOM      2  O   UNL     1       6.341  -1.302  27.073  0.00  0.00    -0.330 OA
ATOM      3  C   UNL     1       7.601  -0.598  26.940  0.00  0.00    +0.341 C 
ATOM      4  C   UNL     1       7.384   0.700  26.135  0.00  0.00    +0.226 C 
ATOM      5  C   UNL     1       6.297   1.537  26.793  0.00  0.00    +0.242 C 
ATOM      6  C   UNL     1       5.037   0.742  27.122  0.00  0.00    +0.190 C 
ENDROOT
BRANCH   6   7
ATOM      7  O   UNL     1       4.198   1.601  27.903  0.00  0.00    -0.385 OA
ATOM      8  H   UNL     1       4.686   1.842  28.708  0.00  0.00    +0.210 HD
ENDBRANCH   6   7
BRANCH   4   9
ATOM      9  O   UNL     1       8.590   1.474  25.985  0.00  0.00    -0.382 OA
ATOM     10  H   UNL     1       9.264   0.923  25.540  0.00  0.00    +0.210 HD
ENDBRANCH   4   9
BRANCH   5  11
ATOM     11  O   UNL     1       5.914   2.580  25.871  0.00  0.00    -0.453 OA
BRANCH  11  12
ATOM     12  C   UNL     1       5.859   3.822  26.394  0.00  0.00    +0.332 C 
ATOM     13  O   UNL     1       4.884   4.371  26.882  0.00  0.00    -0.246 OA
BRANCH  12  14
ATOM     14  C   UNL     1       7.198   4.416  26.270  0.00  0.00    +0.092 C 
ATOM     15  C   UNL     1       7.600   4.816  25.057  0.00  0.00    +0.015 C 
BRANCH  15  16
ATOM     16  C   UNL     1       8.937   5.354  24.869  0.00  0.00    -0.025 A 
ATOM     17  C   UNL     1       9.409   6.381  25.692  0.00  0.00    +0.011 A 
ATOM     18  C   UNL     1      10.714   6.843  25.537  0.00  0.00    +0.046 A 
ATOM     19  C   UNL     1      11.536   6.274  24.571  0.00  0.00    +0.117 A 
ATOM     20  C   UNL     1      11.070   5.264  23.735  0.00  0.00    +0.046 A 
ATOM     21  C   UNL     1       9.763   4.803  23.885  0.00  0.00    +0.011 A 
BRANCH  19  22
ATOM     22  O   UNL     1      12.818   6.728  24.481  0.00  0.00    -0.507 OA
ATOM     23  H   UNL     1      13.418   5.991  24.681  0.00  0.00    +0.292 HD
ENDBRANCH  19  22
ENDBRANCH  15  16
ENDBRANCH  12  14
ENDBRANCH  11  12
ENDBRANCH   5  11
BRANCH   3  24
ATOM     24  O   UNL     1       8.499  -1.415  26.193  0.00  0.00    -0.453 OA
BRANCH  24  25
ATOM     25  C   UNL     1       8.075  -2.391  25.310  0.00  0.00    +0.214 A 
ATOM     26  C   UNL     1       7.668  -3.770  25.722  0.00  0.00    +0.238 A 
ATOM     27  O   UNL     1       8.120  -4.310  26.723  0.00  0.00    -0.283 OA
ATOM     28  C   UNL     1       6.757  -4.485  24.810  0.00  0.00    +0.109 A 
ATOM     29  C   UNL     1       6.656  -4.008  23.503  0.00  0.00    +0.147 A 
ATOM     30  C   UNL     1       5.795  -4.630  22.593  0.00  0.00    +0.092 A 
ATOM     31  C   UNL     1       5.060  -5.744  22.996  0.00  0.00    +0.124 A 
ATOM     32  C   UNL     1       5.175  -6.245  24.289  0.00  0.00    +0.091 A 
ATOM     33  O   UNL     1       7.412  -2.951  23.045  0.00  0.00    -0.451 OA
ATOM     34  C   UNL     1       6.023  -5.614  25.197  0.00  0.00    +0.135 A 
ATOM     35  C   UNL     1       8.043  -2.137  23.982  0.00  0.00    +0.181 A 
BRANCH  35  36
ATOM     36  C   UNL     1       8.712  -0.935  23.394  0.00  0.00    +0.025 A 
ATOM     37  C   UNL     1      10.049  -0.619  23.689  0.00  0.00    +0.015 A 
ATOM     38  C   UNL     1      10.670   0.502  23.115  0.00  0.00    +0.050 A 
ATOM     39  C   UNL     1       9.954   1.313  22.252  0.00  0.00    +0.158 A 
ATOM     40  C   UNL     1       8.621   1.047  21.973  0.00  0.00    +0.159 A 
ATOM     41  C   UNL     1       7.992  -0.051  22.562  0.00  0.00    +0.060 A 
BRANCH  40  42
ATOM     42  O   UNL     1       7.962   1.879  21.110  0.00  0.00    -0.503 OA
ATOM     43  H   UNL     1       7.046   1.561  21.024  0.00  0.00    +0.292 HD
ENDBRANCH  40  42
BRANCH  39  44
ATOM     44  O   UNL     1      10.568   2.385  21.662  0.00  0.00    -0.503 OA
ATOM     45  H   UNL     1      10.656   3.046  22.378  0.00  0.00    +0.292 HD
ENDBRANCH  39  44
ENDBRANCH  35  36
BRANCH  34  46
ATOM     46  O   UNL     1       6.103  -6.104  26.470  0.00  0.00    -0.506 OA
ATOM     47  H   UNL     1       5.281  -6.570  26.701  0.00  0.00    +0.292 HD
ENDBRANCH  34  46
BRANCH  31  48
ATOM     48  O   UNL     1       4.205  -6.392  22.157  0.00  0.00    -0.507 OA
ATOM     49  H   UNL     1       3.291  -6.252  22.455  0.00  0.00    +0.292 HD
ENDBRANCH  31  48
ENDBRANCH  24  25
ENDBRANCH   3  24
BRANCH   1  50
ATOM     50  C   UNL     1       4.133  -1.400  28.125  0.00  0.00    +0.266 C 
BRANCH  50  51
ATOM     51  O   UNL     1       3.998  -2.451  27.134  0.00  0.00    -0.459 OA
BRANCH  51  52
ATOM     52  C   UNL     1       2.787  -2.540  26.516  0.00  0.00    +0.332 C 
ATOM     53  O   UNL     1       2.000  -1.623  26.360  0.00  0.00    -0.246 OA
BRANCH  52  55
ATOM     54  C   UNL     1       1.662  -4.150  25.065  0.00  0.00    +0.015 C 
ATOM     55  C   UNL     1       2.649  -3.906  25.943  0.00  0.00    +0.092 C 
BRANCH  54  57
ATOM     56  C   UNL     1       1.766  -6.673  24.828  0.00  0.00    +0.011 A 
ATOM     57  C   UNL     1       1.417  -5.406  24.334  0.00  0.00    -0.025 A 
ATOM     58  C   UNL     1       0.913  -5.319  23.026  0.00  0.00    +0.011 A 
ATOM     59  C   UNL     1       0.757  -6.462  22.235  0.00  0.00    +0.046 A 
ATOM     60  C   UNL     1       1.114  -7.704  22.740  0.00  0.00    +0.117 A 
ATOM     61  C   UNL     1       1.614  -7.820  24.033  0.00  0.00    +0.046 A 
BRANCH  60  62
ATOM     62  O   UNL     1       0.969  -8.786  21.923  0.00  0.00    -0.507 OA
ATOM     63  H   UNL     1       0.715  -9.556  22.459  0.00  0.00    +0.292 HD
ENDBRANCH  60  62
ENDBRANCH  54  57
ENDBRANCH  52  55
ENDBRANCH  51  52
ENDBRANCH  50  51
ENDBRANCH   1  50
TORSDOF 20
ENDMDL
MODEL 2
REMARK VINA RESULT:      -7.2      1.983      2.445
REMARK  Name = 
REMARK  20 active torsions:
REMARK  status: ('A' for Active; 'I' for Inactive)
REMARK    1  A    between atoms: C_3  and  O_60
REMARK    2  A    between atoms: C_6  and  C_7
REMARK    3  A    between atoms: C_8  and  C_9
REMARK    4  A    between atoms: C_9  and  O_11
REMARK    5  A    between atoms: O_11  and  C_12
REMARK    6  A    between atoms: C_12  and  C_13
REMARK    7  A    between atoms: C_15  and  O_59
REMARK    8  A    between atoms: C_17  and  O_47
REMARK    9  A    between atoms: C_19  and  O_46
REMARK   10  A    between atoms: C_21  and  O_24
REMARK   11  A    between atoms: O_24  and  C_25
REMARK   12  A    between atoms: C_26  and  C_38
REMARK   13  A    between atoms: C_30  and  O_37
REMARK   14  A    between atoms: C_32  and  O_36
REMARK   15  A    between atoms: C_40  and  O_45
REMARK   16  A    between atoms: C_41  and  O_44
REMARK   17  A    between atoms: O_47  and  C_48
REMARK   18  A    between atoms: C_48  and  C_50
REMARK   19  A    between atoms: C_51  and  C_52
REMARK   20  A    between atoms: C_55  and  O_58
REMARK                            x       y       z     vdW  Elec       q    Type
REMARK                         _______ _______ _______ _____ _____    ______ ____
ROOT
ATOM      1  C   UNL     1       4.666  -1.576  28.232  0.00  0.00    +0.192 C 
ATOM      2  O   UNL     1       5.815  -1.964  27.464  0.00  0.00    -0.330 OA
ATOM      3  C   UNL     1       6.638  -0.822  27.122  0.00  0.00    +0.341 C 
ATOM      4  C   UNL     1       5.855   0.114  26.178  0.00  0.00    +0.226 C 
ATOM      5  C   UNL     1       4.531   0.502  26.821  0.00  0.00    +0.242 C 
ATOM      6  C   UNL     1       3.753  -0.691  27.369  0.00  0.00    +0.190 C 
ENDROOT
BRANCH   6   7
ATOM      7  O   UNL     1       2.646  -0.159  28.107  0.00  0.00    -0.385 OA
ATOM      8  H   UNL     1       2.980   0.562  28.666  0.00  0.00    +0.210 HD
ENDBRANCH   6   7
BRANCH   4   9
ATOM      9  O   UNL     1       6.599   1.294  25.815  0.00  0.00    -0.382 OA
ATOM     10  H   UNL     1       5.975   1.966  25.477  0.00  0.00    +0.210 HD
ENDBRANCH   4   9
BRANCH   5  11
ATOM     11  O   UNL     1       3.706   1.120  25.811  0.00  0.00    -0.453 OA
BRANCH  11  12
ATOM     12  C   UNL     1       3.242   2.350  26.117  0.00  0.00    +0.332 C 
ATOM     13  O   UNL     1       2.298   2.619  26.843  0.00  0.00    -0.246 OA
BRANCH  12  14
ATOM     14  C   UNL     1       4.082   3.330  25.414  0.00  0.00    +0.092 C 
ATOM     15  C   UNL     1       4.289   3.155  24.101  0.00  0.00    +0.015 C 
BRANCH  15  16
ATOM     16  C   UNL     1       5.160   4.060  23.371  0.00  0.00    -0.025 A 
ATOM     17  C   UNL     1       4.799   5.398  23.189  0.00  0.00    +0.011 A 
ATOM     18  C   UNL     1       5.673   6.266  22.538  0.00  0.00    +0.046 A 
ATOM     19  C   UNL     1       6.899   5.795  22.082  0.00  0.00    +0.117 A 
ATOM     20  C   UNL     1       7.260   4.460  22.242  0.00  0.00    +0.046 A 
ATOM     21  C   UNL     1       6.385   3.589  22.889  0.00  0.00    +0.011 A 
BRANCH  19  22
ATOM     22  O   UNL     1       7.740   6.686  21.488  0.00  0.00    -0.507 OA
ATOM     23  H   UNL     1       8.095   7.276  22.174  0.00  0.00    +0.292 HD
ENDBRANCH  19  22
ENDBRANCH  15  16
ENDBRANCH  12  14
ENDBRANCH  11  12
ENDBRANCH   5  11
BRANCH   3  24
ATOM     24  O   UNL     1       7.780  -1.285  26.406  0.00  0.00    -0.453 OA
BRANCH  24  25
ATOM     25  C   UNL     1       7.709  -2.235  25.403  0.00  0.00    +0.214 A 
ATOM     26  C   UNL     1       7.303  -3.657  25.627  0.00  0.00    +0.238 A 
ATOM     27  O   UNL     1       7.480  -4.224  26.698  0.00  0.00    -0.283 OA
ATOM     28  C   UNL     1       6.757  -4.375  24.461  0.00  0.00    +0.109 A 
ATOM     29  C   UNL     1       7.008  -3.833  23.201  0.00  0.00    +0.147 A 
ATOM     30  C   UNL     1       6.502  -4.455  22.054  0.00  0.00    +0.092 A 
ATOM     31  C   UNL     1       5.767  -5.632  22.182  0.00  0.00    +0.124 A 
ATOM     32  C   UNL     1       5.534  -6.197  23.432  0.00  0.00    +0.091 A 
ATOM     33  O   UNL     1       7.784  -2.708  23.025  0.00  0.00    -0.451 OA
ATOM     34  C   UNL     1       6.028  -5.567  24.573  0.00  0.00    +0.135 A 
ATOM     35  C   UNL     1       8.050  -1.910  24.136  0.00  0.00    +0.181 A 
BRANCH  35  36
ATOM     36  C   UNL     1       8.769  -0.638  23.816  0.00  0.00    +0.025 A 
ATOM     37  C   UNL     1       9.694  -0.071  24.710  0.00  0.00    +0.015 A 
ATOM     38  C   UNL     1      10.376   1.113  24.388  0.00  0.00    +0.050 A 
ATOM     39  C   UNL     1      10.132   1.737  23.177  0.00  0.00    +0.158 A 
ATOM     40  C   UNL     1       9.196   1.220  22.291  0.00  0.00    +0.159 A 
ATOM     41  C   UNL     1       8.495   0.057  22.618  0.00  0.00    +0.060 A 
BRANCH  40  42
ATOM     42  O   UNL     1       8.996   1.873  21.106  0.00  0.00    -0.503 OA
ATOM     43  H   UNL     1       9.508   1.413  20.418  0.00  0.00    +0.292 HD
ENDBRANCH  40  42
BRANCH  39  44
ATOM     44  O   UNL     1      10.824   2.870  22.845  0.00  0.00    -0.503 OA
ATOM     45  H   UNL     1      11.590   2.550  22.327  0.00  0.00    +0.292 HD
ENDBRANCH  39  44
ENDBRANCH  35  36
BRANCH  34  46
ATOM     46  O   UNL     1       5.767  -6.121  25.794  0.00  0.00    -0.506 OA
ATOM     47  H   UNL     1       4.808  -6.146  25.952  0.00  0.00    +0.292 HD
ENDBRANCH  34  46
BRANCH  31  48
ATOM     48  O   UNL     1       5.247  -6.283  21.105  0.00  0.00    -0.507 OA
ATOM     49  H   UNL     1       5.189  -7.234  21.298  0.00  0.00    +0.292 HD
ENDBRANCH  31  48
ENDBRANCH  24  25
ENDBRANCH   3  24
BRANCH   1  50
ATOM     50  C   UNL     1       3.901  -2.825  28.724  0.00  0.00    +0.266 C 
BRANCH  50  51
ATOM     51  O   UNL     1       2.717  -3.053  27.917  0.00  0.00    -0.459 OA
BRANCH  51  52
ATOM     52  C   UNL     1       1.865  -4.020  28.361  0.00  0.00    +0.332 C 
ATOM     53  O   UNL     1       1.380  -4.081  29.477  0.00  0.00    -0.246 OA
BRANCH  52  55
ATOM     54  C   UNL     1       2.325  -4.929  26.141  0.00  0.00    +0.015 C 
ATOM     55  C   UNL     1       1.520  -4.906  27.217  0.00  0.00    +0.092 C 
BRANCH  54  57
ATOM     56  C   UNL     1       1.847  -5.320  23.682  0.00  0.00    +0.011 A 
ATOM     57  C   UNL     1       2.195  -5.795  24.956  0.00  0.00    -0.025 A 
ATOM     58  C   UNL     1       2.313  -7.182  25.138  0.00  0.00    +0.011 A 
ATOM     59  C   UNL     1       2.095  -8.071  24.080  0.00  0.00    +0.046 A 
ATOM     60  C   UNL     1       1.746  -7.581  22.829  0.00  0.00    +0.117 A 
ATOM     61  C   UNL     1       1.624  -6.210  22.620  0.00  0.00    +0.046 A 
BRANCH  60  62
ATOM     62  O   UNL     1       1.518  -8.485  21.835  0.00  0.00    -0.507 OA
ATOM     63  H   UNL     1       1.486  -8.018  20.984  0.00  0.00    +0.292 HD
ENDBRANCH  60  62
ENDBRANCH  54  57
ENDBRANCH  52  55
ENDBRANCH  51  52
ENDBRANCH  50  51
ENDBRANCH   1  50
TORSDOF 20
ENDMDL
MODEL 3
REMARK VINA RESULT:      -7.2      3.469      7.138
REMARK  Name = 
REMARK  20 active torsions:
REMARK  status: ('A' for Active; 'I' for Inactive)
REMARK    1  A    between atoms: C_3  and  O_60
REMARK    2  A    between atoms: C_6  and  C_7
REMARK    3  A    between atoms: C_8  and  C_9
REMARK    4  A    between atoms: C_9  and  O_11
REMARK    5  A    between atoms: O_11  and  C_12
REMARK    6  A    between atoms: C_12  and  C_13
REMARK    7  A    between atoms: C_15  and  O_59
REMARK    8  A    between atoms: C_17  and  O_47
REMARK    9  A    between atoms: C_19  and  O_46
REMARK   10  A    between atoms: C_21  and  O_24
REMARK   11  A    between atoms: O_24  and  C_25
REMARK   12  A    between atoms: C_26  and  C_38
REMARK   13  A    between atoms: C_30  and  O_37
REMARK   14  A    between atoms: C_32  and  O_36
REMARK   15  A    between atoms: C_40  and  O_45
REMARK   16  A    between atoms: C_41  and  O_44
REMARK   17  A    between atoms: O_47  and  C_48
REMARK   18  A    between atoms: C_48  and  C_50
REMARK   19  A    between atoms: C_51  and  C_52
REMARK   20  A    between atoms: C_55  and  O_58
REMARK                            x       y       z     vdW  Elec       q    Type
REMARK                         _______ _______ _______ _____ _____    ______ ____
ROOT
ATOM      1  C   UNL     1       5.041   1.362  27.212  0.00  0.00    +0.192 C 
ATOM      2  O   UNL     1       5.831   0.912  26.101  0.00  0.00    -0.330 OA
ATOM      3  C   UNL     1       5.969   1.943  25.093  0.00  0.00    +0.341 C 
ATOM      4  C   UNL     1       4.590   2.246  24.472  0.00  0.00    +0.226 C 
ATOM      5  C   UNL     1       3.602   2.612  25.570  0.00  0.00    +0.242 C 
ATOM      6  C   UNL     1       3.603   1.629  26.737  0.00  0.00    +0.190 C 
ENDROOT
BRANCH   6   7
ATOM      7  O   UNL     1       2.783   2.203  27.763  0.00  0.00    -0.385 OA
ATOM      8  H   UNL     1       1.872   1.901  27.617  0.00  0.00    +0.210 HD
ENDBRANCH   6   7
BRANCH   4   9
ATOM      9  O   UNL     1       4.639   3.287  23.477  0.00  0.00    -0.382 OA
ATOM     10  H   UNL     1       5.065   4.075  23.868  0.00  0.00    +0.210 HD
ENDBRANCH   4   9
BRANCH   5  11
ATOM     11  O   UNL     1       2.274   2.597  25.002  0.00  0.00    -0.453 OA
BRANCH  11  12
ATOM     12  C   UNL     1       1.622   3.778  25.029  0.00  0.00    +0.332 C 
ATOM     13  O   UNL     1       1.107   4.311  25.999  0.00  0.00    -0.246 OA
BRANCH  12  14
ATOM     14  C   UNL     1       1.634   4.323  23.664  0.00  0.00    +0.092 C 
ATOM     15  C   UNL     1       1.538   3.462  22.641  0.00  0.00    +0.015 C 
BRANCH  15  16
ATOM     16  C   UNL     1       1.607   3.943  21.272  0.00  0.00    -0.025 A 
ATOM     17  C   UNL     1       1.774   5.306  21.007  0.00  0.00    +0.011 A 
ATOM     18  C   UNL     1       1.897   5.743  19.690  0.00  0.00    +0.046 A 
ATOM     19  C   UNL     1       1.860   4.818  18.652  0.00  0.00    +0.117 A 
ATOM     20  C   UNL     1       1.675   3.462  18.903  0.00  0.00    +0.046 A 
ATOM     21  C   UNL     1       1.548   3.024  20.220  0.00  0.00    +0.011 A 
BRANCH  19  22
ATOM     22  O   UNL     1       2.026   5.284  17.382  0.00  0.00    -0.507 OA
ATOM     23  H   UNL     1       1.156   5.539  17.034  0.00  0.00    +0.292 HD
ENDBRANCH  19  22
ENDBRANCH  15  16
ENDBRANCH  12  14
ENDBRANCH  11  12
ENDBRANCH   5  11
BRANCH   3  24
ATOM     24  O   UNL     1       6.803   1.446  24.048  0.00  0.00    -0.453 OA
BRANCH  24  25
ATOM     25  C   UNL     1       7.981   2.061  23.664  0.00  0.00    +0.214 A 
ATOM     26  C   UNL     1       8.070   3.484  23.211  0.00  0.00    +0.238 A 
ATOM     27  O   UNL     1       7.130   4.057  22.675  0.00  0.00    -0.283 OA
ATOM     28  C   UNL     1       9.382   4.139  23.362  0.00  0.00    +0.109 A 
ATOM     29  C   UNL     1      10.492   3.314  23.541  0.00  0.00    +0.147 A 
ATOM     30  C   UNL     1      11.764   3.873  23.709  0.00  0.00    +0.092 A 
ATOM     31  C   UNL     1      11.913   5.258  23.672  0.00  0.00    +0.124 A 
ATOM     32  C   UNL     1      10.817   6.089  23.466  0.00  0.00    +0.091 A 
ATOM     33  O   UNL     1      10.399   1.939  23.519  0.00  0.00    -0.451 OA
ATOM     34  C   UNL     1       9.550   5.529  23.313  0.00  0.00    +0.135 A 
ATOM     35  C   UNL     1       9.138   1.362  23.651  0.00  0.00    +0.181 A 
BRANCH  35  36
ATOM     36  C   UNL     1       9.158  -0.129  23.766  0.00  0.00    +0.025 A 
ATOM     37  C   UNL     1       9.340  -0.952  22.642  0.00  0.00    +0.015 A 
ATOM     38  C   UNL     1       9.376  -2.350  22.768  0.00  0.00    +0.050 A 
ATOM     39  C   UNL     1       9.223  -2.929  24.016  0.00  0.00    +0.158 A 
ATOM     40  C   UNL     1       9.003  -2.142  25.138  0.00  0.00    +0.159 A 
ATOM     41  C   UNL     1       8.940  -0.753  25.014  0.00  0.00    +0.060 A 
BRANCH  40  42
ATOM     42  O   UNL     1       8.862  -2.765  26.348  0.00  0.00    -0.503 OA
ATOM     43  H   UNL     1       9.507  -2.376  26.964  0.00  0.00    +0.292 HD
ENDBRANCH  40  42
BRANCH  39  44
ATOM     44  O   UNL     1       9.295  -4.289  24.147  0.00  0.00    -0.503 OA
ATOM     45  H   UNL     1      10.203  -4.518  23.861  0.00  0.00    +0.292 HD
ENDBRANCH  39  44
ENDBRANCH  35  36
BRANCH  34  46
ATOM     46  O   UNL     1       8.481   6.362  23.139  0.00  0.00    -0.506 OA
ATOM     47  H   UNL     1       8.766   7.188  22.712  0.00  0.00    +0.292 HD
ENDBRANCH  34  46
BRANCH  31  48
ATOM     48  O   UNL     1      13.124   5.862  23.830  0.00  0.00    -0.507 OA
ATOM     49  H   UNL     1      13.826   5.263  23.528  0.00  0.00    +0.292 HD
ENDBRANCH  31  48
ENDBRANCH  24  25
ENDBRANCH   3  24
BRANCH   1  50
ATOM     50  C   UNL     1       5.050   0.309  28.341  0.00  0.00    +0.266 C 
BRANCH  50  51
ATOM     51  O   UNL     1       3.905  -0.575  28.230  0.00  0.00    -0.459 OA
BRANCH  51  52
ATOM     52  C   UNL     1       4.183  -1.901  28.082  0.00  0.00    +0.332 C 
ATOM     53  O   UNL     1       4.226  -2.722  28.980  0.00  0.00    -0.246 OA
BRANCH  52  55
ATOM     54  C   UNL     1       5.372  -2.850  26.171  0.00  0.00    +0.015 C 
ATOM     55  C   UNL     1       4.287  -2.201  26.629  0.00  0.00    +0.092 C 
BRANCH  54  57
ATOM     56  C   UNL     1       5.574  -2.454  23.675  0.00  0.00    +0.011 A 
ATOM     57  C   UNL     1       5.616  -3.305  24.791  0.00  0.00    -0.025 A 
ATOM     58  C   UNL     1       5.783  -4.681  24.571  0.00  0.00    +0.011 A 
ATOM     59  C   UNL     1       5.911  -5.196  23.278  0.00  0.00    +0.046 A 
ATOM     60  C   UNL     1       5.862  -4.340  22.186  0.00  0.00    +0.117 A 
ATOM     61  C   UNL     1       5.698  -2.970  22.375  0.00  0.00    +0.046 A 
BRANCH  60  62
ATOM     62  O   UNL     1       5.964  -4.889  20.943  0.00  0.00    -0.507 OA
ATOM     63  H   UNL     1       5.481  -5.732  20.929  0.00  0.00    +0.292 HD
ENDBRANCH  60  62
ENDBRANCH  54  57
ENDBRANCH  52  55
ENDBRANCH  51  52
ENDBRANCH  50  51
ENDBRANCH   1  50
TORSDOF 20
ENDMDL
MODEL 4
REMARK VINA RESULT:      -7.0      2.686      8.734
REMARK  Name = 
REMARK  20 active torsions:
REMARK  status: ('A' for Active; 'I' for Inactive)
REMARK    1  A    between atoms: C_3  and  O_60
REMARK    2  A    between atoms: C_6  and  C_7
REMARK    3  A    between atoms: C_8  and  C_9
REMARK    4  A    between atoms: C_9  and  O_11
REMARK    5  A    between atoms: O_11  and  C_12
REMARK    6  A    between atoms: C_12  and  C_13
REMARK    7  A    between atoms: C_15  and  O_59
REMARK    8  A    between atoms: C_17  and  O_47
REMARK    9  A    between atoms: C_19  and  O_46
REMARK   10  A    between atoms: C_21  and  O_24
REMARK   11  A    between atoms: O_24  and  C_25
REMARK   12  A    between atoms: C_26  and  C_38
REMARK   13  A    between atoms: C_30  and  O_37
REMARK   14  A    between atoms: C_32  and  O_36
REMARK   15  A    between atoms: C_40  and  O_45
REMARK   16  A    between atoms: C_41  and  O_44
REMARK   17  A    between atoms: O_47  and  C_48
REMARK   18  A    between atoms: C_48  and  C_50
REMARK   19  A    between atoms: C_51  and  C_52
REMARK   20  A    between atoms: C_55  and  O_58
REMARK                            x       y       z     vdW  Elec       q    Type
REMARK                         _______ _______ _______ _____ _____    ______ ____
ROOT
ATOM      1  C   UNL     1       9.919  -0.266  24.124  0.00  0.00    +0.192 C 
ATOM      2  O   UNL     1       8.876   0.381  24.869  0.00  0.00    -0.330 OA
ATOM      3  C   UNL     1       8.729  -0.195  26.191  0.00  0.00    +0.341 C 
ATOM      4  C   UNL     1       8.249  -1.655  26.066  0.00  0.00    +0.226 C 
ATOM      5  C   UNL     1       9.205  -2.437  25.176  0.00  0.00    +0.242 C 
ATOM      6  C   UNL     1       9.524  -1.728  23.863  0.00  0.00    +0.190 C 
ENDROOT
BRANCH   6   7
ATOM      7  O   UNL     1      10.571  -2.476  23.233  0.00  0.00    -0.385 OA
ATOM      8  H   UNL     1      11.380  -1.938  23.265  0.00  0.00    +0.210 HD
ENDBRANCH   6   7
BRANCH   4   9
ATOM      9  O   UNL     1       8.107  -2.309  27.342  0.00  0.00    -0.382 OA
ATOM     10  H   UNL     1       7.313  -2.881  27.316  0.00  0.00    +0.210 HD
ENDBRANCH   4   9
BRANCH   5  11
ATOM     11  O   UNL     1       8.580  -3.694  24.841  0.00  0.00    -0.453 OA
BRANCH  11  12
ATOM     12  C   UNL     1       9.203  -4.793  25.315  0.00  0.00    +0.332 C 
ATOM     13  O   UNL     1      10.332  -5.171  25.045  0.00  0.00    -0.246 OA
BRANCH  12  14
ATOM     14  C   UNL     1       8.273  -5.473  26.227  0.00  0.00    +0.092 C 
ATOM     15  C   UNL     1       6.966  -5.202  26.112  0.00  0.00    +0.015 C 
BRANCH  15  16
ATOM     16  C   UNL     1       6.011  -5.800  27.029  0.00  0.00    -0.025 A 
ATOM     17  C   UNL     1       4.791  -6.295  26.557  0.00  0.00    +0.011 A 
ATOM     18  C   UNL     1       3.912  -6.919  27.440  0.00  0.00    +0.046 A 
ATOM     19  C   UNL     1       4.260  -7.049  28.780  0.00  0.00    +0.117 A 
ATOM     20  C   UNL     1       5.464  -6.543  29.263  0.00  0.00    +0.046 A 
ATOM     21  C   UNL     1       6.342  -5.916  28.382  0.00  0.00    +0.011 A 
BRANCH  19  22
ATOM     22  O   UNL     1       3.390  -7.702  29.600  0.00  0.00    -0.507 OA
ATOM     23  H   UNL     1       2.882  -8.335  29.066  0.00  0.00    +0.292 HD
ENDBRANCH  19  22
ENDBRANCH  15  16
ENDBRANCH  12  14
ENDBRANCH  11  12
ENDBRANCH   5  11
BRANCH   3  24
ATOM     24  O   UNL     1       7.715   0.526  26.888  0.00  0.00    -0.453 OA
BRANCH  24  25
ATOM     25  C   UNL     1       6.794   1.339  26.253  0.00  0.00    +0.214 A 
ATOM     26  C   UNL     1       7.099   2.716  25.754  0.00  0.00    +0.238 A 
ATOM     27  O   UNL     1       7.961   3.418  26.268  0.00  0.00    -0.283 OA
ATOM     28  C   UNL     1       6.247   3.223  24.664  0.00  0.00    +0.109 A 
ATOM     29  C   UNL     1       5.030   2.576  24.450  0.00  0.00    +0.147 A 
ATOM     30  C   UNL     1       4.182   2.996  23.419  0.00  0.00    +0.092 A 
ATOM     31  C   UNL     1       4.555   4.080  22.626  0.00  0.00    +0.124 A 
ATOM     32  C   UNL     1       5.754   4.750  22.848  0.00  0.00    +0.091 A 
ATOM     33  O   UNL     1       4.594   1.544  25.252  0.00  0.00    -0.451 OA
ATOM     34  C   UNL     1       6.601   4.320  23.867  0.00  0.00    +0.135 A 
ATOM     35  C   UNL     1       5.521   0.916  26.081  0.00  0.00    +0.181 A 
BRANCH  35  36
ATOM     36  C   UNL     1       4.987  -0.284  26.796  0.00  0.00    +0.025 A 
ATOM     37  C   UNL     1       4.722  -1.486  26.118  0.00  0.00    +0.015 A 
ATOM     38  C   UNL     1       4.239  -2.611  26.806  0.00  0.00    +0.050 A 
ATOM     39  C   UNL     1       4.013  -2.535  28.170  0.00  0.00    +0.158 A 
ATOM     40  C   UNL     1       4.230  -1.349  28.857  0.00  0.00    +0.159 A 
ATOM     41  C   UNL     1       4.684  -0.220  28.173  0.00  0.00    +0.060 A 
BRANCH  40  42
ATOM     42  O   UNL     1       3.995  -1.330  30.205  0.00  0.00    -0.503 OA
ATOM     43  H   UNL     1       3.126  -1.740  30.365  0.00  0.00    +0.292 HD
ENDBRANCH  40  42
BRANCH  39  44
ATOM     44  O   UNL     1       3.579  -3.641  28.848  0.00  0.00    -0.503 OA
ATOM     45  H   UNL     1       3.609  -4.364  28.189  0.00  0.00    +0.292 HD
ENDBRANCH  39  44
ENDBRANCH  35  36
BRANCH  34  46
ATOM     46  O   UNL     1       7.787   4.973  24.054  0.00  0.00    -0.506 OA
ATOM     47  H   UNL     1       7.867   5.264  24.977  0.00  0.00    +0.292 HD
ENDBRANCH  34  46
BRANCH  31  48
ATOM     48  O   UNL     1       3.774   4.535  21.606  0.00  0.00    -0.507 OA
ATOM     49  H   UNL     1       3.292   5.327  21.896  0.00  0.00    +0.292 HD
ENDBRANCH  31  48
ENDBRANCH  24  25
ENDBRANCH   3  24
BRANCH   1  50
ATOM     50  C   UNL     1      10.166   0.474  22.791  0.00  0.00    +0.266 C 
BRANCH  50  51
ATOM     51  O   UNL     1       9.180   0.089  21.798  0.00  0.00    -0.459 OA
BRANCH  51  52
ATOM     52  C   UNL     1       7.927   0.597  21.969  0.00  0.00    +0.332 C 
ATOM     53  O   UNL     1       7.596   1.752  21.773  0.00  0.00    -0.246 OA
BRANCH  52  55
ATOM     54  C   UNL     1       7.302  -1.763  21.873  0.00  0.00    +0.015 C 
ATOM     55  C   UNL     1       7.006  -0.523  22.300  0.00  0.00    +0.092 C 
BRANCH  54  57
ATOM     56  C   UNL     1       5.359  -3.035  22.890  0.00  0.00    +0.011 A 
ATOM     57  C   UNL     1       6.563  -3.003  22.168  0.00  0.00    -0.025 A 
ATOM     58  C   UNL     1       7.154  -4.223  21.808  0.00  0.00    +0.011 A 
ATOM     59  C   UNL     1       6.562  -5.443  22.151  0.00  0.00    +0.046 A 
ATOM     60  C   UNL     1       5.375  -5.454  22.870  0.00  0.00    +0.117 A 
ATOM     61  C   UNL     1       4.765  -4.259  23.239  0.00  0.00    +0.046 A 
BRANCH  60  62
ATOM     62  O   UNL     1       4.848  -6.665  23.206  0.00  0.00    -0.507 OA
ATOM     63  H   UNL     1       3.922  -6.700  22.914  0.00  0.00    +0.292 HD
ENDBRANCH  60  62
ENDBRANCH  54  57
ENDBRANCH  52  55
ENDBRANCH  51  52
ENDBRANCH  50  51
ENDBRANCH   1  50
TORSDOF 20
ENDMDL
MODEL 5
REMARK VINA RESULT:      -7.0      2.619      7.111
REMARK  Name = 
REMARK  20 active torsions:
REMARK  status: ('A' for Active; 'I' for Inactive)
REMARK    1  A    between atoms: C_3  and  O_60
REMARK    2  A    between atoms: C_6  and  C_7
REMARK    3  A    between atoms: C_8  and  C_9
REMARK    4  A    between atoms: C_9  and  O_11
REMARK    5  A    between atoms: O_11  and  C_12
REMARK    6  A    between atoms: C_12  and  C_13
REMARK    7  A    between atoms: C_15  and  O_59
REMARK    8  A    between atoms: C_17  and  O_47
REMARK    9  A    between atoms: C_19  and  O_46
REMARK   10  A    between atoms: C_21  and  O_24
REMARK   11  A    between atoms: O_24  and  C_25
REMARK   12  A    between atoms: C_26  and  C_38
REMARK   13  A    between atoms: C_30  and  O_37
REMARK   14  A    between atoms: C_32  and  O_36
REMARK   15  A    between atoms: C_40  and  O_45
REMARK   16  A    between atoms: C_41  and  O_44
REMARK   17  A    between atoms: O_47  and  C_48
REMARK   18  A    between atoms: C_48  and  C_50
REMARK   19  A    between atoms: C_51  and  C_52
REMARK   20  A    between atoms: C_55  and  O_58
REMARK                            x       y       z     vdW  Elec       q    Type
REMARK                         _______ _______ _______ _____ _____    ______ ____
ROOT
ATOM      1  C   UNL     1       6.683  -1.658  23.225  0.00  0.00    +0.192 C 
ATOM      2  O   UNL     1       6.386  -1.981  24.591  0.00  0.00    -0.330 OA
ATOM      3  C   UNL     1       6.745  -0.898  25.485  0.00  0.00    +0.341 C 
ATOM      4  C   UNL     1       8.275  -0.702  25.470  0.00  0.00    +0.226 C 
ATOM      5  C   UNL     1       8.751  -0.481  24.041  0.00  0.00    +0.242 C 
ATOM      6  C   UNL     1       8.204  -1.510  23.056  0.00  0.00    +0.190 C 
ENDROOT
BRANCH   6   7
ATOM      7  O   UNL     1       8.570  -1.063  21.745  0.00  0.00    -0.385 OA
ATOM      8  H   UNL     1       9.040  -0.217  21.840  0.00  0.00    +0.210 HD
ENDBRANCH   6   7
BRANCH   4   9
ATOM      9  O   UNL     1       8.710   0.381  26.315  0.00  0.00    -0.382 OA
ATOM     10  H   UNL     1       9.474   0.079  26.845  0.00  0.00    +0.210 HD
ENDBRANCH   4   9
BRANCH   5  11
ATOM     11  O   UNL     1      10.190  -0.599  24.025  0.00  0.00    -0.453 OA
BRANCH  11  12
ATOM     12  C   UNL     1      10.865   0.561  24.158  0.00  0.00    +0.332 C 
ATOM     13  O   UNL     1      11.920   0.733  24.749  0.00  0.00    -0.246 OA
BRANCH  12  14
ATOM     14  C   UNL     1      10.101   1.604  23.460  0.00  0.00    +0.092 C 
ATOM     15  C   UNL     1       9.843   2.743  24.117  0.00  0.00    +0.015 C 
BRANCH  15  16
ATOM     16  C   UNL     1       9.039   3.781  23.495  0.00  0.00    -0.025 A 
ATOM     17  C   UNL     1       9.389   5.127  23.637  0.00  0.00    +0.011 A 
ATOM     18  C   UNL     1       8.642   6.106  22.985  0.00  0.00    +0.046 A 
ATOM     19  C   UNL     1       7.560   5.734  22.194  0.00  0.00    +0.117 A 
ATOM     20  C   UNL     1       7.193   4.398  22.062  0.00  0.00    +0.046 A 
ATOM     21  C   UNL     1       7.937   3.418  22.716  0.00  0.00    +0.011 A 
BRANCH  19  22
ATOM     22  O   UNL     1       6.882   6.719  21.542  0.00  0.00    -0.507 OA
ATOM     23  H   UNL     1       6.074   6.916  22.041  0.00  0.00    +0.292 HD
ENDBRANCH  19  22
ENDBRANCH  15  16
ENDBRANCH  12  14
ENDBRANCH  11  12
ENDBRANCH   5  11
BRANCH   3  24
ATOM     24  O   UNL     1       6.379  -1.267  26.813  0.00  0.00    -0.453 OA
BRANCH  24  25
ATOM     25  C   UNL     1       5.688  -0.426  27.667  0.00  0.00    +0.214 A 
ATOM     26  C   UNL     1       6.312   0.723  28.393  0.00  0.00    +0.238 A 
ATOM     27  O   UNL     1       7.497   0.733  28.700  0.00  0.00    -0.283 OA
ATOM     28  C   UNL     1       5.406   1.812  28.802  0.00  0.00    +0.109 A 
ATOM     29  C   UNL     1       4.040   1.529  28.831  0.00  0.00    +0.147 A 
ATOM     30  C   UNL     1       3.125   2.524  29.192  0.00  0.00    +0.092 A 
ATOM     31  C   UNL     1       3.592   3.789  29.545  0.00  0.00    +0.124 A 
ATOM     32  C   UNL     1       4.953   4.073  29.546  0.00  0.00    +0.091 A 
ATOM     33  O   UNL     1       3.542   0.275  28.553  0.00  0.00    -0.451 OA
ATOM     34  C   UNL     1       5.861   3.084  29.173  0.00  0.00    +0.135 A 
ATOM     35  C   UNL     1       4.376  -0.639  27.914  0.00  0.00    +0.181 A 
BRANCH  35  36
ATOM     36  C   UNL     1       3.698  -1.914  27.522  0.00  0.00    +0.025 A 
ATOM     37  C   UNL     1       3.352  -2.183  26.187  0.00  0.00    +0.015 A 
ATOM     38  C   UNL     1       2.734  -3.392  25.830  0.00  0.00    +0.050 A 
ATOM     39  C   UNL     1       2.454  -4.331  26.808  0.00  0.00    +0.158 A 
ATOM     40  C   UNL     1       2.750  -4.076  28.140  0.00  0.00    +0.159 A 
ATOM     41  C   UNL     1       3.340  -2.864  28.503  0.00  0.00    +0.060 A 
BRANCH  40  42
ATOM     42  O   UNL     1       2.456  -5.041  29.064  0.00  0.00    -0.503 OA
ATOM     43  H   UNL     1       1.635  -4.783  29.519  0.00  0.00    +0.292 HD
ENDBRANCH  40  42
BRANCH  39  44
ATOM     44  O   UNL     1       1.886  -5.526  26.458  0.00  0.00    -0.503 OA
ATOM     45  H   UNL     1       2.560  -5.968  25.903  0.00  0.00    +0.292 HD
ENDBRANCH  39  44
ENDBRANCH  35  36
BRANCH  34  46
ATOM     46  O   UNL     1       7.193   3.389  29.153  0.00  0.00    -0.506 OA
ATOM     47  H   UNL     1       7.619   2.981  28.381  0.00  0.00    +0.292 HD
ENDBRANCH  34  46
BRANCH  31  48
ATOM     48  O   UNL     1       2.751   4.798  29.904  0.00  0.00    -0.507 OA
ATOM     49  H   UNL     1       1.888   4.428  30.153  0.00  0.00    +0.292 HD
ENDBRANCH  31  48
ENDBRANCH  24  25
ENDBRANCH   3  24
BRANCH   1  50
ATOM     50  C   UNL     1       6.139  -2.754  22.282  0.00  0.00    +0.266 C 
BRANCH  50  51
ATOM     51  O   UNL     1       7.170  -3.729  21.978  0.00  0.00    -0.459 OA
BRANCH  51  52
ATOM     52  C   UNL     1       6.879  -5.025  22.283  0.00  0.00    +0.332 C 
ATOM     53  O   UNL     1       6.692  -5.919  21.478  0.00  0.00    -0.246 OA
BRANCH  52  55
ATOM     54  C   UNL     1       5.836  -5.374  24.464  0.00  0.00    +0.015 C 
ATOM     55  C   UNL     1       6.965  -5.192  23.759  0.00  0.00    +0.092 C 
BRANCH  54  57
ATOM     56  C   UNL     1       6.402  -4.891  26.888  0.00  0.00    +0.011 A 
ATOM     57  C   UNL     1       5.726  -5.638  25.910  0.00  0.00    -0.025 A 
ATOM     58  C   UNL     1       5.000  -6.767  26.319  0.00  0.00    +0.011 A 
ATOM     59  C   UNL     1       4.943  -7.140  27.666  0.00  0.00    +0.046 A 
ATOM     60  C   UNL     1       5.622  -6.392  28.618  0.00  0.00    +0.117 A 
ATOM     61  C   UNL     1       6.349  -5.267  28.240  0.00  0.00    +0.046 A 
BRANCH  60  62
ATOM     62  O   UNL     1       5.560  -6.809  29.914  0.00  0.00    -0.507 OA
ATOM     63  H   UNL     1       6.446  -7.090  30.199  0.00  0.00    +0.292 HD
ENDBRANCH  60  62
ENDBRANCH  54  57
ENDBRANCH  52  55
ENDBRANCH  51  52
ENDBRANCH  50  51
ENDBRANCH   1  50
TORSDOF 20
ENDMDL
MODEL 6
REMARK VINA RESULT:      -6.8      1.744      8.255
REMARK  Name = 
REMARK  20 active torsions:
REMARK  status: ('A' for Active; 'I' for Inactive)
REMARK    1  A    between atoms: C_3  and  O_60
REMARK    2  A    between atoms: C_6  and  C_7
REMARK    3  A    between atoms: C_8  and  C_9
REMARK    4  A    between atoms: C_9  and  O_11
REMARK    5  A    between atoms: O_11  and  C_12
REMARK    6  A    between atoms: C_12  and  C_13
REMARK    7  A    between atoms: C_15  and  O_59
REMARK    8  A    between atoms: C_17  and  O_47
REMARK    9  A    between atoms: C_19  and  O_46
REMARK   10  A    between atoms: C_21  and  O_24
REMARK   11  A    between atoms: O_24  and  C_25
REMARK   12  A    between atoms: C_26  and  C_38
REMARK   13  A    between atoms: C_30  and  O_37
REMARK   14  A    between atoms: C_32  and  O_36
REMARK   15  A    between atoms: C_40  and  O_45
REMARK   16  A    between atoms: C_41  and  O_44
REMARK   17  A    between atoms: O_47  and  C_48
REMARK   18  A    between atoms: C_48  and  C_50
REMARK   19  A    between atoms: C_51  and  C_52
REMARK   20  A    between atoms: C_55  and  O_58
REMARK                            x       y       z     vdW  Elec       q    Type
REMARK                         _______ _______ _______ _____ _____    ______ ____
ROOT
ATOM      1  C   UNL     1       6.404   1.571  28.146  0.00  0.00    +0.192 C 
ATOM      2  O   UNL     1       7.449   0.657  27.784  0.00  0.00    -0.330 OA
ATOM      3  C   UNL     1       7.069  -0.166  26.653  0.00  0.00    +0.341 C 
ATOM      4  C   UNL     1       5.893  -1.081  27.053  0.00  0.00    +0.226 C 
ATOM      5  C   UNL     1       4.746  -0.237  27.592  0.00  0.00    +0.242 C 
ATOM      6  C   UNL     1       5.184   0.778  28.643  0.00  0.00    +0.190 C 
ENDROOT
BRANCH   6   7
ATOM      7  O   UNL     1       4.053   1.617  28.905  0.00  0.00    -0.385 OA
ATOM      8  H   UNL     1       4.275   2.187  29.660  0.00  0.00    +0.210 HD
ENDBRANCH   6   7
BRANCH   4   9
ATOM      9  O   UNL     1       5.436  -1.912  25.968  0.00  0.00    -0.382 OA
ATOM     10  H   UNL     1       4.495  -1.711  25.794  0.00  0.00    +0.210 HD
ENDBRANCH   4   9
BRANCH   5  11
ATOM     11  O   UNL     1       3.798  -1.123  28.225  0.00  0.00    -0.453 OA
BRANCH  11  12
ATOM     12  C   UNL     1       2.561  -1.126  27.685  0.00  0.00    +0.332 C 
ATOM     13  O   UNL     1       1.666  -0.322  27.894  0.00  0.00    -0.246 OA
BRANCH  12  14
ATOM     14  C   UNL     1       2.471  -2.285  26.786  0.00  0.00    +0.092 C 
ATOM     15  C   UNL     1       2.875  -3.475  27.251  0.00  0.00    +0.015 C 
BRANCH  15  16
ATOM     16  C   UNL     1       2.864  -4.642  26.384  0.00  0.00    -0.025 A 
ATOM     17  C   UNL     1       2.660  -4.499  25.009  0.00  0.00    +0.011 A 
ATOM     18  C   UNL     1       2.712  -5.621  24.184  0.00  0.00    +0.046 A 
ATOM     19  C   UNL     1       2.973  -6.870  24.737  0.00  0.00    +0.117 A 
ATOM     20  C   UNL     1       3.159  -7.025  26.107  0.00  0.00    +0.046 A 
ATOM     21  C   UNL     1       3.103  -5.905  26.934  0.00  0.00    +0.011 A 
BRANCH  19  22
ATOM     22  O   UNL     1       3.056  -7.934  23.889  0.00  0.00    -0.507 OA
ATOM     23  H   UNL     1       3.841  -8.454  24.127  0.00  0.00    +0.292 HD
ENDBRANCH  19  22
ENDBRANCH  15  16
ENDBRANCH  12  14
ENDBRANCH  11  12
ENDBRANCH   5  11
BRANCH   3  24
ATOM     24  O   UNL     1       8.167  -1.011  26.318  0.00  0.00    -0.453 OA
BRANCH  24  25
ATOM     25  C   UNL     1       8.144  -1.895  25.254  0.00  0.00    +0.214 A 
ATOM     26  C   UNL     1       7.806  -3.346  25.381  0.00  0.00    +0.238 A 
ATOM     27  O   UNL     1       8.007  -3.973  26.413  0.00  0.00    -0.283 OA
ATOM     28  C   UNL     1       7.297  -4.010  24.167  0.00  0.00    +0.109 A 
ATOM     29  C   UNL     1       7.525  -3.374  22.948  0.00  0.00    +0.147 A 
ATOM     30  C   UNL     1       7.051  -3.942  21.759  0.00  0.00    +0.092 A 
ATOM     31  C   UNL     1       6.373  -5.159  21.806  0.00  0.00    +0.124 A 
ATOM     32  C   UNL     1       6.165  -5.816  23.014  0.00  0.00    +0.091 A 
ATOM     33  O   UNL     1       8.246  -2.204  22.850  0.00  0.00    -0.451 OA
ATOM     34  C   UNL     1       6.626  -5.240  24.196  0.00  0.00    +0.135 A 
ATOM     35  C   UNL     1       8.471  -1.470  24.013  0.00  0.00    +0.181 A 
BRANCH  35  36
ATOM     36  C   UNL     1       9.130  -0.147  23.781  0.00  0.00    +0.025 A 
ATOM     37  C   UNL     1      10.363   0.174  24.373  0.00  0.00    +0.015 A 
ATOM     38  C   UNL     1      10.979   1.413  24.132  0.00  0.00    +0.050 A 
ATOM     39  C   UNL     1      10.361   2.335  23.305  0.00  0.00    +0.158 A 
ATOM     40  C   UNL     1       9.124   2.059  22.738  0.00  0.00    +0.159 A 
ATOM     41  C   UNL     1       8.495   0.840  22.996  0.00  0.00    +0.060 A 
BRANCH  40  42
ATOM     42  O   UNL     1       8.561   3.004  21.925  0.00  0.00    -0.503 OA
ATOM     43  H   UNL     1       7.631   2.758  21.775  0.00  0.00    +0.292 HD
ENDBRANCH  40  42
BRANCH  39  44
ATOM     44  O   UNL     1      10.977   3.527  23.038  0.00  0.00    -0.503 OA
ATOM     45  H   UNL     1      11.183   3.903  23.919  0.00  0.00    +0.292 HD
ENDBRANCH  39  44
ENDBRANCH  35  36
BRANCH  34  46
ATOM     46  O   UNL     1       6.389  -5.886  25.377  0.00  0.00    -0.506 OA
ATOM     47  H   UNL     1       6.711  -6.801  25.328  0.00  0.00    +0.292 HD
ENDBRANCH  34  46
BRANCH  31  48
ATOM     48  O   UNL     1       5.887  -5.762  20.684  0.00  0.00    -0.507 OA
ATOM     49  H   UNL     1       4.919  -5.690  20.672  0.00  0.00    +0.292 HD
ENDBRANCH  31  48
ENDBRANCH  24  25
ENDBRANCH   3  24
BRANCH   1  50
ATOM     50  C   UNL     1       6.896   2.545  29.239  0.00  0.00    +0.266 C 
BRANCH  50  51
ATOM     51  O   UNL     1       6.149   3.789  29.195  0.00  0.00    -0.459 OA
BRANCH  51  52
ATOM     52  C   UNL     1       6.879   4.920  28.987  0.00  0.00    +0.332 C 
ATOM     53  O   UNL     1       7.702   5.386  29.755  0.00  0.00    -0.246 OA
BRANCH  52  55
ATOM     54  C   UNL     1       7.565   5.313  26.676  0.00  0.00    +0.015 C 
ATOM     55  C   UNL     1       6.604   5.412  27.610  0.00  0.00    +0.092 C 
BRANCH  54  57
ATOM     56  C   UNL     1       6.280   5.504  24.499  0.00  0.00    +0.011 A 
ATOM     57  C   UNL     1       7.455   5.666  25.250  0.00  0.00    -0.025 A 
ATOM     58  C   UNL     1       8.619   6.076  24.581  0.00  0.00    +0.011 A 
ATOM     59  C   UNL     1       8.613   6.324  23.205  0.00  0.00    +0.046 A 
ATOM     60  C   UNL     1       7.442   6.152  22.479  0.00  0.00    +0.117 A 
ATOM     61  C   UNL     1       6.273   5.748  23.116  0.00  0.00    +0.046 A 
BRANCH  60  62
ATOM     62  O   UNL     1       7.490   6.379  21.136  0.00  0.00    -0.507 OA
ATOM     63  H   UNL     1       7.949   7.220  20.973  0.00  0.00    +0.292 HD
ENDBRANCH  60  62
ENDBRANCH  54  57
ENDBRANCH  52  55
ENDBRANCH  51  52
ENDBRANCH  50  51
ENDBRANCH   1  50
TORSDOF 20
ENDMDL
MODEL 7
REMARK VINA RESULT:      -6.7      1.814      8.239
REMARK  Name = 
REMARK  20 active torsions:
REMARK  status: ('A' for Active; 'I' for Inactive)
REMARK    1  A    between atoms: C_3  and  O_60
REMARK    2  A    between atoms: C_6  and  C_7
REMARK    3  A    between atoms: C_8  and  C_9
REMARK    4  A    between atoms: C_9  and  O_11
REMARK    5  A    between atoms: O_11  and  C_12
REMARK    6  A    between atoms: C_12  and  C_13
REMARK    7  A    between atoms: C_15  and  O_59
REMARK    8  A    between atoms: C_17  and  O_47
REMARK    9  A    between atoms: C_19  and  O_46
REMARK   10  A    between atoms: C_21  and  O_24
REMARK   11  A    between atoms: O_24  and  C_25
REMARK   12  A    between atoms: C_26  and  C_38
REMARK   13  A    between atoms: C_30  and  O_37
REMARK   14  A    between atoms: C_32  and  O_36
REMARK   15  A    between atoms: C_40  and  O_45
REMARK   16  A    between atoms: C_41  and  O_44
REMARK   17  A    between atoms: O_47  and  C_48
REMARK   18  A    between atoms: C_48  and  C_50
REMARK   19  A    between atoms: C_51  and  C_52
REMARK   20  A    between atoms: C_55  and  O_58
REMARK                            x       y       z     vdW  Elec       q    Type
REMARK                         _______ _______ _______ _____ _____    ______ ____
ROOT
ATOM      1  C   UNL     1       7.009  -0.180  26.850  0.00  0.00    +0.192 C 
ATOM      2  O   UNL     1       7.131   0.352  25.523  0.00  0.00    -0.330 OA
ATOM      3  C   UNL     1       6.258   1.492  25.325  0.00  0.00    +0.341 C 
ATOM      4  C   UNL     1       4.787   1.037  25.412  0.00  0.00    +0.226 C 
ATOM      5  C   UNL     1       4.547   0.324  26.735  0.00  0.00    +0.242 C 
ATOM      6  C   UNL     1       5.592  -0.744  27.044  0.00  0.00    +0.190 C 
ENDROOT
BRANCH   6   7
ATOM      7  O   UNL     1       5.353  -1.181  28.387  0.00  0.00    -0.385 OA
ATOM      8  H   UNL     1       4.453  -1.545  28.425  0.00  0.00    +0.210 HD
ENDBRANCH   6   7
BRANCH   4   9
ATOM      9  O   UNL     1       3.854   2.124  25.253  0.00  0.00    -0.382 OA
ATOM     10  H   UNL     1       4.355   2.961  25.187  0.00  0.00    +0.210 HD
ENDBRANCH   4   9
BRANCH   5  11
ATOM     11  O   UNL     1       3.268  -0.340  26.661  0.00  0.00    -0.453 OA
BRANCH  11  12
ATOM     12  C   UNL     1       2.673  -0.581  27.848  0.00  0.00    +0.332 C 
ATOM     13  O   UNL     1       2.665   0.148  28.827  0.00  0.00    -0.246 OA
BRANCH  12  14
ATOM     14  C   UNL     1       2.027  -1.899  27.763  0.00  0.00    +0.092 C 
ATOM     15  C   UNL     1       2.680  -2.880  27.125  0.00  0.00    +0.015 C 
BRANCH  15  16
ATOM     16  C   UNL     1       2.059  -4.184  26.959  0.00  0.00    -0.025 A 
ATOM     17  C   UNL     1       1.062  -4.376  25.999  0.00  0.00    +0.011 A 
ATOM     18  C   UNL     1       0.519  -5.645  25.812  0.00  0.00    +0.046 A 
ATOM     19  C   UNL     1       0.981  -6.710  26.577  0.00  0.00    +0.117 A 
ATOM     20  C   UNL     1       1.960  -6.526  27.549  0.00  0.00    +0.046 A 
ATOM     21  C   UNL     1       2.500  -5.256  27.740  0.00  0.00    +0.011 A 
BRANCH  19  22
ATOM     22  O   UNL     1       0.453  -7.942  26.334  0.00  0.00    -0.507 OA
ATOM     23  H   UNL     1      -0.390  -7.827  25.865  0.00  0.00    +0.292 HD
ENDBRANCH  19  22
ENDBRANCH  15  16
ENDBRANCH  12  14
ENDBRANCH  11  12
ENDBRANCH   5  11
BRANCH   3  24
ATOM     24  O   UNL     1       6.467   1.998  24.008  0.00  0.00    -0.453 OA
BRANCH  24  25
ATOM     25  C   UNL     1       7.675   2.519  23.581  0.00  0.00    +0.214 A 
ATOM     26  C   UNL     1       7.938   3.980  23.403  0.00  0.00    +0.238 A 
ATOM     27  O   UNL     1       7.046   4.774  23.130  0.00  0.00    -0.283 OA
ATOM     28  C   UNL     1       9.346   4.409  23.484  0.00  0.00    +0.109 A 
ATOM     29  C   UNL     1      10.323   3.425  23.337  0.00  0.00    +0.147 A 
ATOM     30  C   UNL     1      11.679   3.762  23.423  0.00  0.00    +0.092 A 
ATOM     31  C   UNL     1      12.041   5.091  23.631  0.00  0.00    +0.124 A 
ATOM     32  C   UNL     1      11.075   6.085  23.751  0.00  0.00    +0.091 A 
ATOM     33  O   UNL     1      10.010   2.111  23.065  0.00  0.00    -0.451 OA
ATOM     34  C   UNL     1       9.726   5.743  23.679  0.00  0.00    +0.135 A 
ATOM     35  C   UNL     1       8.697   1.691  23.265  0.00  0.00    +0.181 A 
BRANCH  35  36
ATOM     36  C   UNL     1       8.492   0.220  23.088  0.00  0.00    +0.025 A 
ATOM     37  C   UNL     1       7.329  -0.294  22.489  0.00  0.00    +0.015 A 
ATOM     38  C   UNL     1       7.159  -1.676  22.311  0.00  0.00    +0.050 A 
ATOM     39  C   UNL     1       8.146  -2.548  22.738  0.00  0.00    +0.158 A 
ATOM     40  C   UNL     1       9.287  -2.070  23.367  0.00  0.00    +0.159 A 
ATOM     41  C   UNL     1       9.449  -0.699  23.570  0.00  0.00    +0.060 A 
BRANCH  40  42
ATOM     42  O   UNL     1      10.233  -2.975  23.765  0.00  0.00    -0.503 OA
ATOM     43  H   UNL     1       9.778  -3.714  24.204  0.00  0.00    +0.292 HD
ENDBRANCH  40  42
BRANCH  39  44
ATOM     44  O   UNL     1       7.999  -3.893  22.532  0.00  0.00    -0.503 OA
ATOM     45  H   UNL     1       7.590  -4.227  23.356  0.00  0.00    +0.292 HD
ENDBRANCH  39  44
ENDBRANCH  35  36
BRANCH  34  46
ATOM     46  O   UNL     1       8.791   6.729  23.827  0.00  0.00    -0.506 OA
ATOM     47  H   UNL     1       8.216   6.763  23.045  0.00  0.00    +0.292 HD
ENDBRANCH  34  46
BRANCH  31  48
ATOM     48  O   UNL     1      13.343   5.482  23.725  0.00  0.00    -0.507 OA
ATOM     49  H   UNL     1      13.393   6.452  23.698  0.00  0.00    +0.292 HD
ENDBRANCH  31  48
ENDBRANCH  24  25
ENDBRANCH   3  24
BRANCH   1  50
ATOM     50  C   UNL     1       8.066  -1.282  27.087  0.00  0.00    +0.266 C 
BRANCH  50  51
ATOM     51  O   UNL     1       7.455  -2.597  27.051  0.00  0.00    -0.459 OA
BRANCH  51  52
ATOM     52  C   UNL     1       8.194  -3.586  26.475  0.00  0.00    +0.332 C 
ATOM     53  O   UNL     1       9.406  -3.696  26.538  0.00  0.00    -0.246 OA
BRANCH  52  55
ATOM     54  C   UNL     1       6.008  -4.207  25.580  0.00  0.00    +0.015 C 
ATOM     55  C   UNL     1       7.265  -4.581  25.874  0.00  0.00    +0.092 C 
BRANCH  54  57
ATOM     56  C   UNL     1       4.805  -6.394  25.135  0.00  0.00    +0.011 A 
ATOM     57  C   UNL     1       4.976  -5.019  24.911  0.00  0.00    -0.025 A 
ATOM     58  C   UNL     1       4.201  -4.407  23.913  0.00  0.00    +0.011 A 
ATOM     59  C   UNL     1       3.278  -5.142  23.163  0.00  0.00    +0.046 A 
ATOM     60  C   UNL     1       3.127  -6.502  23.396  0.00  0.00    +0.117 A 
ATOM     61  C   UNL     1       3.881  -7.135  24.380  0.00  0.00    +0.046 A 
BRANCH  60  62
ATOM     62  O   UNL     1       2.235  -7.183  22.622  0.00  0.00    -0.507 OA
ATOM     63  H   UNL     1       1.343  -6.837  22.789  0.00  0.00    +0.292 HD
ENDBRANCH  60  62
ENDBRANCH  54  57
ENDBRANCH  52  55
ENDBRANCH  51  52
ENDBRANCH  50  51
ENDBRANCH   1  50
TORSDOF 20
ENDMDL
MODEL 8
REMARK VINA RESULT:      -6.6      2.168      5.666
REMARK  Name = 
REMARK  20 active torsions:
REMARK  status: ('A' for Active; 'I' for Inactive)
REMARK    1  A    between atoms: C_3  and  O_60
REMARK    2  A    between atoms: C_6  and  C_7
REMARK    3  A    between atoms: C_8  and  C_9
REMARK    4  A    between atoms: C_9  and  O_11
REMARK    5  A    between atoms: O_11  and  C_12
REMARK    6  A    between atoms: C_12  and  C_13
REMARK    7  A    between atoms: C_15  and  O_59
REMARK    8  A    between atoms: C_17  and  O_47
REMARK    9  A    between atoms: C_19  and  O_46
REMARK   10  A    between atoms: C_21  and  O_24
REMARK   11  A    between atoms: O_24  and  C_25
REMARK   12  A    between atoms: C_26  and  C_38
REMARK   13  A    between atoms: C_30  and  O_37
REMARK   14  A    between atoms: C_32  and  O_36
REMARK   15  A    between atoms: C_40  and  O_45
REMARK   16  A    between atoms: C_41  and  O_44
REMARK   17  A    between atoms: O_47  and  C_48
REMARK   18  A    between atoms: C_48  and  C_50
REMARK   19  A    between atoms: C_51  and  C_52
REMARK   20  A    between atoms: C_55  and  O_58
REMARK                            x       y       z     vdW  Elec       q    Type
REMARK                         _______ _______ _______ _____ _____    ______ ____
ROOT
ATOM      1  C   UNL     1       7.488   1.475  22.775  0.00  0.00    +0.192 C 
ATOM      2  O   UNL     1       7.775   1.113  24.134  0.00  0.00    -0.330 OA
ATOM      3  C   UNL     1       6.586   1.159  24.961  0.00  0.00    +0.341 C 
ATOM      4  C   UNL     1       6.083   2.614  25.060  0.00  0.00    +0.226 C 
ATOM      5  C   UNL     1       5.863   3.178  23.663  0.00  0.00    +0.242 C 
ATOM      6  C   UNL     1       7.043   2.946  22.725  0.00  0.00    +0.190 C 
ENDROOT
BRANCH   6   7
ATOM      7  O   UNL     1       6.618   3.347  21.417  0.00  0.00    -0.385 OA
ATOM      8  H   UNL     1       5.919   2.735  21.132  0.00  0.00    +0.210 HD
ENDBRANCH   6   7
BRANCH   4   9
ATOM      9  O   UNL     1       4.881   2.739  25.845  0.00  0.00    -0.382 OA
ATOM     10  H   UNL     1       4.157   3.046  25.263  0.00  0.00    +0.210 HD
ENDBRANCH   4   9
BRANCH   5  11
ATOM     11  O   UNL     1       5.685   4.606  23.779  0.00  0.00    -0.453 OA
BRANCH  11  12
ATOM     12  C   UNL     1       6.514   5.222  24.647  0.00  0.00    +0.332 C 
ATOM     13  O   UNL     1       6.216   5.711  25.726  0.00  0.00    -0.246 OA
BRANCH  12  14
ATOM     14  C   UNL     1       7.862   5.207  24.062  0.00  0.00    +0.092 C 
ATOM     15  C   UNL     1       8.910   5.155  24.896  0.00  0.00    +0.015 C 
BRANCH  15  16
ATOM     16  C   UNL     1      10.264   5.199  24.372  0.00  0.00    -0.025 A 
ATOM     17  C   UNL     1      11.091   6.295  24.637  0.00  0.00    +0.011 A 
ATOM     18  C   UNL     1      12.406   6.294  24.178  0.00  0.00    +0.046 A 
ATOM     19  C   UNL     1      12.886   5.200  23.466  0.00  0.00    +0.117 A 
ATOM     20  C   UNL     1      12.066   4.113  23.180  0.00  0.00    +0.046 A 
ATOM     21  C   UNL     1      10.749   4.114  23.636  0.00  0.00    +0.011 A 
BRANCH  19  22
ATOM     22  O   UNL     1      14.189   5.223  23.071  0.00  0.00    -0.507 OA
ATOM     23  H   UNL     1      14.228   5.566  22.163  0.00  0.00    +0.292 HD
ENDBRANCH  19  22
ENDBRANCH  15  16
ENDBRANCH  12  14
ENDBRANCH  11  12
ENDBRANCH   5  11
BRANCH   3  24
ATOM     24  O   UNL     1       6.934   0.742  26.279  0.00  0.00    -0.453 OA
BRANCH  24  25
ATOM     25  C   UNL     1       6.034   0.151  27.147  0.00  0.00    +0.214 A 
ATOM     26  C   UNL     1       5.151   0.915  28.081  0.00  0.00    +0.238 A 
ATOM     27  O   UNL     1       5.466   2.012  28.524  0.00  0.00    -0.283 OA
ATOM     28  C   UNL     1       3.916   0.239  28.518  0.00  0.00    +0.109 A 
ATOM     29  C   UNL     1       3.851  -1.144  28.351  0.00  0.00    +0.147 A 
ATOM     30  C   UNL     1       2.699  -1.844  28.727  0.00  0.00    +0.092 A 
ATOM     31  C   UNL     1       1.630  -1.150  29.290  0.00  0.00    +0.124 A 
ATOM     32  C   UNL     1       1.695   0.225  29.487  0.00  0.00    +0.091 A 
ATOM     33  O   UNL     1       4.909  -1.877  27.858  0.00  0.00    -0.451 OA
ATOM     34  C   UNL     1       2.838   0.921  29.099  0.00  0.00    +0.135 A 
ATOM     35  C   UNL     1       5.937  -1.197  27.209  0.00  0.00    +0.181 A 
BRANCH  35  36
ATOM     36  C   UNL     1       6.959  -2.090  26.581  0.00  0.00    +0.025 A 
ATOM     37  C   UNL     1       8.222  -1.607  26.199  0.00  0.00    +0.015 A 
ATOM     38  C   UNL     1       9.179  -2.461  25.628  0.00  0.00    +0.050 A 
ATOM     39  C   UNL     1       8.874  -3.796  25.431  0.00  0.00    +0.158 A 
ATOM     40  C   UNL     1       7.621  -4.292  25.764  0.00  0.00    +0.159 A 
ATOM     41  C   UNL     1       6.657  -3.441  26.307  0.00  0.00    +0.060 A 
BRANCH  40  42
ATOM     42  O   UNL     1       7.373  -5.621  25.552  0.00  0.00    -0.503 OA
ATOM     43  H   UNL     1       8.214  -6.050  25.314  0.00  0.00    +0.292 HD
ENDBRANCH  40  42
BRANCH  39  44
ATOM     44  O   UNL     1       9.818  -4.639  24.910  0.00  0.00    -0.503 OA
ATOM     45  H   UNL     1      10.071  -5.220  25.656  0.00  0.00    +0.292 HD
ENDBRANCH  39  44
ENDBRANCH  35  36
BRANCH  34  46
ATOM     46  O   UNL     1       2.874   2.275  29.274  0.00  0.00    -0.506 OA
ATOM     47  H   UNL     1       1.994   2.656  29.117  0.00  0.00    +0.292 HD
ENDBRANCH  34  46
BRANCH  31  48
ATOM     48  O   UNL     1       0.482  -1.775  29.675  0.00  0.00    -0.507 OA
ATOM     49  H   UNL     1       0.301  -2.518  29.076  0.00  0.00    +0.292 HD
ENDBRANCH  31  48
ENDBRANCH  24  25
ENDBRANCH   3  24
BRANCH   1  50
ATOM     50  C   UNL     1       8.731   1.256  21.885  0.00  0.00    +0.266 C 
BRANCH  50  51
ATOM     51  O   UNL     1       8.755  -0.096  21.359  0.00  0.00    -0.459 OA
BRANCH  51  52
ATOM     52  C   UNL     1       9.496  -0.999  22.059  0.00  0.00    +0.332 C 
ATOM     53  O   UNL     1      10.563  -0.775  22.602  0.00  0.00    -0.246 OA
BRANCH  52  55
ATOM     54  C   UNL     1       7.409  -2.204  22.458  0.00  0.00    +0.015 C 
ATOM     55  C   UNL     1       8.720  -2.264  22.166  0.00  0.00    +0.092 C 
BRANCH  54  57
ATOM     56  C   UNL     1       5.190  -3.245  23.107  0.00  0.00    +0.011 A 
ATOM     57  C   UNL     1       6.464  -3.333  22.525  0.00  0.00    -0.025 A 
ATOM     58  C   UNL     1       6.909  -4.591  22.087  0.00  0.00    +0.011 A 
ATOM     59  C   UNL     1       6.106  -5.727  22.220  0.00  0.00    +0.046 A 
ATOM     60  C   UNL     1       4.851  -5.621  22.803  0.00  0.00    +0.117 A 
ATOM     61  C   UNL     1       4.384  -4.386  23.245  0.00  0.00    +0.046 A 
BRANCH  60  62
ATOM     62  O   UNL     1       4.114  -6.760  22.936  0.00  0.00    -0.507 OA
ATOM     63  H   UNL     1       3.471  -6.807  22.210  0.00  0.00    +0.292 HD
ENDBRANCH  60  62
ENDBRANCH  54  57
ENDBRANCH  52  55
ENDBRANCH  51  52
ENDBRANCH  50  51
ENDBRANCH   1  50
TORSDOF 20
ENDMDL
MODEL 9
REMARK VINA RESULT:      -6.5      2.735      5.800
REMARK  Name = 
REMARK  20 active torsions:
REMARK  status: ('A' for Active; 'I' for Inactive)
REMARK    1  A    between atoms: C_3  and  O_60
REMARK    2  A    between atoms: C_6  and  C_7
REMARK    3  A    between atoms: C_8  and  C_9
REMARK    4  A    between atoms: C_9  and  O_11
REMARK    5  A    between atoms: O_11  and  C_12
REMARK    6  A    between atoms: C_12  and  C_13
REMARK    7  A    between atoms: C_15  and  O_59
REMARK    8  A    between atoms: C_17  and  O_47
REMARK    9  A    between atoms: C_19  and  O_46
REMARK   10  A    between atoms: C_21  and  O_24
REMARK   11  A    between atoms: O_24  and  C_25
REMARK   12  A    between atoms: C_26  and  C_38
REMARK   13  A    between atoms: C_30  and  O_37
REMARK   14  A    between atoms: C_32  and  O_36
REMARK   15  A    between atoms: C_40  and  O_45
REMARK   16  A    between atoms: C_41  and  O_44
REMARK   17  A    between atoms: O_47  and  C_48
REMARK   18  A    between atoms: C_48  and  C_50
REMARK   19  A    between atoms: C_51  and  C_52
REMARK   20  A    between atoms: C_55  and  O_58
REMARK                            x       y       z     vdW  Elec       q    Type
REMARK                         _______ _______ _______ _____ _____    ______ ____
ROOT
ATOM      1  C   UNL     1       7.366  -0.009  24.444  0.00  0.00    +0.192 C 
ATOM      2  O   UNL     1       6.625   0.381  25.610  0.00  0.00    -0.330 OA
ATOM      3  C   UNL     1       5.238   0.658  25.291  0.00  0.00    +0.341 C 
ATOM      4  C   UNL     1       5.157   1.890  24.367  0.00  0.00    +0.226 C 
ATOM      5  C   UNL     1       6.020   1.664  23.134  0.00  0.00    +0.242 C 
ATOM      6  C   UNL     1       7.426   1.172  23.462  0.00  0.00    +0.190 C 
ENDROOT
BRANCH   6   7
ATOM      7  O   UNL     1       8.043   0.820  22.218  0.00  0.00    -0.385 OA
ATOM      8  H   UNL     1       7.928  -0.136  22.089  0.00  0.00    +0.210 HD
ENDBRANCH   6   7
BRANCH   4   9
ATOM      9  O   UNL     1       3.807   2.212  23.980  0.00  0.00    -0.382 OA
ATOM     10  H   UNL     1       3.499   2.969  24.516  0.00  0.00    +0.210 HD
ENDBRANCH   4   9
BRANCH   5  11
ATOM     11  O   UNL     1       6.161   2.927  22.448  0.00  0.00    -0.453 OA
BRANCH  11  12
ATOM     12  C   UNL     1       6.609   3.949  23.206  0.00  0.00    +0.332 C 
ATOM     13  O   UNL     1       5.945   4.665  23.939  0.00  0.00    -0.246 OA
BRANCH  12  14
ATOM     14  C   UNL     1       8.059   4.057  22.994  0.00  0.00    +0.092 C 
ATOM     15  C   UNL     1       8.810   4.514  24.005  0.00  0.00    +0.015 C 
BRANCH  15  16
ATOM     16  C   UNL     1      10.241   4.698  23.829  0.00  0.00    -0.025 A 
ATOM     17  C   UNL     1      11.034   3.655  23.343  0.00  0.00    +0.011 A 
ATOM     18  C   UNL     1      12.394   3.866  23.124  0.00  0.00    +0.046 A 
ATOM     19  C   UNL     1      12.946   5.116  23.382  0.00  0.00    +0.117 A 
ATOM     20  C   UNL     1      12.169   6.156  23.883  0.00  0.00    +0.046 A 
ATOM     21  C   UNL     1      10.810   5.944  24.107  0.00  0.00    +0.011 A 
BRANCH  19  22
ATOM     22  O   UNL     1      14.270   5.292  23.114  0.00  0.00    -0.507 OA
ATOM     23  H   UNL     1      14.740   4.473  23.343  0.00  0.00    +0.292 HD
ENDBRANCH  19  22
ENDBRANCH  15  16
ENDBRANCH  12  14
ENDBRANCH  11  12
ENDBRANCH   5  11
BRANCH   3  24
ATOM     24  O   UNL     1       4.554   0.989  26.498  0.00  0.00    -0.453 OA
BRANCH  24  25
ATOM     25  C   UNL     1       4.167   0.043  27.431  0.00  0.00    +0.214 A 
ATOM     26  C   UNL     1       3.128  -1.002  27.178  0.00  0.00    +0.238 A 
ATOM     27  O   UNL     1       2.212  -0.831  26.384  0.00  0.00    -0.283 OA
ATOM     28  C   UNL     1       3.209  -2.221  28.003  0.00  0.00    +0.109 A 
ATOM     29  C   UNL     1       3.969  -2.154  29.170  0.00  0.00    +0.147 A 
ATOM     30  C   UNL     1       4.103  -3.282  29.988  0.00  0.00    +0.092 A 
ATOM     31  C   UNL     1       3.450  -4.462  29.638  0.00  0.00    +0.124 A 
ATOM     32  C   UNL     1       2.667  -4.532  28.491  0.00  0.00    +0.091 A 
ATOM     33  O   UNL     1       4.577  -0.990  29.587  0.00  0.00    -0.451 OA
ATOM     34  C   UNL     1       2.547  -3.411  27.672  0.00  0.00    +0.135 A 
ATOM     35  C   UNL     1       4.713   0.048  28.668  0.00  0.00    +0.181 A 
BRANCH  35  36
ATOM     36  C   UNL     1       5.516   1.207  29.169  0.00  0.00    +0.025 A 
ATOM     37  C   UNL     1       6.901   1.103  29.384  0.00  0.00    +0.015 A 
ATOM     38  C   UNL     1       7.646   2.204  29.836  0.00  0.00    +0.050 A 
ATOM     39  C   UNL     1       7.008   3.408  30.081  0.00  0.00    +0.158 A 
ATOM     40  C   UNL     1       5.635   3.528  29.913  0.00  0.00    +0.159 A 
ATOM     41  C   UNL     1       4.886   2.429  29.490  0.00  0.00    +0.060 A 
BRANCH  40  42
ATOM     42  O   UNL     1       5.056   4.742  30.165  0.00  0.00    -0.503 OA
ATOM     43  H   UNL     1       5.465   5.110  30.967  0.00  0.00    +0.292 HD
ENDBRANCH  40  42
BRANCH  39  44
ATOM     44  O   UNL     1       7.738   4.493  30.485  0.00  0.00    -0.503 OA
ATOM     45  H   UNL     1       8.634   4.338  30.122  0.00  0.00    +0.292 HD
ENDBRANCH  39  44
ENDBRANCH  35  36
BRANCH  34  46
ATOM     46  O   UNL     1       1.795  -3.506  26.535  0.00  0.00    -0.506 OA
ATOM     47  H   UNL     1       2.315  -3.220  25.765  0.00  0.00    +0.292 HD
ENDBRANCH  34  46
BRANCH  31  48
ATOM     48  O   UNL     1       3.542  -5.593  30.392  0.00  0.00    -0.507 OA
ATOM     49  H   UNL     1       3.089  -6.323  29.938  0.00  0.00    +0.292 HD
ENDBRANCH  31  48
ENDBRANCH  24  25
ENDBRANCH   3  24
BRANCH   1  50
ATOM     50  C   UNL     1       8.790  -0.459  24.838  0.00  0.00    +0.266 C 
BRANCH  50  51
ATOM     51  O   UNL     1       9.332  -1.374  23.851  0.00  0.00    -0.459 OA
BRANCH  51  52
ATOM     52  C   UNL     1       8.485  -2.342  23.401  0.00  0.00    +0.332 C 
ATOM     53  O   UNL     1       8.120  -2.486  22.248  0.00  0.00    -0.246 OA
BRANCH  52  55
ATOM     54  C   UNL     1       6.912  -3.573  24.807  0.00  0.00    +0.015 C 
ATOM     55  C   UNL     1       8.191  -3.271  24.525  0.00  0.00    +0.092 C 
BRANCH  54  57
ATOM     56  C   UNL     1       6.970  -4.630  27.111  0.00  0.00    +0.011 A 
ATOM     57  C   UNL     1       6.429  -4.528  25.820  0.00  0.00    -0.025 A 
ATOM     58  C   UNL     1       5.456  -5.463  25.432  0.00  0.00    +0.011 A 
ATOM     59  C   UNL     1       5.030  -6.467  26.306  0.00  0.00    +0.046 A 
ATOM     60  C   UNL     1       5.581  -6.554  27.577  0.00  0.00    +0.117 A 
ATOM     61  C   UNL     1       6.546  -5.640  27.989  0.00  0.00    +0.046 A 
BRANCH  60  62
ATOM     62  O   UNL     1       5.154  -7.565  28.386  0.00  0.00    -0.507 OA
ATOM     63  H   UNL     1       4.546  -7.203  29.051  0.00  0.00    +0.292 HD
ENDBRANCH  60  62
ENDBRANCH  54  57
ENDBRANCH  52  55
ENDBRANCH  51  52
ENDBRANCH  50  51
ENDBRANCH   1  50
TORSDOF 20
ENDMDL
