MODEL 1
REMARK VINA RESULT:      -7.2      0.000      0.000
REMARK  Name = 
REMARK  16 active torsions:
REMARK  status: ('A' for Active; 'I' for Inactive)
REMARK    1  A    between atoms: C_3  and  O_39
REMARK    2  A    between atoms: C_4  and  O_38
REMARK    3  A    between atoms: C_6  and  C_7
REMARK    4  A    between atoms: C_8  and  O_20
REMARK    5  A    between atoms: C_12  and  O_19
REMARK    6  A    between atoms: C_14  and  O_18
REMARK    7  A    between atoms: O_20  and  C_21
REMARK    8  A    between atoms: C_22  and  O_37
REMARK    9  A    between atoms: C_23  and  O_36
REMARK   10  A    between atoms: C_24  and  O_35
REMARK   11  A    between atoms: C_25  and  C_27
REMARK   12  A    between atoms: C_27  and  O_28
REMARK   13  A    between atoms: O_28  and  C_29
REMARK   14  A    between atoms: C_29  and  C_31
REMARK   15  A    between atoms: C_31  and  C_32
REMARK   16  A    between atoms: C_32  and  O_34
REMARK                            x       y       z     vdW  Elec       q    Type
REMARK                         _______ _______ _______ _____ _____    ______ ____
ROOT
ATOM      1  C   UNL     1       7.689  -1.376  24.010  0.00  0.00    +0.181 A 
ATOM      2  O   UNL     1       7.831  -2.563  23.293  0.00  0.00    -0.451 OA
ATOM      3  C   UNL     1       6.852  -3.515  23.307  0.00  0.00    +0.147 A 
ATOM      4  C   UNL     1       5.649  -3.329  23.950  0.00  0.00    +0.109 A 
ATOM      5  C   UNL     1       4.673  -4.339  23.850  0.00  0.00    +0.135 A 
ATOM      6  C   UNL     1       4.913  -5.506  23.108  0.00  0.00    +0.091 A 
ATOM      7  C   UNL     1       6.134  -5.671  22.467  0.00  0.00    +0.124 A 
ATOM      8  C   UNL     1       5.462  -2.070  24.711  0.00  0.00    +0.238 A 
ATOM      9  O   UNL     1       4.390  -1.853  25.271  0.00  0.00    -0.283 OA
ATOM     10  C   UNL     1       7.105  -4.679  22.560  0.00  0.00    +0.092 A 
ATOM     11  C   UNL     1       6.584  -1.062  24.736  0.00  0.00    +0.214 A 
ENDROOT
BRANCH   1  13
ATOM     12  C   UNL     1       9.890  -0.253  24.648  0.00  0.00    +0.015 A 
ATOM     13  C   UNL     1       8.850  -0.469  23.740  0.00  0.00    +0.025 A 
ATOM     14  C   UNL     1       8.844   0.344  22.590  0.00  0.00    +0.060 A 
ATOM     15  C   UNL     1       9.699   1.433  22.495  0.00  0.00    +0.159 A 
ATOM     16  C   UNL     1      10.554   1.756  23.537  0.00  0.00    +0.158 A 
ATOM     17  C   UNL     1      10.690   0.891  24.604  0.00  0.00    +0.050 A 
BRANCH  16  18
ATOM     18  O   UNL     1      11.238   2.934  23.476  0.00  0.00    -0.503 OA
ATOM     19  H   UNL     1      10.594   3.628  23.242  0.00  0.00    +0.292 HD
ENDBRANCH  16  18
BRANCH  15  20
ATOM     20  O   UNL     1       9.653   2.221  21.382  0.00  0.00    -0.503 OA
ATOM     21  H   UNL     1      10.505   2.055  20.932  0.00  0.00    +0.292 HD
ENDBRANCH  15  20
ENDBRANCH   1  13
BRANCH   7  22
ATOM     22  O   UNL     1       6.422  -6.784  21.738  0.00  0.00    -0.507 OA
ATOM     23  H   UNL     1       6.669  -6.522  20.836  0.00  0.00    +0.292 HD
ENDBRANCH   7  22
BRANCH   5  24
ATOM     24  O   UNL     1       3.446  -4.263  24.453  0.00  0.00    -0.506 OA
ATOM     25  H   UNL     1       3.448  -3.508  25.076  0.00  0.00    +0.292 HD
ENDBRANCH   5  24
BRANCH  11  26
ATOM     26  O   UNL     1       6.526  -0.033  25.676  0.00  0.00    -0.453 OA
BRANCH  26  27
ATOM     27  C   UNL     1       5.559   1.047  25.593  0.00  0.00    +0.340 C 
ATOM     28  O   UNL     1       5.786   1.863  24.423  0.00  0.00    -0.330 OA
ATOM     29  C   UNL     1       7.005   2.634  24.347  0.00  0.00    +0.191 C 
ATOM     30  C   UNL     1       7.610   3.140  25.692  0.00  0.00    +0.178 C 
ATOM     31  C   UNL     1       7.135   2.360  26.937  0.00  0.00    +0.180 C 
ATOM     32  C   UNL     1       5.643   2.029  26.771  0.00  0.00    +0.214 C 
BRANCH  32  33
ATOM     33  O   UNL     1       4.976   1.560  27.935  0.00  0.00    -0.383 OA
ATOM     34  H   UNL     1       4.702   2.319  28.475  0.00  0.00    +0.210 HD
ENDBRANCH  32  33
BRANCH  31  35
ATOM     35  O   UNL     1       7.407   3.106  28.126  0.00  0.00    -0.386 OA
ATOM     36  H   UNL     1       6.906   3.940  28.064  0.00  0.00    +0.210 HD
ENDBRANCH  31  35
BRANCH  30  37
ATOM     37  O   UNL     1       7.432   4.545  25.931  0.00  0.00    -0.386 OA
ATOM     38  H   UNL     1       6.496   4.797  25.752  0.00  0.00    +0.210 HD
ENDBRANCH  30  37
BRANCH  29  39
ATOM     39  C   UNL     1       6.766   3.760  23.306  0.00  0.00    +0.266 C 
BRANCH  39  40
ATOM     40  O   UNL     1       7.967   4.500  22.980  0.00  0.00    -0.462 OA
BRANCH  40  41
ATOM     41  C   UNL     1       7.836   5.779  22.546  0.00  0.00    +0.318 C 
ATOM     42  O   UNL     1       7.261   6.124  21.523  0.00  0.00    -0.250 OA
BRANCH  41  43
ATOM     43  C   UNL     1       8.600   6.733  23.414  0.00  0.00    +0.240 C 
BRANCH  43  44
ATOM     44  C   UNL     1       9.847   6.163  24.026  0.00  0.00    +0.316 C 
ATOM     45  O   UNL     1      10.072   6.082  25.226  0.00  0.00    -0.250 OA
BRANCH  44  46
ATOM     46  O   UNL     1      10.733   5.749  23.096  0.00  0.00    -0.480 OA
ATOM     47  H   UNL     1      11.427   6.395  22.847  0.00  0.00    +0.295 HD
ENDBRANCH  44  46
ENDBRANCH  43  44
ENDBRANCH  41  43
ENDBRANCH  40  41
ENDBRANCH  39  40
ENDBRANCH  29  39
ENDBRANCH  26  27
ENDBRANCH  11  26
TORSDOF 16
ENDMDL
MODEL 2
REMARK VINA RESULT:      -7.1      2.447      4.785
REMARK  Name = 
REMARK  16 active torsions:
REMARK  status: ('A' for Active; 'I' for Inactive)
REMARK    1  A    between atoms: C_3  and  O_39
REMARK    2  A    between atoms: C_4  and  O_38
REMARK    3  A    between atoms: C_6  and  C_7
REMARK    4  A    between atoms: C_8  and  O_20
REMARK    5  A    between atoms: C_12  and  O_19
REMARK    6  A    between atoms: C_14  and  O_18
REMARK    7  A    between atoms: O_20  and  C_21
REMARK    8  A    between atoms: C_22  and  O_37
REMARK    9  A    between atoms: C_23  and  O_36
REMARK   10  A    between atoms: C_24  and  O_35
REMARK   11  A    between atoms: C_25  and  C_27
REMARK   12  A    between atoms: C_27  and  O_28
REMARK   13  A    between atoms: O_28  and  C_29
REMARK   14  A    between atoms: C_29  and  C_31
REMARK   15  A    between atoms: C_31  and  C_32
REMARK   16  A    between atoms: C_32  and  O_34
REMARK                            x       y       z     vdW  Elec       q    Type
REMARK                         _______ _______ _______ _____ _____    ______ ____
ROOT
ATOM      1  C   UNL     1       6.603  -1.197  25.964  0.00  0.00    +0.181 A 
ATOM      2  O   UNL     1       5.849  -1.846  26.940  0.00  0.00    -0.451 OA
ATOM      3  C   UNL     1       6.065  -3.162  27.238  0.00  0.00    +0.147 A 
ATOM      4  C   UNL     1       7.080  -3.893  26.663  0.00  0.00    +0.109 A 
ATOM      5  C   UNL     1       7.270  -5.222  27.085  0.00  0.00    +0.135 A 
ATOM      6  C   UNL     1       6.451  -5.792  28.073  0.00  0.00    +0.091 A 
ATOM      7  C   UNL     1       5.434  -5.034  28.639  0.00  0.00    +0.124 A 
ATOM      8  C   UNL     1       7.910  -3.227  25.630  0.00  0.00    +0.238 A 
ATOM      9  O   UNL     1       8.846  -3.836  25.117  0.00  0.00    -0.283 OA
ATOM     10  C   UNL     1       5.238  -3.720  28.229  0.00  0.00    +0.092 A 
ATOM     11  C   UNL     1       7.608  -1.793  25.269  0.00  0.00    +0.214 A 
ENDROOT
BRANCH   1  13
ATOM     12  C   UNL     1       5.374   0.798  24.956  0.00  0.00    +0.015 A 
ATOM     13  C   UNL     1       6.238   0.253  25.910  0.00  0.00    +0.025 A 
ATOM     14  C   UNL     1       6.901   1.169  26.749  0.00  0.00    +0.060 A 
ATOM     15  C   UNL     1       6.856   2.530  26.480  0.00  0.00    +0.159 A 
ATOM     16  C   UNL     1       6.180   3.010  25.369  0.00  0.00    +0.158 A 
ATOM     17  C   UNL     1       5.396   2.155  24.621  0.00  0.00    +0.050 A 
BRANCH  16  18
ATOM     18  O   UNL     1       6.318   4.327  25.043  0.00  0.00    -0.503 OA
ATOM     19  H   UNL     1       6.812   4.752  25.768  0.00  0.00    +0.292 HD
ENDBRANCH  16  18
BRANCH  15  20
ATOM     20  O   UNL     1       7.532   3.393  27.293  0.00  0.00    -0.503 OA
ATOM     21  H   UNL     1       7.376   3.049  28.194  0.00  0.00    +0.292 HD
ENDBRANCH  15  20
ENDBRANCH   1  13
BRANCH   7  22
ATOM     22  O   UNL     1       4.607  -5.537  29.597  0.00  0.00    -0.507 OA
ATOM     23  H   UNL     1       5.005  -6.338  29.976  0.00  0.00    +0.292 HD
ENDBRANCH   7  22
BRANCH   5  24
ATOM     24  O   UNL     1       8.242  -6.043  26.579  0.00  0.00    -0.506 OA
ATOM     25  H   UNL     1       8.994  -6.062  27.205  0.00  0.00    +0.292 HD
ENDBRANCH   5  24
BRANCH  11  26
ATOM     26  O   UNL     1       8.182  -1.270  24.110  0.00  0.00    -0.453 OA
BRANCH  26  27
ATOM     27  C   UNL     1       9.572  -0.854  24.046  0.00  0.00    +0.340 C 
ATOM     28  O   UNL     1       9.742   0.481  24.569  0.00  0.00    -0.330 OA
ATOM     29  C   UNL     1       9.136   1.583  23.858  0.00  0.00    +0.191 C 
ATOM     30  C   UNL     1       9.000   1.439  22.311  0.00  0.00    +0.178 C 
ATOM     31  C   UNL     1       9.061  -0.016  21.798  0.00  0.00    +0.180 C 
ATOM     32  C   UNL     1      10.118  -0.780  22.613  0.00  0.00    +0.214 C 
BRANCH  32  33
ATOM     33  O   UNL     1      10.503  -2.048  22.098  0.00  0.00    -0.383 OA
ATOM     34  H   UNL     1       9.855  -2.334  21.435  0.00  0.00    +0.210 HD
ENDBRANCH  32  33
BRANCH  31  35
ATOM     35  O   UNL     1       9.322  -0.039  20.393  0.00  0.00    -0.386 OA
ATOM     36  H   UNL     1       9.379   0.888  20.095  0.00  0.00    +0.210 HD
ENDBRANCH  31  35
BRANCH  30  37
ATOM     37  O   UNL     1       9.929   2.234  21.557  0.00  0.00    -0.386 OA
ATOM     38  H   UNL     1       9.919   3.161  21.890  0.00  0.00    +0.210 HD
ENDBRANCH  30  37
BRANCH  29  39
ATOM     39  C   UNL     1       9.874   2.874  24.303  0.00  0.00    +0.266 C 
BRANCH  39  40
ATOM     40  O   UNL     1       9.237   4.086  23.834  0.00  0.00    -0.462 OA
BRANCH  40  41
ATOM     41  C   UNL     1       9.451   5.233  24.526  0.00  0.00    +0.318 C 
ATOM     42  O   UNL     1       8.917   5.530  25.587  0.00  0.00    -0.250 OA
BRANCH  41  43
ATOM     43  C   UNL     1      10.339   6.173  23.767  0.00  0.00    +0.240 C 
BRANCH  43  44
ATOM     44  C   UNL     1      11.767   5.726  23.646  0.00  0.00    +0.316 C 
ATOM     45  O   UNL     1      12.661   5.996  24.436  0.00  0.00    -0.250 OA
BRANCH  44  46
ATOM     46  O   UNL     1      11.982   4.986  22.539  0.00  0.00    -0.480 OA
ATOM     47  H   UNL     1      12.895   4.651  22.418  0.00  0.00    +0.295 HD
ENDBRANCH  44  46
ENDBRANCH  43  44
ENDBRANCH  41  43
ENDBRANCH  40  41
ENDBRANCH  39  40
ENDBRANCH  29  39
ENDBRANCH  26  27
ENDBRANCH  11  26
TORSDOF 16
ENDMDL
MODEL 3
REMARK VINA RESULT:      -6.9      1.866      4.543
REMARK  Name = 
REMARK  16 active torsions:
REMARK  status: ('A' for Active; 'I' for Inactive)
REMARK    1  A    between atoms: C_3  and  O_39
REMARK    2  A    between atoms: C_4  and  O_38
REMARK    3  A    between atoms: C_6  and  C_7
REMARK    4  A    between atoms: C_8  and  O_20
REMARK    5  A    between atoms: C_12  and  O_19
REMARK    6  A    between atoms: C_14  and  O_18
REMARK    7  A    between atoms: O_20  and  C_21
REMARK    8  A    between atoms: C_22  and  O_37
REMARK    9  A    between atoms: C_23  and  O_36
REMARK   10  A    between atoms: C_24  and  O_35
REMARK   11  A    between atoms: C_25  and  C_27
REMARK   12  A    between atoms: C_27  and  O_28
REMARK   13  A    between atoms: O_28  and  C_29
REMARK   14  A    between atoms: C_29  and  C_31
REMARK   15  A    between atoms: C_31  and  C_32
REMARK   16  A    between atoms: C_32  and  O_34
REMARK                            x       y       z     vdW  Elec       q    Type
REMARK                         _______ _______ _______ _____ _____    ______ ____
ROOT
ATOM      1  C   UNL     1       5.702  -1.937  25.439  0.00  0.00    +0.181 A 
ATOM      2  O   UNL     1       5.051  -3.141  25.704  0.00  0.00    -0.451 OA
ATOM      3  C   UNL     1       5.166  -4.205  24.855  0.00  0.00    +0.147 A 
ATOM      4  C   UNL     1       5.984  -4.183  23.748  0.00  0.00    +0.109 A 
ATOM      5  C   UNL     1       6.092  -5.352  22.972  0.00  0.00    +0.135 A 
ATOM      6  C   UNL     1       5.388  -6.517  23.317  0.00  0.00    +0.091 A 
ATOM      7  C   UNL     1       4.568  -6.515  24.438  0.00  0.00    +0.124 A 
ATOM      8  C   UNL     1       6.702  -2.921  23.447  0.00  0.00    +0.238 A 
ATOM      9  O   UNL     1       7.468  -2.872  22.487  0.00  0.00    -0.283 OA
ATOM     10  C   UNL     1       4.455  -5.365  25.212  0.00  0.00    +0.092 A 
ATOM     11  C   UNL     1       6.507  -1.737  24.362  0.00  0.00    +0.214 A 
ENDROOT
BRANCH   1  13
ATOM     12  C   UNL     1       4.274  -0.361  26.849  0.00  0.00    +0.015 A 
ATOM     13  C   UNL     1       5.496  -0.980  26.572  0.00  0.00    +0.025 A 
ATOM     14  C   UNL     1       6.605  -0.538  27.318  0.00  0.00    +0.060 A 
ATOM     15  C   UNL     1       6.511   0.596  28.114  0.00  0.00    +0.159 A 
ATOM     16  C   UNL     1       5.334   1.327  28.169  0.00  0.00    +0.158 A 
ATOM     17  C   UNL     1       4.192   0.831  27.572  0.00  0.00    +0.050 A 
BRANCH  16  18
ATOM     18  O   UNL     1       5.344   2.528  28.813  0.00  0.00    -0.503 OA
ATOM     19  H   UNL     1       5.786   2.390  29.671  0.00  0.00    +0.292 HD
ENDBRANCH  16  18
BRANCH  15  20
ATOM     20  O   UNL     1       7.609   1.019  28.805  0.00  0.00    -0.503 OA
ATOM     21  H   UNL     1       7.647   1.980  28.633  0.00  0.00    +0.292 HD
ENDBRANCH  15  20
ENDBRANCH   1  13
BRANCH   7  22
ATOM     22  O   UNL     1       3.860  -7.615  24.816  0.00  0.00    -0.507 OA
ATOM     23  H   UNL     1       2.954  -7.547  24.472  0.00  0.00    +0.292 HD
ENDBRANCH   7  22
BRANCH   5  24
ATOM     24  O   UNL     1       6.871  -5.443  21.850  0.00  0.00    -0.506 OA
ATOM     25  H   UNL     1       7.681  -5.946  22.070  0.00  0.00    +0.292 HD
ENDBRANCH   5  24
BRANCH  11  26
ATOM     26  O   UNL     1       6.938  -0.485  23.923  0.00  0.00    -0.453 OA
BRANCH  26  27
ATOM     27  C   UNL     1       8.177   0.118  24.378  0.00  0.00    +0.340 C 
ATOM     28  O   UNL     1       8.105   1.559  24.330  0.00  0.00    -0.330 OA
ATOM     29  C   UNL     1       7.992   2.202  23.041  0.00  0.00    +0.191 C 
ATOM     30  C   UNL     1       8.664   1.485  21.830  0.00  0.00    +0.178 C 
ATOM     31  C   UNL     1       8.925  -0.021  22.045  0.00  0.00    +0.180 C 
ATOM     32  C   UNL     1       9.384  -0.237  23.497  0.00  0.00    +0.214 C 
BRANCH  32  33
ATOM     33  O   UNL     1       9.932  -1.516  23.792  0.00  0.00    -0.383 OA
ATOM     34  H   UNL     1       9.365  -2.203  23.408  0.00  0.00    +0.210 HD
ENDBRANCH  32  33
BRANCH  31  35
ATOM     35  O   UNL     1       9.869  -0.505  21.088  0.00  0.00    -0.386 OA
ATOM     36  H   UNL     1      10.752  -0.450  21.500  0.00  0.00    +0.210 HD
ENDBRANCH  31  35
BRANCH  30  37
ATOM     37  O   UNL     1       9.877   2.104  21.373  0.00  0.00    -0.386 OA
ATOM     38  H   UNL     1      10.554   2.077  22.088  0.00  0.00    +0.210 HD
ENDBRANCH  30  37
BRANCH  29  39
ATOM     39  C   UNL     1       8.444   3.675  23.225  0.00  0.00    +0.266 C 
BRANCH  39  40
ATOM     40  O   UNL     1       9.682   3.804  23.965  0.00  0.00    -0.462 OA
BRANCH  40  41
ATOM     41  C   UNL     1      10.527   4.812  23.633  0.00  0.00    +0.318 C 
ATOM     42  O   UNL     1      10.212   5.988  23.510  0.00  0.00    -0.250 OA
BRANCH  41  43
ATOM     43  C   UNL     1      11.895   4.294  23.306  0.00  0.00    +0.240 C 
BRANCH  43  44
ATOM     44  C   UNL     1      12.946   5.355  23.147  0.00  0.00    +0.316 C 
ATOM     45  O   UNL     1      13.623   5.534  22.144  0.00  0.00    -0.250 OA
BRANCH  44  46
ATOM     46  O   UNL     1      13.088   6.108  24.258  0.00  0.00    -0.480 OA
ATOM     47  H   UNL     1      12.469   5.911  24.991  0.00  0.00    +0.295 HD
ENDBRANCH  44  46
ENDBRANCH  43  44
ENDBRANCH  41  43
ENDBRANCH  40  41
ENDBRANCH  39  40
ENDBRANCH  29  39
ENDBRANCH  26  27
ENDBRANCH  11  26
TORSDOF 16
ENDMDL
MODEL 4
REMARK VINA RESULT:      -6.9      0.822      1.654
REMARK  Name = 
REMARK  16 active torsions:
REMARK  status: ('A' for Active; 'I' for Inactive)
REMARK    1  A    between atoms: C_3  and  O_39
REMARK    2  A    between atoms: C_4  and  O_38
REMARK    3  A    between atoms: C_6  and  C_7
REMARK    4  A    between atoms: C_8  and  O_20
REMARK    5  A    between atoms: C_12  and  O_19
REMARK    6  A    between atoms: C_14  and  O_18
REMARK    7  A    between atoms: O_20  and  C_21
REMARK    8  A    between atoms: C_22  and  O_37
REMARK    9  A    between atoms: C_23  and  O_36
REMARK   10  A    between atoms: C_24  and  O_35
REMARK   11  A    between atoms: C_25  and  C_27
REMARK   12  A    between atoms: C_27  and  O_28
REMARK   13  A    between atoms: O_28  and  C_29
REMARK   14  A    between atoms: C_29  and  C_31
REMARK   15  A    between atoms: C_31  and  C_32
REMARK   16  A    between atoms: C_32  and  O_34
REMARK                            x       y       z     vdW  Elec       q    Type
REMARK                         _______ _______ _______ _____ _____    ______ ____
ROOT
ATOM      1  C   UNL     1       7.642  -1.445  23.959  0.00  0.00    +0.181 A 
ATOM      2  O   UNL     1       7.817  -2.664  23.306  0.00  0.00    -0.451 OA
ATOM      3  C   UNL     1       6.848  -3.626  23.340  0.00  0.00    +0.147 A 
ATOM      4  C   UNL     1       5.625  -3.424  23.940  0.00  0.00    +0.109 A 
ATOM      5  C   UNL     1       4.664  -4.449  23.863  0.00  0.00    +0.135 A 
ATOM      6  C   UNL     1       4.937  -5.649  23.186  0.00  0.00    +0.091 A 
ATOM      7  C   UNL     1       6.178  -5.830  22.589  0.00  0.00    +0.124 A 
ATOM      8  C   UNL     1       5.403  -2.131  24.631  0.00  0.00    +0.238 A 
ATOM      9  O   UNL     1       4.313  -1.899  25.150  0.00  0.00    -0.283 OA
ATOM     10  C   UNL     1       7.135  -4.823  22.660  0.00  0.00    +0.092 A 
ATOM     11  C   UNL     1       6.513  -1.110  24.638  0.00  0.00    +0.214 A 
ENDROOT
BRANCH   1  13
ATOM     12  C   UNL     1       9.907  -0.414  24.520  0.00  0.00    +0.015 A 
ATOM     13  C   UNL     1       8.799  -0.539  23.676  0.00  0.00    +0.025 A 
ATOM     14  C   UNL     1       8.729   0.364  22.598  0.00  0.00    +0.060 A 
ATOM     15  C   UNL     1       9.599   1.443  22.526  0.00  0.00    +0.159 A 
ATOM     16  C   UNL     1      10.534   1.667  23.525  0.00  0.00    +0.158 A 
ATOM     17  C   UNL     1      10.727   0.718  24.508  0.00  0.00    +0.050 A 
BRANCH  16  18
ATOM     18  O   UNL     1      11.237   2.835  23.507  0.00  0.00    -0.503 OA
ATOM     19  H   UNL     1      10.981   3.312  22.697  0.00  0.00    +0.292 HD
ENDBRANCH  16  18
BRANCH  15  20
ATOM     20  O   UNL     1       9.490   2.318  21.485  0.00  0.00    -0.503 OA
ATOM     21  H   UNL     1       9.852   3.156  21.835  0.00  0.00    +0.292 HD
ENDBRANCH  15  20
ENDBRANCH   1  13
BRANCH   7  22
ATOM     22  O   UNL     1       6.498  -6.974  21.925  0.00  0.00    -0.507 OA
ATOM     23  H   UNL     1       5.966  -7.036  21.115  0.00  0.00    +0.292 HD
ENDBRANCH   7  22
BRANCH   5  24
ATOM     24  O   UNL     1       3.420  -4.359  24.426  0.00  0.00    -0.506 OA
ATOM     25  H   UNL     1       3.513  -4.386  25.401  0.00  0.00    +0.292 HD
ENDBRANCH   5  24
BRANCH  11  26
ATOM     26  O   UNL     1       6.417  -0.036  25.523  0.00  0.00    -0.453 OA
BRANCH  26  27
ATOM     27  C   UNL     1       5.713   1.190  25.191  0.00  0.00    +0.340 C 
ATOM     28  O   UNL     1       6.636   2.274  24.952  0.00  0.00    -0.330 OA
ATOM     29  C   UNL     1       7.435   2.755  26.056  0.00  0.00    +0.191 C 
ATOM     30  C   UNL     1       6.808   2.659  27.481  0.00  0.00    +0.178 C 
ATOM     31  C   UNL     1       5.659   1.635  27.603  0.00  0.00    +0.180 C 
ATOM     32  C   UNL     1       4.808   1.696  26.323  0.00  0.00    +0.214 C 
BRANCH  32  33
ATOM     33  O   UNL     1       3.555   1.025  26.377  0.00  0.00    -0.383 OA
ATOM     34  H   UNL     1       2.840   1.678  26.319  0.00  0.00    +0.210 HD
ENDBRANCH  32  33
BRANCH  31  35
ATOM     35  O   UNL     1       4.897   1.879  28.787  0.00  0.00    -0.386 OA
ATOM     36  H   UNL     1       5.527   1.934  29.529  0.00  0.00    +0.210 HD
ENDBRANCH  31  35
BRANCH  30  37
ATOM     37  O   UNL     1       6.368   3.914  28.021  0.00  0.00    -0.386 OA
ATOM     38  H   UNL     1       6.423   4.612  27.328  0.00  0.00    +0.210 HD
ENDBRANCH  30  37
BRANCH  29  39
ATOM     39  C   UNL     1       7.918   4.182  25.681  0.00  0.00    +0.266 C 
BRANCH  39  40
ATOM     40  O   UNL     1       8.618   4.233  24.415  0.00  0.00    -0.462 OA
BRANCH  40  41
ATOM     41  C   UNL     1       9.221   5.396  24.060  0.00  0.00    +0.318 C 
ATOM     42  O   UNL     1      10.412   5.644  24.190  0.00  0.00    -0.250 OA
BRANCH  41  43
ATOM     43  C   UNL     1       8.221   6.411  23.596  0.00  0.00    +0.240 C 
BRANCH  43  44
ATOM     44  C   UNL     1       7.563   6.089  22.285  0.00  0.00    +0.316 C 
ATOM     45  O   UNL     1       6.884   6.865  21.625  0.00  0.00    -0.250 OA
BRANCH  44  46
ATOM     46  O   UNL     1       7.785   4.816  21.897  0.00  0.00    -0.480 OA
ATOM     47  H   UNL     1       7.022   4.206  21.972  0.00  0.00    +0.295 HD
ENDBRANCH  44  46
ENDBRANCH  43  44
ENDBRANCH  41  43
ENDBRANCH  40  41
ENDBRANCH  39  40
ENDBRANCH  29  39
ENDBRANCH  26  27
ENDBRANCH  11  26
TORSDOF 16
ENDMDL
MODEL 5
REMARK VINA RESULT:      -6.8      2.438      7.824
REMARK  Name = 
REMARK  16 active torsions:
REMARK  status: ('A' for Active; 'I' for Inactive)
REMARK    1  A    between atoms: C_3  and  O_39
REMARK    2  A    between atoms: C_4  and  O_38
REMARK    3  A    between atoms: C_6  and  C_7
REMARK    4  A    between atoms: C_8  and  O_20
REMARK    5  A    between atoms: C_12  and  O_19
REMARK    6  A    between atoms: C_14  and  O_18
REMARK    7  A    between atoms: O_20  and  C_21
REMARK    8  A    between atoms: C_22  and  O_37
REMARK    9  A    between atoms: C_23  and  O_36
REMARK   10  A    between atoms: C_24  and  O_35
REMARK   11  A    between atoms: C_25  and  C_27
REMARK   12  A    between atoms: C_27  and  O_28
REMARK   13  A    between atoms: O_28  and  C_29
REMARK   14  A    between atoms: C_29  and  C_31
REMARK   15  A    between atoms: C_31  and  C_32
REMARK   16  A    between atoms: C_32  and  O_34
REMARK                            x       y       z     vdW  Elec       q    Type
REMARK                         _______ _______ _______ _____ _____    ______ ____
ROOT
ATOM      1  C   UNL     1       6.591  -1.532  23.611  0.00  0.00    +0.181 A 
ATOM      2  O   UNL     1       7.613  -0.978  22.841  0.00  0.00    -0.451 OA
ATOM      3  C   UNL     1       8.040   0.301  23.055  0.00  0.00    +0.147 A 
ATOM      4  C   UNL     1       7.555   1.082  24.080  0.00  0.00    +0.109 A 
ATOM      5  C   UNL     1       8.107   2.363  24.265  0.00  0.00    +0.135 A 
ATOM      6  C   UNL     1       9.132   2.837  23.431  0.00  0.00    +0.091 A 
ATOM      7  C   UNL     1       9.605   2.031  22.403  0.00  0.00    +0.124 A 
ATOM      8  C   UNL     1       6.476   0.516  24.925  0.00  0.00    +0.238 A 
ATOM      9  O   UNL     1       6.040   1.169  25.871  0.00  0.00    -0.283 OA
ATOM     10  C   UNL     1       9.067   0.763  22.212  0.00  0.00    +0.092 A 
ATOM     11  C   UNL     1       5.973  -0.875  24.628  0.00  0.00    +0.214 A 
ENDROOT
BRANCH   1  13
ATOM     12  C   UNL     1       7.375  -3.757  22.638  0.00  0.00    +0.015 A 
ATOM     13  C   UNL     1       6.391  -2.970  23.244  0.00  0.00    +0.025 A 
ATOM     14  C   UNL     1       5.111  -3.544  23.355  0.00  0.00    +0.060 A 
ATOM     15  C   UNL     1       4.812  -4.731  22.699  0.00  0.00    +0.159 A 
ATOM     16  C   UNL     1       5.758  -5.357  21.902  0.00  0.00    +0.158 A 
ATOM     17  C   UNL     1       7.061  -4.901  21.900  0.00  0.00    +0.050 A 
BRANCH  16  18
ATOM     18  O   UNL     1       5.365  -6.413  21.134  0.00  0.00    -0.503 OA
ATOM     19  H   UNL     1       4.998  -6.046  20.309  0.00  0.00    +0.292 HD
ENDBRANCH  16  18
BRANCH  15  20
ATOM     20  O   UNL     1       3.555  -5.251  22.801  0.00  0.00    -0.503 OA
ATOM     21  H   UNL     1       3.190  -4.846  23.612  0.00  0.00    +0.292 HD
ENDBRANCH  15  20
ENDBRANCH   1  13
BRANCH   7  22
ATOM     22  O   UNL     1      10.595   2.441  21.562  0.00  0.00    -0.507 OA
ATOM     23  H   UNL     1      11.154   1.682  21.330  0.00  0.00    +0.292 HD
ENDBRANCH   7  22
BRANCH   5  24
ATOM     24  O   UNL     1       7.698   3.226  25.246  0.00  0.00    -0.506 OA
ATOM     25  H   UNL     1       7.009   2.785  25.785  0.00  0.00    +0.292 HD
ENDBRANCH   5  24
BRANCH  11  26
ATOM     26  O   UNL     1       4.778  -1.286  25.220  0.00  0.00    -0.453 OA
BRANCH  26  27
ATOM     27  C   UNL     1       4.585  -1.302  26.658  0.00  0.00    +0.340 C 
ATOM     28  O   UNL     1       5.429  -2.289  27.288  0.00  0.00    -0.330 OA
ATOM     29  C   UNL     1       5.188  -3.684  27.005  0.00  0.00    +0.191 C 
ATOM     30  C   UNL     1       3.717  -4.102  26.698  0.00  0.00    +0.178 C 
ATOM     31  C   UNL     1       2.806  -2.940  26.250  0.00  0.00    +0.180 C 
ATOM     32  C   UNL     1       3.159  -1.691  27.075  0.00  0.00    +0.214 C 
BRANCH  32  33
ATOM     33  O   UNL     1       2.240  -0.610  26.992  0.00  0.00    -0.383 OA
ATOM     34  H   UNL     1       2.687   0.211  27.252  0.00  0.00    +0.210 HD
ENDBRANCH  32  33
BRANCH  31  35
ATOM     35  O   UNL     1       1.430  -3.310  26.369  0.00  0.00    -0.386 OA
ATOM     36  H   UNL     1       0.900  -2.507  26.207  0.00  0.00    +0.210 HD
ENDBRANCH  31  35
BRANCH  30  37
ATOM     37  O   UNL     1       3.068  -4.814  27.764  0.00  0.00    -0.386 OA
ATOM     38  H   UNL     1       2.105  -4.895  27.571  0.00  0.00    +0.210 HD
ENDBRANCH  30  37
BRANCH  29  39
ATOM     39  C   UNL     1       5.844  -4.502  28.150  0.00  0.00    +0.266 C 
BRANCH  39  40
ATOM     40  O   UNL     1       7.059  -5.176  27.747  0.00  0.00    -0.462 OA
BRANCH  40  41
ATOM     41  C   UNL     1       7.446  -5.084  26.450  0.00  0.00    +0.318 C 
ATOM     42  O   UNL     1       6.956  -5.709  25.519  0.00  0.00    -0.250 OA
BRANCH  41  43
ATOM     43  C   UNL     1       8.651  -4.205  26.299  0.00  0.00    +0.240 C 
BRANCH  43  44
ATOM     44  C   UNL     1       9.631  -4.657  25.255  0.00  0.00    +0.316 C 
ATOM     45  O   UNL     1      10.173  -3.930  24.433  0.00  0.00    -0.250 OA
BRANCH  44  46
ATOM     46  O   UNL     1       9.854  -5.987  25.301  0.00  0.00    -0.480 OA
ATOM     47  H   UNL     1       9.419  -6.469  26.034  0.00  0.00    +0.295 HD
ENDBRANCH  44  46
ENDBRANCH  43  44
ENDBRANCH  41  43
ENDBRANCH  40  41
ENDBRANCH  39  40
ENDBRANCH  29  39
ENDBRANCH  26  27
ENDBRANCH  11  26
TORSDOF 16
ENDMDL
MODEL 6
REMARK VINA RESULT:      -6.5      2.632      7.811
REMARK  Name = 
REMARK  16 active torsions:
REMARK  status: ('A' for Active; 'I' for Inactive)
REMARK    1  A    between atoms: C_3  and  O_39
REMARK    2  A    between atoms: C_4  and  O_38
REMARK    3  A    between atoms: C_6  and  C_7
REMARK    4  A    between atoms: C_8  and  O_20
REMARK    5  A    between atoms: C_12  and  O_19
REMARK    6  A    between atoms: C_14  and  O_18
REMARK    7  A    between atoms: O_20  and  C_21
REMARK    8  A    between atoms: C_22  and  O_37
REMARK    9  A    between atoms: C_23  and  O_36
REMARK   10  A    between atoms: C_24  and  O_35
REMARK   11  A    between atoms: C_25  and  C_27
REMARK   12  A    between atoms: C_27  and  O_28
REMARK   13  A    between atoms: O_28  and  C_29
REMARK   14  A    between atoms: C_29  and  C_31
REMARK   15  A    between atoms: C_31  and  C_32
REMARK   16  A    between atoms: C_32  and  O_34
REMARK                            x       y       z     vdW  Elec       q    Type
REMARK                         _______ _______ _______ _____ _____    ______ ____
ROOT
ATOM      1  C   UNL     1       6.767   0.549  25.074  0.00  0.00    +0.181 A 
ATOM      2  O   UNL     1       5.835   1.565  24.866  0.00  0.00    -0.451 OA
ATOM      3  C   UNL     1       4.689   1.631  25.605  0.00  0.00    +0.147 A 
ATOM      4  C   UNL     1       4.424   0.762  26.640  0.00  0.00    +0.109 A 
ATOM      5  C   UNL     1       3.249   0.951  27.390  0.00  0.00    +0.135 A 
ATOM      6  C   UNL     1       2.366   2.003  27.099  0.00  0.00    +0.091 A 
ATOM      7  C   UNL     1       2.654   2.868  26.051  0.00  0.00    +0.124 A 
ATOM      8  C   UNL     1       5.403  -0.323  26.895  0.00  0.00    +0.238 A 
ATOM      9  O   UNL     1       5.220  -1.099  27.830  0.00  0.00    -0.283 OA
ATOM     10  C   UNL     1       3.813   2.689  25.303  0.00  0.00    +0.092 A 
ATOM     11  C   UNL     1       6.630  -0.415  26.021  0.00  0.00    +0.214 A 
ENDROOT
BRANCH   1  13
ATOM     12  C   UNL     1       9.204   1.208  24.704  0.00  0.00    +0.015 A 
ATOM     13  C   UNL     1       7.971   0.770  24.212  0.00  0.00    +0.025 A 
ATOM     14  C   UNL     1       7.847   0.695  22.812  0.00  0.00    +0.060 A 
ATOM     15  C   UNL     1       8.824   1.238  21.989  0.00  0.00    +0.159 A 
ATOM     16  C   UNL     1       9.925   1.886  22.528  0.00  0.00    +0.158 A 
ATOM     17  C   UNL     1      10.147   1.839  23.890  0.00  0.00    +0.050 A 
BRANCH  16  18
ATOM     18  O   UNL     1      10.758   2.562  21.687  0.00  0.00    -0.503 OA
ATOM     19  H   UNL     1      11.307   1.898  21.232  0.00  0.00    +0.292 HD
ENDBRANCH  16  18
BRANCH  15  20
ATOM     20  O   UNL     1       8.665   1.177  20.635  0.00  0.00    -0.503 OA
ATOM     21  H   UNL     1       9.553   1.373  20.278  0.00  0.00    +0.292 HD
ENDBRANCH  15  20
ENDBRANCH   1  13
BRANCH   7  22
ATOM     22  O   UNL     1       1.831   3.901  25.722  0.00  0.00    -0.507 OA
ATOM     23  H   UNL     1       0.960   3.759  26.126  0.00  0.00    +0.292 HD
ENDBRANCH   7  22
BRANCH   5  24
ATOM     24  O   UNL     1       2.884   0.145  28.435  0.00  0.00    -0.506 OA
ATOM     25  H   UNL     1       2.136   0.564  28.909  0.00  0.00    +0.292 HD
ENDBRANCH   5  24
BRANCH  11  26
ATOM     26  O   UNL     1       7.386  -1.587  26.067  0.00  0.00    -0.453 OA
BRANCH  26  27
ATOM     27  C   UNL     1       7.232  -2.653  25.093  0.00  0.00    +0.340 C 
ATOM     28  O   UNL     1       6.057  -3.447  25.368  0.00  0.00    -0.330 OA
ATOM     29  C   UNL     1       6.022  -4.230  26.581  0.00  0.00    +0.191 C 
ATOM     30  C   UNL     1       7.384  -4.773  27.114  0.00  0.00    +0.178 C 
ATOM     31  C   UNL     1       8.621  -4.014  26.589  0.00  0.00    +0.180 C 
ATOM     32  C   UNL     1       8.390  -3.661  25.109  0.00  0.00    +0.214 C 
BRANCH  32  33
ATOM     33  O   UNL     1       9.531  -3.210  24.392  0.00  0.00    -0.383 OA
ATOM     34  H   UNL     1       9.305  -2.401  23.907  0.00  0.00    +0.210 HD
ENDBRANCH  32  33
BRANCH  31  35
ATOM     35  O   UNL     1       9.805  -4.788  26.794  0.00  0.00    -0.386 OA
ATOM     36  H   UNL     1       9.655  -5.341  27.584  0.00  0.00    +0.210 HD
ENDBRANCH  31  35
BRANCH  30  37
ATOM     37  O   UNL     1       7.583  -6.181  26.910  0.00  0.00    -0.386 OA
ATOM     38  H   UNL     1       7.290  -6.677  27.709  0.00  0.00    +0.210 HD
ENDBRANCH  30  37
BRANCH  29  39
ATOM     39  C   UNL     1       4.946  -5.331  26.381  0.00  0.00    +0.266 C 
BRANCH  39  40
ATOM     40  O   UNL     1       5.256  -6.243  25.301  0.00  0.00    -0.462 OA
BRANCH  40  41
ATOM     41  C   UNL     1       4.228  -6.772  24.590  0.00  0.00    +0.318 C 
ATOM     42  O   UNL     1       3.721  -7.867  24.788  0.00  0.00    -0.250 OA
BRANCH  41  43
ATOM     43  C   UNL     1       3.857  -5.897  23.431  0.00  0.00    +0.240 C 
BRANCH  43  44
ATOM     44  C   UNL     1       5.005  -5.514  22.541  0.00  0.00    +0.316 C 
ATOM     45  O   UNL     1       5.188  -4.402  22.064  0.00  0.00    -0.250 OA
BRANCH  44  46
ATOM     46  O   UNL     1       5.835  -6.549  22.298  0.00  0.00    -0.480 OA
ATOM     47  H   UNL     1       6.196  -7.003  23.088  0.00  0.00    +0.295 HD
ENDBRANCH  44  46
ENDBRANCH  43  44
ENDBRANCH  41  43
ENDBRANCH  40  41
ENDBRANCH  39  40
ENDBRANCH  29  39
ENDBRANCH  26  27
ENDBRANCH  11  26
TORSDOF 16
ENDMDL
MODEL 7
REMARK VINA RESULT:      -6.4      2.832      9.117
REMARK  Name = 
REMARK  16 active torsions:
REMARK  status: ('A' for Active; 'I' for Inactive)
REMARK    1  A    between atoms: C_3  and  O_39
REMARK    2  A    between atoms: C_4  and  O_38
REMARK    3  A    between atoms: C_6  and  C_7
REMARK    4  A    between atoms: C_8  and  O_20
REMARK    5  A    between atoms: C_12  and  O_19
REMARK    6  A    between atoms: C_14  and  O_18
REMARK    7  A    between atoms: O_20  and  C_21
REMARK    8  A    between atoms: C_22  and  O_37
REMARK    9  A    between atoms: C_23  and  O_36
REMARK   10  A    between atoms: C_24  and  O_35
REMARK   11  A    between atoms: C_25  and  C_27
REMARK   12  A    between atoms: C_27  and  O_28
REMARK   13  A    between atoms: O_28  and  C_29
REMARK   14  A    between atoms: C_29  and  C_31
REMARK   15  A    between atoms: C_31  and  C_32
REMARK   16  A    between atoms: C_32  and  O_34
REMARK                            x       y       z     vdW  Elec       q    Type
REMARK                         _______ _______ _______ _____ _____    ______ ____
ROOT
ATOM      1  C   UNL     1       6.410  -0.627  24.978  0.00  0.00    +0.181 A 
ATOM      2  O   UNL     1       7.160   0.542  24.870  0.00  0.00    -0.451 OA
ATOM      3  C   UNL     1       8.124   0.675  23.911  0.00  0.00    +0.147 A 
ATOM      4  C   UNL     1       8.355  -0.289  22.956  0.00  0.00    +0.109 A 
ATOM      5  C   UNL     1       9.321  -0.034  21.965  0.00  0.00    +0.135 A 
ATOM      6  C   UNL     1      10.032   1.177  21.944  0.00  0.00    +0.091 A 
ATOM      7  C   UNL     1       9.783   2.135  22.918  0.00  0.00    +0.124 A 
ATOM      8  C   UNL     1       7.563  -1.541  23.035  0.00  0.00    +0.238 A 
ATOM      9  O   UNL     1       7.716  -2.412  22.181  0.00  0.00    -0.283 OA
ATOM     10  C   UNL     1       8.830   1.891  23.901  0.00  0.00    +0.092 A 
ATOM     11  C   UNL     1       6.551  -1.692  24.144  0.00  0.00    +0.214 A 
ENDROOT
BRANCH   1  13
ATOM     12  C   UNL     1       4.670   0.722  26.265  0.00  0.00    +0.015 A 
ATOM     13  C   UNL     1       5.360  -0.471  26.033  0.00  0.00    +0.025 A 
ATOM     14  C   UNL     1       5.145  -1.509  26.959  0.00  0.00    +0.060 A 
ATOM     15  C   UNL     1       4.460  -1.266  28.142  0.00  0.00    +0.159 A 
ATOM     16  C   UNL     1       3.998   0.006  28.445  0.00  0.00    +0.158 A 
ATOM     17  C   UNL     1       4.060   1.002  27.491  0.00  0.00    +0.050 A 
BRANCH  16  18
ATOM     18  O   UNL     1       3.498   0.236  29.692  0.00  0.00    -0.503 OA
ATOM     19  H   UNL     1       4.054  -0.260  30.320  0.00  0.00    +0.292 HD
ENDBRANCH  16  18
BRANCH  15  20
ATOM     20  O   UNL     1       4.290  -2.284  29.035  0.00  0.00    -0.503 OA
ATOM     21  H   UNL     1       3.750  -2.941  28.553  0.00  0.00    +0.292 HD
ENDBRANCH  15  20
ENDBRANCH   1  13
BRANCH   7  22
ATOM     22  O   UNL     1      10.446   3.323  22.948  0.00  0.00    -0.507 OA
ATOM     23  H   UNL     1      10.436   3.719  22.061  0.00  0.00    +0.292 HD
ENDBRANCH   7  22
BRANCH   5  24
ATOM     24  O   UNL     1       9.636  -0.921  20.972  0.00  0.00    -0.506 OA
ATOM     25  H   UNL     1       8.813  -1.174  20.504  0.00  0.00    +0.292 HD
ENDBRANCH   5  24
BRANCH  11  26
ATOM     26  O   UNL     1       6.029  -2.961  24.393  0.00  0.00    -0.453 OA
BRANCH  26  27
ATOM     27  C   UNL     1       4.770  -3.413  23.828  0.00  0.00    +0.340 C 
ATOM     28  O   UNL     1       3.934  -4.023  24.835  0.00  0.00    -0.330 OA
ATOM     29  C   UNL     1       4.375  -5.258  25.440  0.00  0.00    +0.191 C 
ATOM     30  C   UNL     1       5.234  -6.215  24.557  0.00  0.00    +0.178 C 
ATOM     31  C   UNL     1       5.915  -5.529  23.353  0.00  0.00    +0.180 C 
ATOM     32  C   UNL     1       4.941  -4.500  22.757  0.00  0.00    +0.214 C 
BRANCH  32  33
ATOM     33  O   UNL     1       5.292  -3.976  21.482  0.00  0.00    -0.383 OA
ATOM     34  H   UNL     1       6.244  -4.094  21.339  0.00  0.00    +0.210 HD
ENDBRANCH  32  33
BRANCH  31  35
ATOM     35  O   UNL     1       6.342  -6.505  22.399  0.00  0.00    -0.386 OA
ATOM     36  H   UNL     1       5.562  -6.745  21.864  0.00  0.00    +0.210 HD
ENDBRANCH  31  35
BRANCH  30  37
ATOM     37  O   UNL     1       4.535  -7.380  24.091  0.00  0.00    -0.386 OA
ATOM     38  H   UNL     1       4.306  -7.272  23.139  0.00  0.00    +0.210 HD
ENDBRANCH  30  37
BRANCH  29  39
ATOM     39  C   UNL     1       3.122  -5.935  26.058  0.00  0.00    +0.266 C 
BRANCH  39  40
ATOM     40  O   UNL     1       2.867  -5.527  27.423  0.00  0.00    -0.462 OA
BRANCH  40  41
ATOM     41  C   UNL     1       3.303  -6.329  28.426  0.00  0.00    +0.318 C 
ATOM     42  O   UNL     1       2.706  -7.304  28.863  0.00  0.00    -0.250 OA
BRANCH  41  43
ATOM     43  C   UNL     1       4.567  -5.803  29.038  0.00  0.00    +0.240 C 
BRANCH  43  44
ATOM     44  C   UNL     1       5.814  -6.527  28.619  0.00  0.00    +0.316 C 
ATOM     45  O   UNL     1       6.903  -6.003  28.422  0.00  0.00    -0.250 OA
BRANCH  44  46
ATOM     46  O   UNL     1       5.612  -7.851  28.461  0.00  0.00    -0.480 OA
ATOM     47  H   UNL     1       4.809  -8.105  27.961  0.00  0.00    +0.295 HD
ENDBRANCH  44  46
ENDBRANCH  43  44
ENDBRANCH  41  43
ENDBRANCH  40  41
ENDBRANCH  39  40
ENDBRANCH  29  39
ENDBRANCH  26  27
ENDBRANCH  11  26
TORSDOF 16
ENDMDL
MODEL 8
REMARK VINA RESULT:      -6.4      2.106      8.062
REMARK  Name = 
REMARK  16 active torsions:
REMARK  status: ('A' for Active; 'I' for Inactive)
REMARK    1  A    between atoms: C_3  and  O_39
REMARK    2  A    between atoms: C_4  and  O_38
REMARK    3  A    between atoms: C_6  and  C_7
REMARK    4  A    between atoms: C_8  and  O_20
REMARK    5  A    between atoms: C_12  and  O_19
REMARK    6  A    between atoms: C_14  and  O_18
REMARK    7  A    between atoms: O_20  and  C_21
REMARK    8  A    between atoms: C_22  and  O_37
REMARK    9  A    between atoms: C_23  and  O_36
REMARK   10  A    between atoms: C_24  and  O_35
REMARK   11  A    between atoms: C_25  and  C_27
REMARK   12  A    between atoms: C_27  and  O_28
REMARK   13  A    between atoms: O_28  and  C_29
REMARK   14  A    between atoms: C_29  and  C_31
REMARK   15  A    between atoms: C_31  and  C_32
REMARK   16  A    between atoms: C_32  and  O_34
REMARK                            x       y       z     vdW  Elec       q    Type
REMARK                         _______ _______ _______ _____ _____    ______ ____
ROOT
ATOM      1  C   UNL     1       9.785   2.023  23.582  0.00  0.00    +0.181 A 
ATOM      2  O   UNL     1      10.941   2.582  23.038  0.00  0.00    -0.451 OA
ATOM      3  C   UNL     1      11.277   3.882  23.284  0.00  0.00    +0.147 A 
ATOM      4  C   UNL     1      10.552   4.685  24.137  0.00  0.00    +0.109 A 
ATOM      5  C   UNL     1      11.016   5.991  24.383  0.00  0.00    +0.135 A 
ATOM      6  C   UNL     1      12.192   6.467  23.781  0.00  0.00    +0.091 A 
ATOM      7  C   UNL     1      12.906   5.639  22.925  0.00  0.00    +0.124 A 
ATOM      8  C   UNL     1       9.324   4.115  24.742  0.00  0.00    +0.238 A 
ATOM      9  O   UNL     1       8.668   4.789  25.534  0.00  0.00    -0.283 OA
ATOM     10  C   UNL     1      12.456   4.347  22.675  0.00  0.00    +0.092 A 
ATOM     11  C   UNL     1       8.937   2.697  24.402  0.00  0.00    +0.214 A 
ENDROOT
BRANCH   1  13
ATOM     12  C   UNL     1       9.237   0.078  22.024  0.00  0.00    +0.015 A 
ATOM     13  C   UNL     1       9.710   0.566  23.245  0.00  0.00    +0.025 A 
ATOM     14  C   UNL     1       9.971  -0.392  24.243  0.00  0.00    +0.060 A 
ATOM     15  C   UNL     1       9.566  -1.709  24.077  0.00  0.00    +0.159 A 
ATOM     16  C   UNL     1       8.876  -2.100  22.940  0.00  0.00    +0.158 A 
ATOM     17  C   UNL     1       8.744  -1.221  21.883  0.00  0.00    +0.050 A 
BRANCH  16  18
ATOM     18  O   UNL     1       8.339  -3.353  22.903  0.00  0.00    -0.503 OA
ATOM     19  H   UNL     1       8.893  -3.885  22.304  0.00  0.00    +0.292 HD
ENDBRANCH  16  18
BRANCH  15  20
ATOM     20  O   UNL     1       9.806  -2.612  25.072  0.00  0.00    -0.503 OA
ATOM     21  H   UNL     1       9.170  -3.334  24.903  0.00  0.00    +0.292 HD
ENDBRANCH  15  20
ENDBRANCH   1  13
BRANCH   7  22
ATOM     22  O   UNL     1      14.049   6.050  22.311  0.00  0.00    -0.507 OA
ATOM     23  H   UNL     1      14.805   5.565  22.681  0.00  0.00    +0.292 HD
ENDBRANCH   7  22
BRANCH   5  24
ATOM     24  O   UNL     1      10.373   6.876  25.206  0.00  0.00    -0.506 OA
ATOM     25  H   UNL     1      11.015   7.554  25.501  0.00  0.00    +0.292 HD
ENDBRANCH   5  24
BRANCH  11  26
ATOM     26  O   UNL     1       7.650   2.269  24.727  0.00  0.00    -0.453 OA
BRANCH  26  27
ATOM     27  C   UNL     1       7.246   1.974  26.090  0.00  0.00    +0.340 C 
ATOM     28  O   UNL     1       7.445   0.579  26.405  0.00  0.00    -0.330 OA
ATOM     29  C   UNL     1       6.651  -0.405  25.708  0.00  0.00    +0.191 C 
ATOM     30  C   UNL     1       5.218   0.023  25.266  0.00  0.00    +0.178 C 
ATOM     31  C   UNL     1       5.009   1.550  25.176  0.00  0.00    +0.180 C 
ATOM     32  C   UNL     1       5.751   2.218  26.347  0.00  0.00    +0.214 C 
BRANCH  32  33
ATOM     33  O   UNL     1       5.441   3.585  26.580  0.00  0.00    -0.383 OA
ATOM     34  H   UNL     1       6.233   4.124  26.424  0.00  0.00    +0.210 HD
ENDBRANCH  32  33
BRANCH  31  35
ATOM     35  O   UNL     1       3.615   1.862  25.155  0.00  0.00    -0.386 OA
ATOM     36  H   UNL     1       3.506   2.661  24.606  0.00  0.00    +0.210 HD
ENDBRANCH  31  35
BRANCH  30  37
ATOM     37  O   UNL     1       4.159  -0.543  26.055  0.00  0.00    -0.386 OA
ATOM     38  H   UNL     1       4.456  -0.640  26.989  0.00  0.00    +0.210 HD
ENDBRANCH  30  37
BRANCH  29  39
ATOM     39  C   UNL     1       6.680  -1.701  26.562  0.00  0.00    +0.266 C 
BRANCH  39  40
ATOM     40  O   UNL     1       6.973  -2.889  25.788  0.00  0.00    -0.462 OA
BRANCH  40  41
ATOM     41  C   UNL     1       5.975  -3.785  25.583  0.00  0.00    +0.318 C 
ATOM     42  O   UNL     1       4.789  -3.508  25.462  0.00  0.00    -0.250 OA
BRANCH  41  43
ATOM     43  C   UNL     1       6.482  -5.194  25.648  0.00  0.00    +0.240 C 
BRANCH  43  44
ATOM     44  C   UNL     1       7.959  -5.318  25.893  0.00  0.00    +0.316 C 
ATOM     45  O   UNL     1       8.814  -5.415  25.022  0.00  0.00    -0.250 OA
BRANCH  44  46
ATOM     46  O   UNL     1       8.263  -5.328  27.207  0.00  0.00    -0.480 OA
ATOM     47  H   UNL     1       9.199  -5.516  27.429  0.00  0.00    +0.295 HD
ENDBRANCH  44  46
ENDBRANCH  43  44
ENDBRANCH  41  43
ENDBRANCH  40  41
ENDBRANCH  39  40
ENDBRANCH  29  39
ENDBRANCH  26  27
ENDBRANCH  11  26
TORSDOF 16
ENDMDL
MODEL 9
REMARK VINA RESULT:      -6.4      2.505      8.474
REMARK  Name = 
REMARK  16 active torsions:
REMARK  status: ('A' for Active; 'I' for Inactive)
REMARK    1  A    between atoms: C_3  and  O_39
REMARK    2  A    between atoms: C_4  and  O_38
REMARK    3  A    between atoms: C_6  and  C_7
REMARK    4  A    between atoms: C_8  and  O_20
REMARK    5  A    between atoms: C_12  and  O_19
REMARK    6  A    between atoms: C_14  and  O_18
REMARK    7  A    between atoms: O_20  and  C_21
REMARK    8  A    between atoms: C_22  and  O_37
REMARK    9  A    between atoms: C_23  and  O_36
REMARK   10  A    between atoms: C_24  and  O_35
REMARK   11  A    between atoms: C_25  and  C_27
REMARK   12  A    between atoms: C_27  and  O_28
REMARK   13  A    between atoms: O_28  and  C_29
REMARK   14  A    between atoms: C_29  and  C_31
REMARK   15  A    between atoms: C_31  and  C_32
REMARK   16  A    between atoms: C_32  and  O_34
REMARK                            x       y       z     vdW  Elec       q    Type
REMARK                         _______ _______ _______ _____ _____    ______ ____
ROOT
ATOM      1  C   UNL     1       7.200  -1.474  23.357  0.00  0.00    +0.181 A 
ATOM      2  O   UNL     1       8.183  -0.698  22.746  0.00  0.00    -0.451 OA
ATOM      3  C   UNL     1       8.519   0.531  23.240  0.00  0.00    +0.147 A 
ATOM      4  C   UNL     1       7.976   1.035  24.401  0.00  0.00    +0.109 A 
ATOM      5  C   UNL     1       8.435   2.280  24.870  0.00  0.00    +0.135 A 
ATOM      6  C   UNL     1       9.428   2.992  24.178  0.00  0.00    +0.091 A 
ATOM      7  C   UNL     1       9.961   2.463  23.009  0.00  0.00    +0.124 A 
ATOM      8  C   UNL     1       6.936   0.226  25.083  0.00  0.00    +0.238 A 
ATOM      9  O   UNL     1       6.451   0.626  26.139  0.00  0.00    -0.283 OA
ATOM     10  C   UNL     1       9.513   1.234  22.538  0.00  0.00    +0.092 A 
ATOM     11  C   UNL     1       6.534  -1.098  24.481  0.00  0.00    +0.214 A 
ENDROOT
BRANCH   1  13
ATOM     12  C   UNL     1       6.114  -3.133  21.752  0.00  0.00    +0.015 A 
ATOM     13  C   UNL     1       7.103  -2.807  22.684  0.00  0.00    +0.025 A 
ATOM     14  C   UNL     1       7.938  -3.860  23.104  0.00  0.00    +0.060 A 
ATOM     15  C   UNL     1       7.637  -5.173  22.769  0.00  0.00    +0.159 A 
ATOM     16  C   UNL     1       6.497  -5.475  22.039  0.00  0.00    +0.158 A 
ATOM     17  C   UNL     1       5.749  -4.455  21.486  0.00  0.00    +0.050 A 
BRANCH  16  18
ATOM     18  O   UNL     1       6.145  -6.784  21.893  0.00  0.00    -0.503 OA
ATOM     19  H   UNL     1       6.685  -7.147  21.168  0.00  0.00    +0.292 HD
ENDBRANCH  16  18
BRANCH  15  20
ATOM     20  O   UNL     1       8.447  -6.177  23.214  0.00  0.00    -0.503 OA
ATOM     21  H   UNL     1       9.214  -6.154  22.609  0.00  0.00    +0.292 HD
ENDBRANCH  15  20
ENDBRANCH   1  13
BRANCH   7  22
ATOM     22  O   UNL     1      10.922   3.113  22.296  0.00  0.00    -0.507 OA
ATOM     23  H   UNL     1      11.771   2.656  22.412  0.00  0.00    +0.292 HD
ENDBRANCH   7  22
BRANCH   5  24
ATOM     24  O   UNL     1       7.963   2.878  26.007  0.00  0.00    -0.506 OA
ATOM     25  H   UNL     1       8.696   2.947  26.653  0.00  0.00    +0.292 HD
ENDBRANCH   5  24
BRANCH  11  26
ATOM     26  O   UNL     1       5.369  -1.707  24.947  0.00  0.00    -0.453 OA
BRANCH  26  27
ATOM     27  C   UNL     1       5.371  -2.660  26.042  0.00  0.00    +0.340 C 
ATOM     28  O   UNL     1       5.374  -4.019  25.553  0.00  0.00    -0.330 OA
ATOM     29  C   UNL     1       4.216  -4.494  24.832  0.00  0.00    +0.191 C 
ATOM     30  C   UNL     1       2.835  -3.886  25.226  0.00  0.00    +0.178 C 
ATOM     31  C   UNL     1       2.922  -2.531  25.960  0.00  0.00    +0.180 C 
ATOM     32  C   UNL     1       4.118  -2.571  26.927  0.00  0.00    +0.214 C 
BRANCH  32  33
ATOM     33  O   UNL     1       4.183  -1.519  27.880  0.00  0.00    -0.383 OA
ATOM     34  H   UNL     1       4.978  -1.629  28.425  0.00  0.00    +0.210 HD
ENDBRANCH  32  33
BRANCH  31  35
ATOM     35  O   UNL     1       1.688  -2.240  26.619  0.00  0.00    -0.386 OA
ATOM     36  H   UNL     1       1.543  -2.941  27.283  0.00  0.00    +0.210 HD
ENDBRANCH  31  35
BRANCH  30  37
ATOM     37  O   UNL     1       1.992  -4.769  25.984  0.00  0.00    -0.386 OA
ATOM     38  H   UNL     1       2.519  -5.203  26.694  0.00  0.00    +0.210 HD
ENDBRANCH  30  37
BRANCH  29  39
ATOM     39  C   UNL     1       4.253  -6.045  24.883  0.00  0.00    +0.266 C 
BRANCH  39  40
ATOM     40  O   UNL     1       5.023  -6.562  25.995  0.00  0.00    -0.462 OA
BRANCH  40  41
ATOM     41  C   UNL     1       4.360  -6.918  27.124  0.00  0.00    +0.318 C 
ATOM     42  O   UNL     1       3.149  -7.061  27.219  0.00  0.00    -0.250 OA
BRANCH  41  43
ATOM     43  C   UNL     1       5.287  -6.999  28.300  0.00  0.00    +0.240 C 
BRANCH  43  44
ATOM     44  C   UNL     1       6.252  -5.854  28.418  0.00  0.00    +0.316 C 
ATOM     45  O   UNL     1       6.016  -4.785  28.965  0.00  0.00    -0.250 OA
BRANCH  44  46
ATOM     46  O   UNL     1       7.438  -6.118  27.832  0.00  0.00    -0.480 OA
ATOM     47  H   UNL     1       7.689  -7.064  27.780  0.00  0.00    +0.295 HD
ENDBRANCH  44  46
ENDBRANCH  43  44
ENDBRANCH  41  43
ENDBRANCH  40  41
ENDBRANCH  39  40
ENDBRANCH  29  39
ENDBRANCH  26  27
ENDBRANCH  11  26
TORSDOF 16
ENDMDL
