MODEL 1
REMARK VINA RESULT:      -7.6      0.000      0.000
REMARK  Name = 
REMARK  16 active torsions:
REMARK  status: ('A' for Active; 'I' for Inactive)
REMARK    1  A    between atoms: C_1  and  C_2
REMARK    2  A    between atoms: C_3  and  O_48
REMARK    3  A    between atoms: C_5  and  O_47
REMARK    4  A    between atoms: C_7  and  O_46
REMARK    5  A    between atoms: C_8  and  O_11
REMARK    6  A    between atoms: O_11  and  C_12
REMARK    7  A    between atoms: C_14  and  O_45
REMARK    8  A    between atoms: C_19  and  C_37
REMARK    9  A    between atoms: C_20  and  O_23
REMARK   10  A    between atoms: O_23  and  C_24
REMARK   11  A    between atoms: C_26  and  O_36
REMARK   12  A    between atoms: C_28  and  O_35
REMARK   13  A    between atoms: C_29  and  O_34
REMARK   14  A    between atoms: C_31  and  C_33
REMARK   15  A    between atoms: C_39  and  O_44
REMARK   16  A    between atoms: C_40  and  O_43
REMARK                            x       y       z     vdW  Elec       q    Type
REMARK                         _______ _______ _______ _____ _____    ______ ____
ROOT
ATOM      1  C   UNL     1       6.783  -4.207  24.486  0.00  0.00    +0.131 A 
ATOM      2  C   UNL     1       6.052  -3.012  24.580  0.00  0.00    +0.093 A 
ATOM      3  C   UNL     1       6.698  -1.775  24.427  0.00  0.00    +0.147 A 
ATOM      4  O   UNL     1       5.957  -0.619  24.541  0.00  0.00    -0.451 OA
ATOM      5  C   UNL     1       6.548   0.609  24.198  0.00  0.00    +0.181 A 
ATOM      6  C   UNL     1       7.873   0.767  23.971  0.00  0.00    +0.214 A 
ATOM      7  C   UNL     1       8.713  -0.444  24.230  0.00  0.00    +0.238 A 
ATOM      8  O   UNL     1       9.915  -0.379  24.498  0.00  0.00    -0.283 OA
ATOM      9  C   UNL     1       8.064  -1.748  24.198  0.00  0.00    +0.109 A 
ATOM     10  C   UNL     1       8.786  -2.932  24.044  0.00  0.00    +0.135 A 
ATOM     11  C   UNL     1       8.152  -4.158  24.192  0.00  0.00    +0.092 A 
ENDROOT
BRANCH   5  12
ATOM     12  C   UNL     1       5.557   1.734  24.164  0.00  0.00    +0.025 A 
ATOM     13  C   UNL     1       4.812   2.062  25.314  0.00  0.00    +0.015 A 
ATOM     14  C   UNL     1       3.938   3.157  25.333  0.00  0.00    +0.050 A 
ATOM     15  C   UNL     1       3.799   3.935  24.194  0.00  0.00    +0.158 A 
ATOM     16  C   UNL     1       4.519   3.634  23.047  0.00  0.00    +0.159 A 
ATOM     17  C   UNL     1       5.402   2.555  23.029  0.00  0.00    +0.060 A 
BRANCH  15  18
ATOM     18  O   UNL     1       2.953   5.008  24.211  0.00  0.00    -0.503 OA
ATOM     19  H   UNL     1       2.064   4.616  24.328  0.00  0.00    +0.292 HD
ENDBRANCH  15  18
BRANCH  16  20
ATOM     20  O   UNL     1       4.334   4.438  21.954  0.00  0.00    -0.503 OA
ATOM     21  H   UNL     1       4.632   5.335  22.183  0.00  0.00    +0.292 HD
ENDBRANCH  16  20
ENDBRANCH   5  12
BRANCH  10  22
ATOM     22  O   UNL     1      10.118  -2.907  23.734  0.00  0.00    -0.506 OA
ATOM     23  H   UNL     1      10.554  -2.163  24.182  0.00  0.00    +0.292 HD
ENDBRANCH  10  22
BRANCH   1  24
ATOM     24  O   UNL     1       6.336  -5.480  24.673  0.00  0.00    -0.461 OA
BRANCH  24  28
ATOM     25  C   UNL     1       2.857  -6.513  26.975  0.00  0.00    +0.041 C 
ATOM     26  C   UNL     1       3.361  -7.320  25.781  0.00  0.00    +0.150 C 
ATOM     27  O   UNL     1       4.733  -6.999  25.506  0.00  0.00    -0.334 OA
ATOM     28  C   UNL     1       4.951  -5.695  24.959  0.00  0.00    +0.339 C 
ATOM     29  C   UNL     1       4.205  -5.587  23.608  0.00  0.00    +0.214 C 
ATOM     30  C   UNL     1       2.706  -5.791  23.867  0.00  0.00    +0.180 C 
ATOM     31  C   UNL     1       2.462  -7.157  24.540  0.00  0.00    +0.174 C 
BRANCH  29  32
ATOM     32  O   UNL     1       4.686  -6.617  22.709  0.00  0.00    -0.383 OA
ATOM     33  H   UNL     1       5.381  -6.201  22.162  0.00  0.00    +0.210 HD
ENDBRANCH  29  32
BRANCH  30  34
ATOM     34  O   UNL     1       1.952  -5.637  22.661  0.00  0.00    -0.386 OA
ATOM     35  H   UNL     1       1.890  -4.684  22.464  0.00  0.00    +0.210 HD
ENDBRANCH  30  34
BRANCH  31  36
ATOM     36  O   UNL     1       2.718  -8.227  23.620  0.00  0.00    -0.387 OA
ATOM     37  H   UNL     1       2.164  -8.988  23.905  0.00  0.00    +0.210 HD
ENDBRANCH  31  36
ENDBRANCH  24  28
ENDBRANCH   1  24
BRANCH   6  38
ATOM     38  O   UNL     1       8.443   1.969  23.528  0.00  0.00    -0.453 OA
BRANCH  38  39
ATOM     39  C   UNL     1       9.246   2.707  24.470  0.00  0.00    +0.339 C 
ATOM     40  O   UNL     1       8.425   3.275  25.509  0.00  0.00    -0.334 OA
ATOM     41  C   UNL     1       7.744   4.487  25.183  0.00  0.00    +0.150 C 
ATOM     42  C   UNL     1       7.006   4.937  26.443  0.00  0.00    +0.041 C 
ATOM     43  C   UNL     1       8.720   5.572  24.729  0.00  0.00    +0.174 C 
ATOM     44  C   UNL     1       9.469   5.079  23.495  0.00  0.00    +0.180 C 
ATOM     45  C   UNL     1      10.187   3.764  23.802  0.00  0.00    +0.214 C 
BRANCH  43  46
ATOM     46  O   UNL     1       8.021   6.792  24.463  0.00  0.00    -0.387 OA
ATOM     47  H   UNL     1       7.554   6.692  23.614  0.00  0.00    +0.210 HD
ENDBRANCH  43  46
BRANCH  44  48
ATOM     48  O   UNL     1      10.391   6.105  23.079  0.00  0.00    -0.386 OA
ATOM     49  H   UNL     1      11.236   5.963  23.542  0.00  0.00    +0.210 HD
ENDBRANCH  44  48
BRANCH  45  50
ATOM     50  O   UNL     1      10.819   3.326  22.592  0.00  0.00    -0.383 OA
ATOM     51  H   UNL     1      10.925   4.127  22.034  0.00  0.00    +0.210 HD
ENDBRANCH  45  50
ENDBRANCH  38  39
ENDBRANCH   6  38
TORSDOF 14
ENDMDL
MODEL 2
REMARK VINA RESULT:      -7.6      2.267     10.091
REMARK  Name = 
REMARK  16 active torsions:
REMARK  status: ('A' for Active; 'I' for Inactive)
REMARK    1  A    between atoms: C_1  and  C_2
REMARK    2  A    between atoms: C_3  and  O_48
REMARK    3  A    between atoms: C_5  and  O_47
REMARK    4  A    between atoms: C_7  and  O_46
REMARK    5  A    between atoms: C_8  and  O_11
REMARK    6  A    between atoms: O_11  and  C_12
REMARK    7  A    between atoms: C_14  and  O_45
REMARK    8  A    between atoms: C_19  and  C_37
REMARK    9  A    between atoms: C_20  and  O_23
REMARK   10  A    between atoms: O_23  and  C_24
REMARK   11  A    between atoms: C_26  and  O_36
REMARK   12  A    between atoms: C_28  and  O_35
REMARK   13  A    between atoms: C_29  and  O_34
REMARK   14  A    between atoms: C_31  and  C_33
REMARK   15  A    between atoms: C_39  and  O_44
REMARK   16  A    between atoms: C_40  and  O_43
REMARK                            x       y       z     vdW  Elec       q    Type
REMARK                         _______ _______ _______ _____ _____    ______ ____
ROOT
ATOM      1  C   UNL     1       9.436  -0.301  24.148  0.00  0.00    +0.131 A 
ATOM      2  C   UNL     1       8.793  -0.951  25.213  0.00  0.00    +0.093 A 
ATOM      3  C   UNL     1       7.817  -1.928  24.961  0.00  0.00    +0.147 A 
ATOM      4  O   UNL     1       7.192  -2.535  26.027  0.00  0.00    -0.451 OA
ATOM      5  C   UNL     1       6.361  -3.645  25.791  0.00  0.00    +0.181 A 
ATOM      6  C   UNL     1       5.953  -4.030  24.559  0.00  0.00    +0.214 A 
ATOM      7  C   UNL     1       6.346  -3.113  23.443  0.00  0.00    +0.238 A 
ATOM      8  O   UNL     1       5.727  -3.054  22.378  0.00  0.00    -0.283 OA
ATOM      9  C   UNL     1       7.487  -2.231  23.649  0.00  0.00    +0.109 A 
ATOM     10  C   UNL     1       8.164  -1.633  22.586  0.00  0.00    +0.135 A 
ATOM     11  C   UNL     1       9.132  -0.669  22.830  0.00  0.00    +0.092 A 
ENDROOT
BRANCH   5  12
ATOM     12  C   UNL     1       5.935  -4.324  27.059  0.00  0.00    +0.025 A 
ATOM     13  C   UNL     1       4.956  -3.738  27.886  0.00  0.00    +0.015 A 
ATOM     14  C   UNL     1       4.483  -4.387  29.034  0.00  0.00    +0.050 A 
ATOM     15  C   UNL     1       4.991  -5.633  29.368  0.00  0.00    +0.158 A 
ATOM     16  C   UNL     1       5.957  -6.232  28.573  0.00  0.00    +0.159 A 
ATOM     17  C   UNL     1       6.419  -5.596  27.421  0.00  0.00    +0.060 A 
BRANCH  15  18
ATOM     18  O   UNL     1       4.527  -6.272  30.482  0.00  0.00    -0.503 OA
ATOM     19  H   UNL     1       4.290  -7.168  30.169  0.00  0.00    +0.292 HD
ENDBRANCH  15  18
BRANCH  16  20
ATOM     20  O   UNL     1       6.422  -7.461  28.958  0.00  0.00    -0.503 OA
ATOM     21  H   UNL     1       7.374  -7.382  29.138  0.00  0.00    +0.292 HD
ENDBRANCH  16  20
ENDBRANCH   5  12
BRANCH  10  22
ATOM     22  O   UNL     1       7.899  -1.994  21.293  0.00  0.00    -0.506 OA
ATOM     23  H   UNL     1       7.153  -2.615  21.264  0.00  0.00    +0.292 HD
ENDBRANCH  10  22
BRANCH   1  24
ATOM     24  O   UNL     1      10.348   0.709  24.210  0.00  0.00    -0.461 OA
BRANCH  24  28
ATOM     25  C   UNL     1       7.947   3.808  25.969  0.00  0.00    +0.041 C 
ATOM     26  C   UNL     1       7.956   3.479  24.478  0.00  0.00    +0.150 C 
ATOM     27  O   UNL     1       8.490   2.163  24.262  0.00  0.00    -0.334 OA
ATOM     28  C   UNL     1       9.896   2.036  24.494  0.00  0.00    +0.339 C 
ATOM     29  C   UNL     1      10.651   2.972  23.521  0.00  0.00    +0.214 C 
ATOM     30  C   UNL     1      10.213   4.416  23.802  0.00  0.00    +0.180 C 
ATOM     31  C   UNL     1       8.686   4.550  23.644  0.00  0.00    +0.174 C 
BRANCH  29  32
ATOM     32  O   UNL     1      10.313   2.620  22.155  0.00  0.00    -0.383 OA
ATOM     33  H   UNL     1      10.310   1.644  22.117  0.00  0.00    +0.210 HD
ENDBRANCH  29  32
BRANCH  30  34
ATOM     34  O   UNL     1      10.929   5.338  22.975  0.00  0.00    -0.386 OA
ATOM     35  H   UNL     1      11.616   5.762  23.522  0.00  0.00    +0.210 HD
ENDBRANCH  30  34
BRANCH  31  36
ATOM     36  O   UNL     1       8.306   4.423  22.267  0.00  0.00    -0.387 OA
ATOM     37  H   UNL     1       9.122   4.201  21.765  0.00  0.00    +0.210 HD
ENDBRANCH  31  36
ENDBRANCH  24  28
ENDBRANCH   1  24
BRANCH   6  38
ATOM     38  O   UNL     1       5.212  -5.196  24.319  0.00  0.00    -0.453 OA
BRANCH  38  39
ATOM     39  C   UNL     1       3.793  -5.048  24.122  0.00  0.00    +0.339 C 
ATOM     40  O   UNL     1       3.100  -5.014  25.385  0.00  0.00    -0.334 OA
ATOM     41  C   UNL     1       2.855  -6.277  26.004  0.00  0.00    +0.150 C 
ATOM     42  C   UNL     1       2.054  -6.003  27.276  0.00  0.00    +0.041 C 
ATOM     43  C   UNL     1       2.072  -7.210  25.081  0.00  0.00    +0.174 C 
ATOM     44  C   UNL     1       2.877  -7.433  23.804  0.00  0.00    +0.180 C 
ATOM     45  C   UNL     1       3.183  -6.095  23.131  0.00  0.00    +0.214 C 
BRANCH  43  46
ATOM     46  O   UNL     1       1.789  -8.446  25.743  0.00  0.00    -0.387 OA
ATOM     47  H   UNL     1       2.539  -9.048  25.588  0.00  0.00    +0.210 HD
ENDBRANCH  43  46
BRANCH  44  48
ATOM     48  O   UNL     1       2.128  -8.307  22.938  0.00  0.00    -0.386 OA
ATOM     49  H   UNL     1       2.056  -9.177  23.369  0.00  0.00    +0.210 HD
ENDBRANCH  44  48
BRANCH  45  50
ATOM     50  O   UNL     1       3.989  -6.368  21.977  0.00  0.00    -0.383 OA
ATOM     51  H   UNL     1       3.391  -6.785  21.319  0.00  0.00    +0.210 HD
ENDBRANCH  45  50
ENDBRANCH  38  39
ENDBRANCH   6  38
TORSDOF 14
ENDMDL
MODEL 3
REMARK VINA RESULT:      -7.3      2.304      9.791
REMARK  Name = 
REMARK  16 active torsions:
REMARK  status: ('A' for Active; 'I' for Inactive)
REMARK    1  A    between atoms: C_1  and  C_2
REMARK    2  A    between atoms: C_3  and  O_48
REMARK    3  A    between atoms: C_5  and  O_47
REMARK    4  A    between atoms: C_7  and  O_46
REMARK    5  A    between atoms: C_8  and  O_11
REMARK    6  A    between atoms: O_11  and  C_12
REMARK    7  A    between atoms: C_14  and  O_45
REMARK    8  A    between atoms: C_19  and  C_37
REMARK    9  A    between atoms: C_20  and  O_23
REMARK   10  A    between atoms: O_23  and  C_24
REMARK   11  A    between atoms: C_26  and  O_36
REMARK   12  A    between atoms: C_28  and  O_35
REMARK   13  A    between atoms: C_29  and  O_34
REMARK   14  A    between atoms: C_31  and  C_33
REMARK   15  A    between atoms: C_39  and  O_44
REMARK   16  A    between atoms: C_40  and  O_43
REMARK                            x       y       z     vdW  Elec       q    Type
REMARK                         _______ _______ _______ _____ _____    ______ ____
ROOT
ATOM      1  C   UNL     1      10.018   0.254  24.250  0.00  0.00    +0.131 A 
ATOM      2  C   UNL     1       9.228  -0.354  25.238  0.00  0.00    +0.093 A 
ATOM      3  C   UNL     1       8.435  -1.469  24.923  0.00  0.00    +0.147 A 
ATOM      4  O   UNL     1       7.658  -2.033  25.911  0.00  0.00    -0.451 OA
ATOM      5  C   UNL     1       7.017  -3.259  25.659  0.00  0.00    +0.181 A 
ATOM      6  C   UNL     1       6.927  -3.822  24.431  0.00  0.00    +0.214 A 
ATOM      7  C   UNL     1       7.457  -2.988  23.308  0.00  0.00    +0.238 A 
ATOM      8  O   UNL     1       7.083  -3.122  22.141  0.00  0.00    -0.283 OA
ATOM      9  C   UNL     1       8.431  -1.951  23.624  0.00  0.00    +0.109 A 
ATOM     10  C   UNL     1       9.258  -1.388  22.651  0.00  0.00    +0.135 A 
ATOM     11  C   UNL     1      10.046  -0.288  22.958  0.00  0.00    +0.092 A 
ENDROOT
BRANCH   5  12
ATOM     12  C   UNL     1       6.397  -3.846  26.892  0.00  0.00    +0.025 A 
ATOM     13  C   UNL     1       5.320  -3.195  27.528  0.00  0.00    +0.015 A 
ATOM     14  C   UNL     1       4.672  -3.762  28.633  0.00  0.00    +0.050 A 
ATOM     15  C   UNL     1       5.100  -4.988  29.117  0.00  0.00    +0.158 A 
ATOM     16  C   UNL     1       6.158  -5.650  28.512  0.00  0.00    +0.159 A 
ATOM     17  C   UNL     1       6.796  -5.098  27.402  0.00  0.00    +0.060 A 
BRANCH  15  18
ATOM     18  O   UNL     1       4.465  -5.546  30.191  0.00  0.00    -0.503 OA
ATOM     19  H   UNL     1       4.357  -4.806  30.822  0.00  0.00    +0.292 HD
ENDBRANCH  15  18
BRANCH  16  20
ATOM     20  O   UNL     1       6.536  -6.855  29.040  0.00  0.00    -0.503 OA
ATOM     21  H   UNL     1       5.738  -7.396  29.165  0.00  0.00    +0.292 HD
ENDBRANCH  16  20
ENDBRANCH   5  12
BRANCH  10  22
ATOM     22  O   UNL     1       9.318  -1.916  21.390  0.00  0.00    -0.506 OA
ATOM     23  H   UNL     1      10.050  -2.551  21.326  0.00  0.00    +0.292 HD
ENDBRANCH  10  22
BRANCH   1  24
ATOM     24  O   UNL     1      10.787   1.373  24.362  0.00  0.00    -0.461 OA
BRANCH  24  28
ATOM     25  C   UNL     1       7.964   4.194  25.956  0.00  0.00    +0.041 C 
ATOM     26  C   UNL     1       8.022   3.783  24.487  0.00  0.00    +0.150 C 
ATOM     27  O   UNL     1       8.739   2.547  24.344  0.00  0.00    -0.334 OA
ATOM     28  C   UNL     1      10.149   2.636  24.572  0.00  0.00    +0.339 C 
ATOM     29  C   UNL     1      10.763   3.612  23.540  0.00  0.00    +0.214 C 
ATOM     30  C   UNL     1      10.122   4.992  23.741  0.00  0.00    +0.180 C 
ATOM     31  C   UNL     1       8.591   4.896  23.586  0.00  0.00    +0.174 C 
BRANCH  29  32
ATOM     32  O   UNL     1      10.480   3.136  22.200  0.00  0.00    -0.383 OA
ATOM     33  H   UNL     1      11.317   2.763  21.860  0.00  0.00    +0.210 HD
ENDBRANCH  29  32
BRANCH  30  34
ATOM     34  O   UNL     1      10.698   5.958  22.856  0.00  0.00    -0.386 OA
ATOM     35  H   UNL     1      11.541   5.597  22.525  0.00  0.00    +0.210 HD
ENDBRANCH  30  34
BRANCH  31  36
ATOM     36  O   UNL     1       8.235   4.636  22.221  0.00  0.00    -0.387 OA
ATOM     37  H   UNL     1       7.268   4.457  22.208  0.00  0.00    +0.210 HD
ENDBRANCH  31  36
ENDBRANCH  24  28
ENDBRANCH   1  24
BRANCH   6  38
ATOM     38  O   UNL     1       6.379  -5.092  24.202  0.00  0.00    -0.453 OA
BRANCH  38  39
ATOM     39  C   UNL     1       5.188  -5.161  23.395  0.00  0.00    +0.339 C 
ATOM     40  O   UNL     1       4.193  -4.232  23.868  0.00  0.00    -0.334 OA
ATOM     41  C   UNL     1       3.422  -4.652  24.993  0.00  0.00    +0.150 C 
ATOM     42  C   UNL     1       2.396  -3.554  25.266  0.00  0.00    +0.041 C 
ATOM     43  C   UNL     1       2.712  -5.979  24.722  0.00  0.00    +0.174 C 
ATOM     44  C   UNL     1       3.759  -7.045  24.414  0.00  0.00    +0.180 C 
ATOM     45  C   UNL     1       4.624  -6.612  23.229  0.00  0.00    +0.214 C 
BRANCH  43  46
ATOM     46  O   UNL     1       1.902  -6.350  25.841  0.00  0.00    -0.387 OA
ATOM     47  H   UNL     1       2.082  -7.286  26.045  0.00  0.00    +0.210 HD
ENDBRANCH  43  46
BRANCH  44  48
ATOM     48  O   UNL     1       3.082  -8.289  24.152  0.00  0.00    -0.386 OA
ATOM     49  H   UNL     1       2.819  -8.680  25.005  0.00  0.00    +0.210 HD
ENDBRANCH  44  48
BRANCH  45  50
ATOM     50  O   UNL     1       5.620  -7.624  23.031  0.00  0.00    -0.383 OA
ATOM     51  H   UNL     1       6.296  -7.481  23.727  0.00  0.00    +0.210 HD
ENDBRANCH  45  50
ENDBRANCH  38  39
ENDBRANCH   6  38
TORSDOF 14
ENDMDL
MODEL 4
REMARK VINA RESULT:      -7.2      1.920      2.798
REMARK  Name = 
REMARK  16 active torsions:
REMARK  status: ('A' for Active; 'I' for Inactive)
REMARK    1  A    between atoms: C_1  and  C_2
REMARK    2  A    between atoms: C_3  and  O_48
REMARK    3  A    between atoms: C_5  and  O_47
REMARK    4  A    between atoms: C_7  and  O_46
REMARK    5  A    between atoms: C_8  and  O_11
REMARK    6  A    between atoms: O_11  and  C_12
REMARK    7  A    between atoms: C_14  and  O_45
REMARK    8  A    between atoms: C_19  and  C_37
REMARK    9  A    between atoms: C_20  and  O_23
REMARK   10  A    between atoms: O_23  and  C_24
REMARK   11  A    between atoms: C_26  and  O_36
REMARK   12  A    between atoms: C_28  and  O_35
REMARK   13  A    between atoms: C_29  and  O_34
REMARK   14  A    between atoms: C_31  and  C_33
REMARK   15  A    between atoms: C_39  and  O_44
REMARK   16  A    between atoms: C_40  and  O_43
REMARK                            x       y       z     vdW  Elec       q    Type
REMARK                         _______ _______ _______ _____ _____    ______ ____
ROOT
ATOM      1  C   UNL     1       7.024  -3.636  23.589  0.00  0.00    +0.131 A 
ATOM      2  C   UNL     1       6.796  -2.724  24.631  0.00  0.00    +0.093 A 
ATOM      3  C   UNL     1       7.553  -1.544  24.717  0.00  0.00    +0.147 A 
ATOM      4  O   UNL     1       7.318  -0.677  25.761  0.00  0.00    -0.451 OA
ATOM      5  C   UNL     1       7.927   0.591  25.747  0.00  0.00    +0.181 A 
ATOM      6  C   UNL     1       8.911   0.942  24.887  0.00  0.00    +0.214 A 
ATOM      7  C   UNL     1       9.412  -0.161  24.008  0.00  0.00    +0.238 A 
ATOM      8  O   UNL     1      10.538  -0.156  23.506  0.00  0.00    -0.283 OA
ATOM      9  C   UNL     1       8.536  -1.301  23.771  0.00  0.00    +0.109 A 
ATOM     10  C   UNL     1       8.727  -2.174  22.699  0.00  0.00    +0.135 A 
ATOM     11  C   UNL     1       7.980  -3.339  22.608  0.00  0.00    +0.092 A 
ENDROOT
BRANCH   5  12
ATOM     12  C   UNL     1       7.403   1.491  26.826  0.00  0.00    +0.025 A 
ATOM     13  C   UNL     1       7.193   0.995  28.129  0.00  0.00    +0.015 A 
ATOM     14  C   UNL     1       6.780   1.833  29.173  0.00  0.00    +0.050 A 
ATOM     15  C   UNL     1       6.569   3.180  28.921  0.00  0.00    +0.158 A 
ATOM     16  C   UNL     1       6.766   3.694  27.648  0.00  0.00    +0.159 A 
ATOM     17  C   UNL     1       7.193   2.867  26.610  0.00  0.00    +0.060 A 
BRANCH  15  18
ATOM     18  O   UNL     1       6.173   4.000  29.939  0.00  0.00    -0.503 OA
ATOM     19  H   UNL     1       6.547   4.874  29.707  0.00  0.00    +0.292 HD
ENDBRANCH  15  18
BRANCH  16  20
ATOM     20  O   UNL     1       6.537   5.031  27.463  0.00  0.00    -0.503 OA
ATOM     21  H   UNL     1       5.958   5.342  28.179  0.00  0.00    +0.292 HD
ENDBRANCH  16  20
ENDBRANCH   5  12
BRANCH  10  22
ATOM     22  O   UNL     1       9.639  -1.892  21.719  0.00  0.00    -0.506 OA
ATOM     23  H   UNL     1      10.182  -1.128  21.973  0.00  0.00    +0.292 HD
ENDBRANCH  10  22
BRANCH   1  24
ATOM     24  O   UNL     1       6.436  -4.849  23.394  0.00  0.00    -0.461 OA
BRANCH  24  28
ATOM     25  C   UNL     1       3.915  -5.898  26.712  0.00  0.00    +0.041 C 
ATOM     26  C   UNL     1       4.163  -6.805  25.508  0.00  0.00    +0.150 C 
ATOM     27  O   UNL     1       5.347  -6.392  24.810  0.00  0.00    -0.334 OA
ATOM     28  C   UNL     1       5.229  -5.157  24.096  0.00  0.00    +0.339 C 
ATOM     29  C   UNL     1       4.124  -5.303  23.022  0.00  0.00    +0.214 C 
ATOM     30  C   UNL     1       2.800  -5.615  23.732  0.00  0.00    +0.180 C 
ATOM     31  C   UNL     1       2.937  -6.896  24.579  0.00  0.00    +0.174 C 
BRANCH  29  32
ATOM     32  O   UNL     1       4.463  -6.392  22.128  0.00  0.00    -0.383 OA
ATOM     33  H   UNL     1       4.570  -5.995  21.241  0.00  0.00    +0.210 HD
ENDBRANCH  29  32
BRANCH  30  34
ATOM     34  O   UNL     1       1.723  -5.696  22.794  0.00  0.00    -0.386 OA
ATOM     35  H   UNL     1       1.057  -6.312  23.151  0.00  0.00    +0.210 HD
ENDBRANCH  30  34
BRANCH  31  36
ATOM     36  O   UNL     1       3.062  -8.049  23.735  0.00  0.00    -0.387 OA
ATOM     37  H   UNL     1       4.001  -8.337  23.783  0.00  0.00    +0.210 HD
ENDBRANCH  31  36
ENDBRANCH  24  28
ENDBRANCH   1  24
BRANCH   6  38
ATOM     38  O   UNL     1       9.443   2.237  24.808  0.00  0.00    -0.453 OA
BRANCH  38  39
ATOM     39  C   UNL     1       9.582   2.815  23.496  0.00  0.00    +0.339 C 
ATOM     40  O   UNL     1      10.730   3.685  23.438  0.00  0.00    -0.334 OA
ATOM     41  C   UNL     1      10.554   4.998  23.969  0.00  0.00    +0.150 C 
ATOM     42  C   UNL     1      11.862   5.753  23.735  0.00  0.00    +0.041 C 
ATOM     43  C   UNL     1       9.397   5.727  23.286  0.00  0.00    +0.174 C 
ATOM     44  C   UNL     1       8.114   4.930  23.504  0.00  0.00    +0.180 C 
ATOM     45  C   UNL     1       8.279   3.506  22.972  0.00  0.00    +0.214 C 
BRANCH  43  46
ATOM     46  O   UNL     1       9.277   7.059  23.794  0.00  0.00    -0.387 OA
ATOM     47  H   UNL     1       8.640   7.538  23.233  0.00  0.00    +0.210 HD
ENDBRANCH  43  46
BRANCH  44  48
ATOM     48  O   UNL     1       7.031   5.621  22.851  0.00  0.00    -0.386 OA
ATOM     49  H   UNL     1       6.693   6.302  23.458  0.00  0.00    +0.210 HD
ENDBRANCH  44  48
BRANCH  45  50
ATOM     50  O   UNL     1       7.067   2.797  23.259  0.00  0.00    -0.383 OA
ATOM     51  H   UNL     1       7.329   2.009  23.782  0.00  0.00    +0.210 HD
ENDBRANCH  45  50
ENDBRANCH  38  39
ENDBRANCH   6  38
TORSDOF 14
ENDMDL
MODEL 5
REMARK VINA RESULT:      -7.0      2.336      9.592
REMARK  Name = 
REMARK  16 active torsions:
REMARK  status: ('A' for Active; 'I' for Inactive)
REMARK    1  A    between atoms: C_1  and  C_2
REMARK    2  A    between atoms: C_3  and  O_48
REMARK    3  A    between atoms: C_5  and  O_47
REMARK    4  A    between atoms: C_7  and  O_46
REMARK    5  A    between atoms: C_8  and  O_11
REMARK    6  A    between atoms: O_11  and  C_12
REMARK    7  A    between atoms: C_14  and  O_45
REMARK    8  A    between atoms: C_19  and  C_37
REMARK    9  A    between atoms: C_20  and  O_23
REMARK   10  A    between atoms: O_23  and  C_24
REMARK   11  A    between atoms: C_26  and  O_36
REMARK   12  A    between atoms: C_28  and  O_35
REMARK   13  A    between atoms: C_29  and  O_34
REMARK   14  A    between atoms: C_31  and  C_33
REMARK   15  A    between atoms: C_39  and  O_44
REMARK   16  A    between atoms: C_40  and  O_43
REMARK                            x       y       z     vdW  Elec       q    Type
REMARK                         _______ _______ _______ _____ _____    ______ ____
ROOT
ATOM      1  C   UNL     1       8.001   0.965  23.371  0.00  0.00    +0.131 A 
ATOM      2  C   UNL     1       6.913   0.097  23.193  0.00  0.00    +0.093 A 
ATOM      3  C   UNL     1       6.696  -0.960  24.092  0.00  0.00    +0.147 A 
ATOM      4  O   UNL     1       5.629  -1.804  23.881  0.00  0.00    -0.451 OA
ATOM      5  C   UNL     1       5.289  -2.739  24.876  0.00  0.00    +0.181 A 
ATOM      6  C   UNL     1       6.075  -3.021  25.941  0.00  0.00    +0.214 A 
ATOM      7  C   UNL     1       7.415  -2.355  25.938  0.00  0.00    +0.238 A 
ATOM      8  O   UNL     1       8.387  -2.805  26.550  0.00  0.00    -0.283 OA
ATOM      9  C   UNL     1       7.577  -1.142  25.146  0.00  0.00    +0.109 A 
ATOM     10  C   UNL     1       8.626  -0.249  25.363  0.00  0.00    +0.135 A 
ATOM     11  C   UNL     1       8.843   0.799  24.479  0.00  0.00    +0.092 A 
ENDROOT
BRANCH   5  12
ATOM     12  C   UNL     1       3.986  -3.426  24.597  0.00  0.00    +0.025 A 
ATOM     13  C   UNL     1       3.906  -4.430  23.611  0.00  0.00    +0.015 A 
ATOM     14  C   UNL     1       2.721  -5.142  23.386  0.00  0.00    +0.050 A 
ATOM     15  C   UNL     1       1.598  -4.852  24.146  0.00  0.00    +0.158 A 
ATOM     16  C   UNL     1       1.648  -3.867  25.122  0.00  0.00    +0.159 A 
ATOM     17  C   UNL     1       2.830  -3.167  25.360  0.00  0.00    +0.060 A 
BRANCH  15  18
ATOM     18  O   UNL     1       0.443  -5.549  23.933  0.00  0.00    -0.503 OA
ATOM     19  H   UNL     1       0.679  -6.478  24.133  0.00  0.00    +0.292 HD
ENDBRANCH  15  18
BRANCH  16  20
ATOM     20  O   UNL     1       0.505  -3.625  25.835  0.00  0.00    -0.503 OA
ATOM     21  H   UNL     1      -0.224  -4.113  25.417  0.00  0.00    +0.292 HD
ENDBRANCH  16  20
ENDBRANCH   5  12
BRANCH  10  22
ATOM     22  O   UNL     1       9.445  -0.379  26.451  0.00  0.00    -0.506 OA
ATOM     23  H   UNL     1      10.370  -0.229  26.196  0.00  0.00    +0.292 HD
ENDBRANCH  10  22
BRANCH   1  24
ATOM     24  O   UNL     1       8.397   1.989  22.565  0.00  0.00    -0.461 OA
BRANCH  24  28
ATOM     25  C   UNL     1       8.624   5.226  25.383  0.00  0.00    +0.041 C 
ATOM     26  C   UNL     1       7.321   4.719  24.770  0.00  0.00    +0.150 C 
ATOM     27  O   UNL     1       7.503   3.399  24.235  0.00  0.00    -0.334 OA
ATOM     28  C   UNL     1       8.308   3.331  23.053  0.00  0.00    +0.339 C 
ATOM     29  C   UNL     1       7.629   4.158  21.936  0.00  0.00    +0.214 C 
ATOM     30  C   UNL     1       7.529   5.616  22.407  0.00  0.00    +0.180 C 
ATOM     31  C   UNL     1       6.740   5.696  23.729  0.00  0.00    +0.174 C 
BRANCH  29  32
ATOM     32  O   UNL     1       6.299   3.636  21.692  0.00  0.00    -0.383 OA
ATOM     33  H   UNL     1       6.420   2.772  21.252  0.00  0.00    +0.210 HD
ENDBRANCH  29  32
BRANCH  30  34
ATOM     34  O   UNL     1       6.968   6.446  21.387  0.00  0.00    -0.386 OA
ATOM     35  H   UNL     1       6.041   6.632  21.626  0.00  0.00    +0.210 HD
ENDBRANCH  30  34
BRANCH  31  36
ATOM     36  O   UNL     1       5.355   5.395  23.511  0.00  0.00    -0.387 OA
ATOM     37  H   UNL     1       5.252   4.424  23.631  0.00  0.00    +0.210 HD
ENDBRANCH  31  36
ENDBRANCH  24  28
ENDBRANCH   1  24
BRANCH   6  38
ATOM     38  O   UNL     1       5.687  -3.874  26.983  0.00  0.00    -0.453 OA
BRANCH  38  39
ATOM     39  C   UNL     1       5.586  -5.280  26.684  0.00  0.00    +0.339 C 
ATOM     40  O   UNL     1       4.222  -5.730  26.789  0.00  0.00    -0.334 OA
ATOM     41  C   UNL     1       3.748  -6.006  28.107  0.00  0.00    +0.150 C 
ATOM     42  C   UNL     1       2.321  -6.533  27.967  0.00  0.00    +0.041 C 
ATOM     43  C   UNL     1       4.624  -7.041  28.811  0.00  0.00    +0.174 C 
ATOM     44  C   UNL     1       6.050  -6.504  28.901  0.00  0.00    +0.180 C 
ATOM     45  C   UNL     1       6.578  -6.170  27.505  0.00  0.00    +0.214 C 
BRANCH  43  46
ATOM     46  O   UNL     1       4.098  -7.343  30.107  0.00  0.00    -0.387 OA
ATOM     47  H   UNL     1       3.913  -8.299  30.141  0.00  0.00    +0.210 HD
ENDBRANCH  43  46
BRANCH  44  48
ATOM     48  O   UNL     1       6.869  -7.489  29.559  0.00  0.00    -0.386 OA
ATOM     49  H   UNL     1       7.579  -7.026  30.038  0.00  0.00    +0.210 HD
ENDBRANCH  44  48
BRANCH  45  50
ATOM     50  O   UNL     1       7.891  -5.618  27.663  0.00  0.00    -0.383 OA
ATOM     51  H   UNL     1       8.252  -5.508  26.757  0.00  0.00    +0.210 HD
ENDBRANCH  45  50
ENDBRANCH  38  39
ENDBRANCH   6  38
TORSDOF 14
ENDMDL
MODEL 6
REMARK VINA RESULT:      -7.0      1.615      2.104
REMARK  Name = 
REMARK  16 active torsions:
REMARK  status: ('A' for Active; 'I' for Inactive)
REMARK    1  A    between atoms: C_1  and  C_2
REMARK    2  A    between atoms: C_3  and  O_48
REMARK    3  A    between atoms: C_5  and  O_47
REMARK    4  A    between atoms: C_7  and  O_46
REMARK    5  A    between atoms: C_8  and  O_11
REMARK    6  A    between atoms: O_11  and  C_12
REMARK    7  A    between atoms: C_14  and  O_45
REMARK    8  A    between atoms: C_19  and  C_37
REMARK    9  A    between atoms: C_20  and  O_23
REMARK   10  A    between atoms: O_23  and  C_24
REMARK   11  A    between atoms: C_26  and  O_36
REMARK   12  A    between atoms: C_28  and  O_35
REMARK   13  A    between atoms: C_29  and  O_34
REMARK   14  A    between atoms: C_31  and  C_33
REMARK   15  A    between atoms: C_39  and  O_44
REMARK   16  A    between atoms: C_40  and  O_43
REMARK                            x       y       z     vdW  Elec       q    Type
REMARK                         _______ _______ _______ _____ _____    ______ ____
ROOT
ATOM      1  C   UNL     1       5.794  -5.025  24.527  0.00  0.00    +0.131 A 
ATOM      2  C   UNL     1       5.467  -3.897  25.295  0.00  0.00    +0.093 A 
ATOM      3  C   UNL     1       6.113  -2.672  25.065  0.00  0.00    +0.147 A 
ATOM      4  O   UNL     1       5.782  -1.587  25.847  0.00  0.00    -0.451 OA
ATOM      5  C   UNL     1       6.276  -0.317  25.499  0.00  0.00    +0.181 A 
ATOM      6  C   UNL     1       7.240  -0.115  24.570  0.00  0.00    +0.214 A 
ATOM      7  C   UNL     1       7.853  -1.358  24.008  0.00  0.00    +0.238 A 
ATOM      8  O   UNL     1       8.983  -1.382  23.515  0.00  0.00    -0.283 OA
ATOM      9  C   UNL     1       7.087  -2.595  24.082  0.00  0.00    +0.109 A 
ATOM     10  C   UNL     1       7.375  -3.696  23.275  0.00  0.00    +0.135 A 
ATOM     11  C   UNL     1       6.737  -4.909  23.496  0.00  0.00    +0.092 A 
ENDROOT
BRANCH   5  12
ATOM     12  C   UNL     1       5.654   0.782  26.308  0.00  0.00    +0.025 A 
ATOM     13  C   UNL     1       6.067   1.011  27.636  0.00  0.00    +0.015 A 
ATOM     14  C   UNL     1       5.560   2.079  28.386  0.00  0.00    +0.050 A 
ATOM     15  C   UNL     1       4.627   2.930  27.814  0.00  0.00    +0.158 A 
ATOM     16  C   UNL     1       4.202   2.727  26.509  0.00  0.00    +0.159 A 
ATOM     17  C   UNL     1       4.716   1.675  25.753  0.00  0.00    +0.060 A 
BRANCH  15  18
ATOM     18  O   UNL     1       4.136   3.977  28.541  0.00  0.00    -0.503 OA
ATOM     19  H   UNL     1       4.640   3.949  29.380  0.00  0.00    +0.292 HD
ENDBRANCH  15  18
BRANCH  16  20
ATOM     20  O   UNL     1       3.276   3.599  26.003  0.00  0.00    -0.503 OA
ATOM     21  H   UNL     1       2.390   3.258  26.214  0.00  0.00    +0.292 HD
ENDBRANCH  16  20
ENDBRANCH   5  12
BRANCH  10  22
ATOM     22  O   UNL     1       8.275  -3.598  22.249  0.00  0.00    -0.506 OA
ATOM     23  H   UNL     1       9.087  -3.161  22.554  0.00  0.00    +0.292 HD
ENDBRANCH  10  22
BRANCH   1  24
ATOM     24  O   UNL     1       5.321  -6.295  24.659  0.00  0.00    -0.461 OA
BRANCH  24  28
ATOM     25  C   UNL     1       1.594  -7.889  26.084  0.00  0.00    +0.041 C 
ATOM     26  C   UNL     1       2.190  -8.209  24.716  0.00  0.00    +0.150 C 
ATOM     27  O   UNL     1       3.593  -7.903  24.700  0.00  0.00    -0.334 OA
ATOM     28  C   UNL     1       3.908  -6.507  24.724  0.00  0.00    +0.339 C 
ATOM     29  C   UNL     1       3.307  -5.837  23.465  0.00  0.00    +0.214 C 
ATOM     30  C   UNL     1       1.784  -6.021  23.501  0.00  0.00    +0.180 C 
ATOM     31  C   UNL     1       1.429  -7.520  23.567  0.00  0.00    +0.174 C 
BRANCH  29  32
ATOM     32  O   UNL     1       3.845  -6.473  22.279  0.00  0.00    -0.383 OA
ATOM     33  H   UNL     1       3.550  -5.932  21.520  0.00  0.00    +0.210 HD
ENDBRANCH  29  32
BRANCH  30  34
ATOM     34  O   UNL     1       1.163  -5.363  22.392  0.00  0.00    -0.386 OA
ATOM     35  H   UNL     1       0.538  -5.988  21.982  0.00  0.00    +0.210 HD
ENDBRANCH  30  34
BRANCH  31  36
ATOM     36  O   UNL     1       1.744  -8.169  22.327  0.00  0.00    -0.387 OA
ATOM     37  H   UNL     1       1.138  -7.796  21.648  0.00  0.00    +0.210 HD
ENDBRANCH  31  36
ENDBRANCH  24  28
ENDBRANCH   1  24
BRANCH   6  38
ATOM     38  O   UNL     1       7.655   1.158  24.153  0.00  0.00    -0.453 OA
BRANCH  38  39
ATOM     39  C   UNL     1       8.662   1.817  24.943  0.00  0.00    +0.339 C 
ATOM     40  O   UNL     1       8.141   3.021  25.539  0.00  0.00    -0.334 OA
ATOM     41  C   UNL     1       8.090   4.171  24.695  0.00  0.00    +0.150 C 
ATOM     42  C   UNL     1       7.579   5.330  25.550  0.00  0.00    +0.041 C 
ATOM     43  C   UNL     1       9.467   4.507  24.123  0.00  0.00    +0.174 C 
ATOM     44  C   UNL     1       9.967   3.318  23.308  0.00  0.00    +0.180 C 
ATOM     45  C   UNL     1      10.005   2.060  24.176  0.00  0.00    +0.214 C 
BRANCH  43  46
ATOM     46  O   UNL     1       9.401   5.694  23.328  0.00  0.00    -0.387 OA
ATOM     47  H   UNL     1       9.898   5.533  22.506  0.00  0.00    +0.210 HD
ENDBRANCH  43  46
BRANCH  44  48
ATOM     48  O   UNL     1      11.267   3.640  22.779  0.00  0.00    -0.386 OA
ATOM     49  H   UNL     1      11.566   4.472  23.187  0.00  0.00    +0.210 HD
ENDBRANCH  44  48
BRANCH  45  50
ATOM     50  O   UNL     1      10.424   0.973  23.341  0.00  0.00    -0.383 OA
ATOM     51  H   UNL     1      10.383   0.167  23.900  0.00  0.00    +0.210 HD
ENDBRANCH  45  50
ENDBRANCH  38  39
ENDBRANCH   6  38
TORSDOF 14
ENDMDL
MODEL 7
REMARK VINA RESULT:      -7.0      1.474      2.236
REMARK  Name = 
REMARK  16 active torsions:
REMARK  status: ('A' for Active; 'I' for Inactive)
REMARK    1  A    between atoms: C_1  and  C_2
REMARK    2  A    between atoms: C_3  and  O_48
REMARK    3  A    between atoms: C_5  and  O_47
REMARK    4  A    between atoms: C_7  and  O_46
REMARK    5  A    between atoms: C_8  and  O_11
REMARK    6  A    between atoms: O_11  and  C_12
REMARK    7  A    between atoms: C_14  and  O_45
REMARK    8  A    between atoms: C_19  and  C_37
REMARK    9  A    between atoms: C_20  and  O_23
REMARK   10  A    between atoms: O_23  and  C_24
REMARK   11  A    between atoms: C_26  and  O_36
REMARK   12  A    between atoms: C_28  and  O_35
REMARK   13  A    between atoms: C_29  and  O_34
REMARK   14  A    between atoms: C_31  and  C_33
REMARK   15  A    between atoms: C_39  and  O_44
REMARK   16  A    between atoms: C_40  and  O_43
REMARK                            x       y       z     vdW  Elec       q    Type
REMARK                         _______ _______ _______ _____ _____    ______ ____
ROOT
ATOM      1  C   UNL     1       5.186  -3.955  24.785  0.00  0.00    +0.131 A 
ATOM      2  C   UNL     1       4.755  -2.625  24.904  0.00  0.00    +0.093 A 
ATOM      3  C   UNL     1       5.656  -1.568  24.703  0.00  0.00    +0.147 A 
ATOM      4  O   UNL     1       5.206  -0.274  24.844  0.00  0.00    -0.451 OA
ATOM      5  C   UNL     1       6.043   0.788  24.455  0.00  0.00    +0.181 A 
ATOM      6  C   UNL     1       7.355   0.638  24.155  0.00  0.00    +0.214 A 
ATOM      7  C   UNL     1       7.908  -0.733  24.383  0.00  0.00    +0.238 A 
ATOM      8  O   UNL     1       9.106  -0.945  24.585  0.00  0.00    -0.283 OA
ATOM      9  C   UNL     1       6.978  -1.854  24.400  0.00  0.00    +0.109 A 
ATOM     10  C   UNL     1       7.401  -3.172  24.222  0.00  0.00    +0.135 A 
ATOM     11  C   UNL     1       6.513  -4.220  24.417  0.00  0.00    +0.092 A 
ENDROOT
BRANCH   5  12
ATOM     12  C   UNL     1       5.336   2.110  24.461  0.00  0.00    +0.025 A 
ATOM     13  C   UNL     1       4.961   2.712  25.680  0.00  0.00    +0.015 A 
ATOM     14  C   UNL     1       4.370   3.981  25.718  0.00  0.00    +0.050 A 
ATOM     15  C   UNL     1       4.143   4.661  24.531  0.00  0.00    +0.158 A 
ATOM     16  C   UNL     1       4.500   4.092  23.318  0.00  0.00    +0.159 A 
ATOM     17  C   UNL     1       5.103   2.835  23.277  0.00  0.00    +0.060 A 
BRANCH  15  18
ATOM     18  O   UNL     1       3.574   5.903  24.566  0.00  0.00    -0.503 OA
ATOM     19  H   UNL     1       2.613   5.732  24.502  0.00  0.00    +0.292 HD
ENDBRANCH  15  18
BRANCH  16  20
ATOM     20  O   UNL     1       4.246   4.812  22.181  0.00  0.00    -0.503 OA
ATOM     21  H   UNL     1       3.383   4.533  21.832  0.00  0.00    +0.292 HD
ENDBRANCH  16  20
ENDBRANCH   5  12
BRANCH  10  22
ATOM     22  O   UNL     1       8.684  -3.452  23.840  0.00  0.00    -0.506 OA
ATOM     23  H   UNL     1       8.811  -3.236  22.902  0.00  0.00    +0.292 HD
ENDBRANCH  10  22
BRANCH   1  24
ATOM     24  O   UNL     1       4.472  -5.092  25.011  0.00  0.00    -0.461 OA
BRANCH  24  28
ATOM     25  C   UNL     1       2.968  -4.005  28.887  0.00  0.00    +0.041 C 
ATOM     26  C   UNL     1       3.955  -5.144  28.643  0.00  0.00    +0.150 C 
ATOM     27  O   UNL     1       4.591  -4.987  27.366  0.00  0.00    -0.334 OA
ATOM     28  C   UNL     1       3.745  -5.224  26.236  0.00  0.00    +0.339 C 
ATOM     29  C   UNL     1       3.238  -6.685  26.288  0.00  0.00    +0.214 C 
ATOM     30  C   UNL     1       2.432  -6.870  27.581  0.00  0.00    +0.180 C 
ATOM     31  C   UNL     1       3.304  -6.531  28.806  0.00  0.00    +0.174 C 
BRANCH  29  32
ATOM     32  O   UNL     1       4.372  -7.588  26.290  0.00  0.00    -0.383 OA
ATOM     33  H   UNL     1       4.141  -8.319  25.684  0.00  0.00    +0.210 HD
ENDBRANCH  29  32
BRANCH  30  34
ATOM     34  O   UNL     1       1.879  -8.187  27.655  0.00  0.00    -0.386 OA
ATOM     35  H   UNL     1       1.356  -8.249  28.476  0.00  0.00    +0.210 HD
ENDBRANCH  30  34
BRANCH  31  36
ATOM     36  O   UNL     1       4.327  -7.520  28.989  0.00  0.00    -0.387 OA
ATOM     37  H   UNL     1       4.597  -7.479  29.934  0.00  0.00    +0.210 HD
ENDBRANCH  31  36
ENDBRANCH  24  28
ENDBRANCH   1  24
BRANCH   6  38
ATOM     38  O   UNL     1       8.159   1.679  23.669  0.00  0.00    -0.453 OA
BRANCH  38  39
ATOM     39  C   UNL     1       8.952   2.405  24.627  0.00  0.00    +0.339 C 
ATOM     40  O   UNL     1       8.288   3.620  25.026  0.00  0.00    -0.334 OA
ATOM     41  C   UNL     1       8.407   4.726  24.132  0.00  0.00    +0.150 C 
ATOM     42  C   UNL     1       7.697   5.909  24.789  0.00  0.00    +0.041 C 
ATOM     43  C   UNL     1       9.871   5.075  23.864  0.00  0.00    +0.174 C 
ATOM     44  C   UNL     1      10.562   3.864  23.245  0.00  0.00    +0.180 C 
ATOM     45  C   UNL     1      10.428   2.650  24.167  0.00  0.00    +0.214 C 
BRANCH  43  46
ATOM     46  O   UNL     1       9.963   6.220  23.012  0.00  0.00    -0.387 OA
ATOM     47  H   UNL     1       9.210   6.805  23.212  0.00  0.00    +0.210 HD
ENDBRANCH  43  46
BRANCH  44  48
ATOM     48  O   UNL     1      11.942   4.198  23.003  0.00  0.00    -0.386 OA
ATOM     49  H   UNL     1      12.442   4.049  23.825  0.00  0.00    +0.210 HD
ENDBRANCH  44  48
BRANCH  45  50
ATOM     50  O   UNL     1      11.043   1.537  23.505  0.00  0.00    -0.383 OA
ATOM     51  H   UNL     1      11.390   0.955  24.214  0.00  0.00    +0.210 HD
ENDBRANCH  45  50
ENDBRANCH  38  39
ENDBRANCH   6  38
TORSDOF 14
ENDMDL
MODEL 8
REMARK VINA RESULT:      -6.8      2.631      9.874
REMARK  Name = 
REMARK  16 active torsions:
REMARK  status: ('A' for Active; 'I' for Inactive)
REMARK    1  A    between atoms: C_1  and  C_2
REMARK    2  A    between atoms: C_3  and  O_48
REMARK    3  A    between atoms: C_5  and  O_47
REMARK    4  A    between atoms: C_7  and  O_46
REMARK    5  A    between atoms: C_8  and  O_11
REMARK    6  A    between atoms: O_11  and  C_12
REMARK    7  A    between atoms: C_14  and  O_45
REMARK    8  A    between atoms: C_19  and  C_37
REMARK    9  A    between atoms: C_20  and  O_23
REMARK   10  A    between atoms: O_23  and  C_24
REMARK   11  A    between atoms: C_26  and  O_36
REMARK   12  A    between atoms: C_28  and  O_35
REMARK   13  A    between atoms: C_29  and  O_34
REMARK   14  A    between atoms: C_31  and  C_33
REMARK   15  A    between atoms: C_39  and  O_44
REMARK   16  A    between atoms: C_40  and  O_43
REMARK                            x       y       z     vdW  Elec       q    Type
REMARK                         _______ _______ _______ _____ _____    ______ ____
ROOT
ATOM      1  C   UNL     1       8.430  -0.663  23.759  0.00  0.00    +0.131 A 
ATOM      2  C   UNL     1       7.399  -0.685  24.711  0.00  0.00    +0.093 A 
ATOM      3  C   UNL     1       6.356  -1.619  24.604  0.00  0.00    +0.147 A 
ATOM      4  O   UNL     1       5.350  -1.604  25.545  0.00  0.00    -0.451 OA
ATOM      5  C   UNL     1       4.413  -2.652  25.560  0.00  0.00    +0.181 A 
ATOM      6  C   UNL     1       4.295  -3.569  24.570  0.00  0.00    +0.214 A 
ATOM      7  C   UNL     1       5.157  -3.327  23.372  0.00  0.00    +0.238 A 
ATOM      8  O   UNL     1       4.885  -3.766  22.253  0.00  0.00    -0.283 OA
ATOM      9  C   UNL     1       6.350  -2.506  23.540  0.00  0.00    +0.109 A 
ATOM     10  C   UNL     1       7.402  -2.530  22.623  0.00  0.00    +0.135 A 
ATOM     11  C   UNL     1       8.436  -1.611  22.726  0.00  0.00    +0.092 A 
ENDROOT
BRANCH   5  12
ATOM     12  C   UNL     1       3.524  -2.611  26.767  0.00  0.00    +0.025 A 
ATOM     13  C   UNL     1       2.201  -2.137  26.661  0.00  0.00    +0.015 A 
ATOM     14  C   UNL     1       1.325  -2.162  27.755  0.00  0.00    +0.050 A 
ATOM     15  C   UNL     1       1.769  -2.658  28.970  0.00  0.00    +0.158 A 
ATOM     16  C   UNL     1       3.067  -3.128  29.103  0.00  0.00    +0.159 A 
ATOM     17  C   UNL     1       3.937  -3.121  28.013  0.00  0.00    +0.060 A 
BRANCH  15  18
ATOM     18  O   UNL     1       0.916  -2.689  30.037  0.00  0.00    -0.503 OA
ATOM     19  H   UNL     1       1.492  -2.876  30.805  0.00  0.00    +0.292 HD
ENDBRANCH  15  18
BRANCH  16  20
ATOM     20  O   UNL     1       3.447  -3.601  30.330  0.00  0.00    -0.503 OA
ATOM     21  H   UNL     1       4.400  -3.792  30.301  0.00  0.00    +0.292 HD
ENDBRANCH  16  20
ENDBRANCH   5  12
BRANCH  10  22
ATOM     22  O   UNL     1       7.439  -3.461  21.621  0.00  0.00    -0.506 OA
ATOM     23  H   UNL     1       7.478  -3.023  20.755  0.00  0.00    +0.292 HD
ENDBRANCH  10  22
BRANCH   1  24
ATOM     24  O   UNL     1       9.472   0.209  23.671  0.00  0.00    -0.461 OA
BRANCH  24  28
ATOM     25  C   UNL     1       7.711   3.489  25.817  0.00  0.00    +0.041 C 
ATOM     26  C   UNL     1       7.681   3.350  24.297  0.00  0.00    +0.150 C 
ATOM     27  O   UNL     1       7.943   1.991  23.917  0.00  0.00    -0.334 OA
ATOM     28  C   UNL     1       9.291   1.555  24.121  0.00  0.00    +0.339 C 
ATOM     29  C   UNL     1      10.236   2.432  23.265  0.00  0.00    +0.214 C 
ATOM     30  C   UNL     1      10.091   3.889  23.725  0.00  0.00    +0.180 C 
ATOM     31  C   UNL     1       8.624   4.346  23.596  0.00  0.00    +0.174 C 
BRANCH  29  32
ATOM     32  O   UNL     1       9.858   2.326  21.869  0.00  0.00    -0.383 OA
ATOM     33  H   UNL     1       9.004   1.851  21.852  0.00  0.00    +0.210 HD
ENDBRANCH  29  32
BRANCH  30  34
ATOM     34  O   UNL     1      10.992   4.743  23.014  0.00  0.00    -0.386 OA
ATOM     35  H   UNL     1      10.849   5.656  23.323  0.00  0.00    +0.210 HD
ENDBRANCH  30  34
BRANCH  31  36
ATOM     36  O   UNL     1       8.252   4.468  22.217  0.00  0.00    -0.387 OA
ATOM     37  H   UNL     1       8.998   4.916  21.758  0.00  0.00    +0.210 HD
ENDBRANCH  31  36
ENDBRANCH  24  28
ENDBRANCH   1  24
BRANCH   6  38
ATOM     38  O   UNL     1       3.431  -4.671  24.638  0.00  0.00    -0.453 OA
BRANCH  38  39
ATOM     39  C   UNL     1       3.680  -5.763  23.731  0.00  0.00    +0.339 C 
ATOM     40  O   UNL     1       2.653  -5.838  22.724  0.00  0.00    -0.334 OA
ATOM     41  C   UNL     1       1.435  -6.474  23.111  0.00  0.00    +0.150 C 
ATOM     42  C   UNL     1       0.535  -6.503  21.877  0.00  0.00    +0.041 C 
ATOM     43  C   UNL     1       1.682  -7.896  23.615  0.00  0.00    +0.174 C 
ATOM     44  C   UNL     1       2.614  -7.837  24.821  0.00  0.00    +0.180 C 
ATOM     45  C   UNL     1       3.920  -7.133  24.448  0.00  0.00    +0.214 C 
BRANCH  43  46
ATOM     46  O   UNL     1       0.443  -8.531  23.942  0.00  0.00    -0.387 OA
ATOM     47  H   UNL     1       0.104  -8.961  23.136  0.00  0.00    +0.210 HD
ENDBRANCH  43  46
BRANCH  44  48
ATOM     48  O   UNL     1       2.848  -9.181  25.285  0.00  0.00    -0.386 OA
ATOM     49  H   UNL     1       2.334  -9.791  24.726  0.00  0.00    +0.210 HD
ENDBRANCH  44  48
BRANCH  45  50
ATOM     50  O   UNL     1       4.723  -7.059  25.633  0.00  0.00    -0.383 OA
ATOM     51  H   UNL     1       5.394  -7.770  25.553  0.00  0.00    +0.210 HD
ENDBRANCH  45  50
ENDBRANCH  38  39
ENDBRANCH   6  38
TORSDOF 14
ENDMDL
MODEL 9
REMARK VINA RESULT:      -6.7      2.366      9.902
REMARK  Name = 
REMARK  16 active torsions:
REMARK  status: ('A' for Active; 'I' for Inactive)
REMARK    1  A    between atoms: C_1  and  C_2
REMARK    2  A    between atoms: C_3  and  O_48
REMARK    3  A    between atoms: C_5  and  O_47
REMARK    4  A    between atoms: C_7  and  O_46
REMARK    5  A    between atoms: C_8  and  O_11
REMARK    6  A    between atoms: O_11  and  C_12
REMARK    7  A    between atoms: C_14  and  O_45
REMARK    8  A    between atoms: C_19  and  C_37
REMARK    9  A    between atoms: C_20  and  O_23
REMARK   10  A    between atoms: O_23  and  C_24
REMARK   11  A    between atoms: C_26  and  O_36
REMARK   12  A    between atoms: C_28  and  O_35
REMARK   13  A    between atoms: C_29  and  O_34
REMARK   14  A    between atoms: C_31  and  C_33
REMARK   15  A    between atoms: C_39  and  O_44
REMARK   16  A    between atoms: C_40  and  O_43
REMARK                            x       y       z     vdW  Elec       q    Type
REMARK                         _______ _______ _______ _____ _____    ______ ____
ROOT
ATOM      1  C   UNL     1       8.332   0.526  23.801  0.00  0.00    +0.131 A 
ATOM      2  C   UNL     1       7.503  -0.513  23.350  0.00  0.00    +0.093 A 
ATOM      3  C   UNL     1       7.268  -1.633  24.163  0.00  0.00    +0.147 A 
ATOM      4  O   UNL     1       6.463  -2.644  23.686  0.00  0.00    -0.451 OA
ATOM      5  C   UNL     1       6.064  -3.671  24.560  0.00  0.00    +0.181 A 
ATOM      6  C   UNL     1       6.595  -3.858  25.791  0.00  0.00    +0.214 A 
ATOM      7  C   UNL     1       7.746  -2.964  26.131  0.00  0.00    +0.238 A 
ATOM      8  O   UNL     1       8.599  -3.262  26.971  0.00  0.00    -0.283 OA
ATOM      9  C   UNL     1       7.874  -1.705  25.407  0.00  0.00    +0.109 A 
ATOM     10  C   UNL     1       8.651  -0.650  25.886  0.00  0.00    +0.135 A 
ATOM     11  C   UNL     1       8.884   0.461  25.087  0.00  0.00    +0.092 A 
ENDROOT
BRANCH   5  12
ATOM     12  C   UNL     1       5.023  -4.566  23.958  0.00  0.00    +0.025 A 
ATOM     13  C   UNL     1       5.371  -5.848  23.487  0.00  0.00    +0.015 A 
ATOM     14  C   UNL     1       4.405  -6.734  22.993  0.00  0.00    +0.050 A 
ATOM     15  C   UNL     1       3.076  -6.342  22.960  0.00  0.00    +0.158 A 
ATOM     16  C   UNL     1       2.705  -5.085  23.415  0.00  0.00    +0.159 A 
ATOM     17  C   UNL     1       3.661  -4.206  23.923  0.00  0.00    +0.060 A 
BRANCH  15  18
ATOM     18  O   UNL     1       2.131  -7.206  22.485  0.00  0.00    -0.503 OA
ATOM     19  H   UNL     1       1.804  -7.672  23.281  0.00  0.00    +0.292 HD
ENDBRANCH  15  18
BRANCH  16  20
ATOM     20  O   UNL     1       1.378  -4.756  23.353  0.00  0.00    -0.503 OA
ATOM     21  H   UNL     1       0.870  -5.457  23.795  0.00  0.00    +0.292 HD
ENDBRANCH  16  20
ENDBRANCH   5  12
BRANCH  10  22
ATOM     22  O   UNL     1       9.180  -0.683  27.147  0.00  0.00    -0.506 OA
ATOM     23  H   UNL     1      10.098  -0.368  27.135  0.00  0.00    +0.292 HD
ENDBRANCH  10  22
BRANCH   1  24
ATOM     24  O   UNL     1       8.720   1.642  23.124  0.00  0.00    -0.461 OA
BRANCH  24  28
ATOM     25  C   UNL     1       5.716   4.707  22.909  0.00  0.00    +0.041 C 
ATOM     26  C   UNL     1       7.142   4.872  22.388  0.00  0.00    +0.150 C 
ATOM     27  O   UNL     1       7.754   3.588  22.199  0.00  0.00    -0.334 OA
ATOM     28  C   UNL     1       8.073   2.887  23.405  0.00  0.00    +0.339 C 
ATOM     29  C   UNL     1       9.081   3.728  24.223  0.00  0.00    +0.214 C 
ATOM     30  C   UNL     1       8.422   5.071  24.567  0.00  0.00    +0.180 C 
ATOM     31  C   UNL     1       7.991   5.799  23.279  0.00  0.00    +0.174 C 
BRANCH  29  32
ATOM     32  O   UNL     1      10.270   3.963  23.426  0.00  0.00    -0.383 OA
ATOM     33  H   UNL     1      10.812   4.605  23.926  0.00  0.00    +0.210 HD
ENDBRANCH  29  32
BRANCH  30  34
ATOM     34  O   UNL     1       9.283   5.870  25.383  0.00  0.00    -0.386 OA
ATOM     35  H   UNL     1       9.005   6.800  25.294  0.00  0.00    +0.210 HD
ENDBRANCH  30  34
BRANCH  31  36
ATOM     36  O   UNL     1       9.137   6.251  22.545  0.00  0.00    -0.387 OA
ATOM     37  H   UNL     1       9.165   5.730  21.711  0.00  0.00    +0.210 HD
ENDBRANCH  31  36
ENDBRANCH  24  28
ENDBRANCH   1  24
BRANCH   6  38
ATOM     38  O   UNL     1       6.123  -4.816  26.699  0.00  0.00    -0.453 OA
BRANCH  38  39
ATOM     39  C   UNL     1       5.719  -4.351  28.001  0.00  0.00    +0.339 C 
ATOM     40  O   UNL     1       6.304  -5.160  29.040  0.00  0.00    -0.334 OA
ATOM     41  C   UNL     1       5.656  -6.401  29.313  0.00  0.00    +0.150 C 
ATOM     42  C   UNL     1       6.398  -7.044  30.484  0.00  0.00    +0.041 C 
ATOM     43  C   UNL     1       4.184  -6.197  29.672  0.00  0.00    +0.174 C 
ATOM     44  C   UNL     1       3.480  -5.520  28.500  0.00  0.00    +0.180 C 
ATOM     45  C   UNL     1       4.169  -4.197  28.161  0.00  0.00    +0.214 C 
BRANCH  43  46
ATOM     46  O   UNL     1       3.571  -7.449  29.997  0.00  0.00    -0.387 OA
ATOM     47  H   UNL     1       4.207  -7.966  30.523  0.00  0.00    +0.210 HD
ENDBRANCH  43  46
BRANCH  44  48
ATOM     48  O   UNL     1       2.096  -5.325  28.850  0.00  0.00    -0.386 OA
ATOM     49  H   UNL     1       1.903  -5.854  29.644  0.00  0.00    +0.210 HD
ENDBRANCH  44  48
BRANCH  45  50
ATOM     50  O   UNL     1       3.500  -3.643  27.021  0.00  0.00    -0.383 OA
ATOM     51  H   UNL     1       3.485  -2.671  27.159  0.00  0.00    +0.210 HD
ENDBRANCH  45  50
ENDBRANCH  38  39
ENDBRANCH   6  38
TORSDOF 14
ENDMDL
