MODEL 1
REMARK VINA RESULT:      -7.1      0.000      0.000
REMARK  Name = 
REMARK  24 active torsions:
REMARK  status: ('A' for Active; 'I' for Inactive)
REMARK    1  A    between atoms: C_3  and  O_63
REMARK    2  A    between atoms: C_4  and  O_62
REMARK    3  A    between atoms: C_6  and  C_7
REMARK    4  A    between atoms: C_8  and  O_48
REMARK    5  A    between atoms: C_12  and  O_47
REMARK    6  A    between atoms: C_14  and  O_18
REMARK    7  A    between atoms: O_18  and  C_19
REMARK    8  A    between atoms: C_21  and  O_32
REMARK    9  A    between atoms: C_22  and  O_31
REMARK   10  A    between atoms: C_24  and  O_30
REMARK   11  A    between atoms: C_26  and  C_28
REMARK   12  A    between atoms: C_28  and  O_29
REMARK   13  A    between atoms: O_32  and  C_33
REMARK   14  A    between atoms: C_35  and  O_46
REMARK   15  A    between atoms: C_36  and  O_45
REMARK   16  A    between atoms: C_38  and  O_44
REMARK   17  A    between atoms: C_40  and  C_42
REMARK   18  A    between atoms: C_42  and  O_43
REMARK   19  A    between atoms: O_48  and  C_49
REMARK   20  A    between atoms: C_51  and  O_61
REMARK   21  A    between atoms: C_52  and  O_60
REMARK   22  A    between atoms: C_53  and  O_59
REMARK   23  A    between atoms: C_55  and  C_57
REMARK   24  A    between atoms: C_57  and  O_58
REMARK                            x       y       z     vdW  Elec       q    Type
REMARK                         _______ _______ _______ _____ _____    ______ ____
ROOT
ATOM      1  C   UNL     1       6.351  -1.773  25.972  0.00  0.00    +0.181 A 
ATOM      2  O   UNL     1       7.159  -0.638  26.077  0.00  0.00    -0.451 OA
ATOM      3  C   UNL     1       8.215  -0.465  25.223  0.00  0.00    +0.147 A 
ATOM      4  C   UNL     1       8.513  -1.378  24.228  0.00  0.00    +0.109 A 
ATOM      5  C   UNL     1       9.662  -1.180  23.459  0.00  0.00    +0.135 A 
ATOM      6  C   UNL     1      10.443  -0.032  23.625  0.00  0.00    +0.092 A 
ATOM      7  C   UNL     1      10.006   0.992  24.464  0.00  0.00    +0.131 A 
ATOM      8  C   UNL     1       7.552  -2.478  23.977  0.00  0.00    +0.238 A 
ATOM      9  O   UNL     1       7.643  -3.160  22.965  0.00  0.00    -0.283 OA
ATOM     10  C   UNL     1       8.950   0.722  25.342  0.00  0.00    +0.093 A 
ATOM     11  C   UNL     1       6.444  -2.677  24.972  0.00  0.00    +0.214 A 
ENDROOT
BRANCH   1  13
ATOM     12  C   UNL     1       5.164  -2.790  27.972  0.00  0.00    +0.015 A 
ATOM     13  C   UNL     1       5.259  -1.798  26.985  0.00  0.00    +0.025 A 
ATOM     14  C   UNL     1       4.200  -0.879  26.881  0.00  0.00    +0.060 A 
ATOM     15  C   UNL     1       3.024  -1.095  27.589  0.00  0.00    +0.159 A 
ATOM     16  C   UNL     1       2.873  -2.221  28.389  0.00  0.00    +0.158 A 
ATOM     17  C   UNL     1       3.954  -3.058  28.628  0.00  0.00    +0.050 A 
BRANCH  16  18
ATOM     18  O   UNL     1       1.641  -2.494  28.905  0.00  0.00    -0.503 OA
ATOM     19  H   UNL     1       1.589  -3.456  29.053  0.00  0.00    +0.292 HD
ENDBRANCH  16  18
BRANCH  15  20
ATOM     20  O   UNL     1       1.987  -0.208  27.432  0.00  0.00    -0.503 OA
ATOM     21  H   UNL     1       1.888  -0.157  26.453  0.00  0.00    +0.292 HD
ENDBRANCH  15  20
ENDBRANCH   1  13
BRANCH   5  22
ATOM     22  O   UNL     1      10.071  -2.027  22.477  0.00  0.00    -0.506 OA
ATOM     23  H   UNL     1      10.227  -2.917  22.870  0.00  0.00    +0.292 HD
ENDBRANCH   5  22
BRANCH  11  24
ATOM     24  O   UNL     1       5.758  -3.876  24.969  0.00  0.00    -0.453 OA
BRANCH  24  25
ATOM     25  C   UNL     1       4.421  -4.033  24.448  0.00  0.00    +0.340 C 
ATOM     26  O   UNL     1       3.555  -4.720  25.381  0.00  0.00    -0.331 OA
ATOM     27  C   UNL     1       3.710  -6.156  25.576  0.00  0.00    +0.179 C 
ATOM     28  C   UNL     1       4.474  -6.983  24.516  0.00  0.00    +0.177 C 
ATOM     29  C   UNL     1       5.296  -6.142  23.547  0.00  0.00    +0.180 C 
ATOM     30  C   UNL     1       4.473  -4.895  23.175  0.00  0.00    +0.214 C 
BRANCH  30  31
ATOM     31  O   UNL     1       5.015  -4.253  22.024  0.00  0.00    -0.383 OA
ATOM     32  H   UNL     1       4.305  -4.123  21.360  0.00  0.00    +0.210 HD
ENDBRANCH  30  31
BRANCH  29  33
ATOM     33  O   UNL     1       5.619  -6.955  22.412  0.00  0.00    -0.386 OA
ATOM     34  H   UNL     1       4.813  -7.481  22.225  0.00  0.00    +0.210 HD
ENDBRANCH  29  33
BRANCH  28  35
ATOM     35  O   UNL     1       3.579  -7.791  23.730  0.00  0.00    -0.386 OA
ATOM     36  H   UNL     1       2.783  -7.892  24.296  0.00  0.00    +0.210 HD
ENDBRANCH  28  35
BRANCH  27  37
ATOM     37  C   UNL     1       2.289  -6.718  25.806  0.00  0.00    +0.190 C 
BRANCH  37  38
ATOM     38  O   UNL     1       2.376  -7.973  26.487  0.00  0.00    -0.392 OA
ATOM     39  H   UNL     1       3.113  -8.443  26.049  0.00  0.00    +0.210 HD
ENDBRANCH  37  38
ENDBRANCH  27  37
ENDBRANCH  24  25
ENDBRANCH  11  24
BRANCH   7  40
ATOM     40  O   UNL     1      10.458   2.287  24.472  0.00  0.00    -0.461 OA
BRANCH  40  41
ATOM     41  C   UNL     1      10.089   3.150  23.386  0.00  0.00    +0.340 C 
ATOM     42  O   UNL     1      11.184   4.047  23.118  0.00  0.00    -0.331 OA
ATOM     43  C   UNL     1      11.282   5.101  24.091  0.00  0.00    +0.179 C 
ATOM     44  C   UNL     1      10.048   6.003  23.940  0.00  0.00    +0.177 C 
ATOM     45  C   UNL     1       8.822   5.186  24.381  0.00  0.00    +0.180 C 
ATOM     46  C   UNL     1       8.701   3.880  23.566  0.00  0.00    +0.221 C 
BRANCH  45  47
ATOM     47  O   UNL     1       8.889   4.934  25.786  0.00  0.00    -0.386 OA
ATOM     48  H   UNL     1       9.471   4.163  25.929  0.00  0.00    +0.210 HD
ENDBRANCH  45  47
BRANCH  44  49
ATOM     49  O   UNL     1       9.894   6.415  22.575  0.00  0.00    -0.386 OA
ATOM     50  H   UNL     1      10.514   7.147  22.405  0.00  0.00    +0.210 HD
ENDBRANCH  44  49
BRANCH  46  51
ATOM     51  O   UNL     1       7.614   2.997  24.018  0.00  0.00    -0.337 OA
BRANCH  51  52
ATOM     52  C   UNL     1       6.421   2.968  23.170  0.00  0.00    +0.282 C 
ATOM     53  O   UNL     1       6.118   4.273  22.607  0.00  0.00    -0.341 OA
ATOM     54  C   UNL     1       5.566   5.274  23.494  0.00  0.00    +0.178 C 
ATOM     55  C   UNL     1       4.454   4.759  24.447  0.00  0.00    +0.177 C 
ATOM     56  C   UNL     1       4.837   3.410  25.047  0.00  0.00    +0.179 C 
ATOM     57  C   UNL     1       5.148   2.453  23.879  0.00  0.00    +0.201 C 
BRANCH  57  58
ATOM     58  O   UNL     1       5.231   1.089  24.300  0.00  0.00    -0.384 OA
ATOM     59  H   UNL     1       5.078   1.072  25.263  0.00  0.00    +0.210 HD
ENDBRANCH  57  58
BRANCH  56  60
ATOM     60  O   UNL     1       5.927   3.577  25.965  0.00  0.00    -0.386 OA
ATOM     61  H   UNL     1       5.628   4.147  26.706  0.00  0.00    +0.210 HD
ENDBRANCH  56  60
BRANCH  55  62
ATOM     62  O   UNL     1       3.203   4.610  23.761  0.00  0.00    -0.386 OA
ATOM     63  H   UNL     1       3.000   5.451  23.313  0.00  0.00    +0.210 HD
ENDBRANCH  55  62
BRANCH  54  64
ATOM     64  C   UNL     1       4.995   6.480  22.697  0.00  0.00    +0.190 C 
BRANCH  64  65
ATOM     65  O   UNL     1       4.163   6.114  21.602  0.00  0.00    -0.392 OA
ATOM     66  H   UNL     1       3.329   6.606  21.673  0.00  0.00    +0.210 HD
ENDBRANCH  64  65
ENDBRANCH  54  64
ENDBRANCH  51  52
ENDBRANCH  46  51
BRANCH  43  67
ATOM     67  C   UNL     1      12.622   5.827  23.911  0.00  0.00    +0.190 C 
BRANCH  67  68
ATOM     68  O   UNL     1      13.641   5.017  23.339  0.00  0.00    -0.392 OA
ATOM     69  H   UNL     1      14.272   5.632  22.918  0.00  0.00    +0.210 HD
ENDBRANCH  67  68
ENDBRANCH  43  67
ENDBRANCH  40  41
ENDBRANCH   7  40
TORSDOF 24
ENDMDL
MODEL 2
REMARK VINA RESULT:      -7.0      2.018     10.322
REMARK  Name = 
REMARK  24 active torsions:
REMARK  status: ('A' for Active; 'I' for Inactive)
REMARK    1  A    between atoms: C_3  and  O_63
REMARK    2  A    between atoms: C_4  and  O_62
REMARK    3  A    between atoms: C_6  and  C_7
REMARK    4  A    between atoms: C_8  and  O_48
REMARK    5  A    between atoms: C_12  and  O_47
REMARK    6  A    between atoms: C_14  and  O_18
REMARK    7  A    between atoms: O_18  and  C_19
REMARK    8  A    between atoms: C_21  and  O_32
REMARK    9  A    between atoms: C_22  and  O_31
REMARK   10  A    between atoms: C_24  and  O_30
REMARK   11  A    between atoms: C_26  and  C_28
REMARK   12  A    between atoms: C_28  and  O_29
REMARK   13  A    between atoms: O_32  and  C_33
REMARK   14  A    between atoms: C_35  and  O_46
REMARK   15  A    between atoms: C_36  and  O_45
REMARK   16  A    between atoms: C_38  and  O_44
REMARK   17  A    between atoms: C_40  and  C_42
REMARK   18  A    between atoms: C_42  and  O_43
REMARK   19  A    between atoms: O_48  and  C_49
REMARK   20  A    between atoms: C_51  and  O_61
REMARK   21  A    between atoms: C_52  and  O_60
REMARK   22  A    between atoms: C_53  and  O_59
REMARK   23  A    between atoms: C_55  and  C_57
REMARK   24  A    between atoms: C_57  and  O_58
REMARK                            x       y       z     vdW  Elec       q    Type
REMARK                         _______ _______ _______ _____ _____    ______ ____
ROOT
ATOM      1  C   UNL     1       6.644   0.989  25.124  0.00  0.00    +0.181 A 
ATOM      2  O   UNL     1       6.619  -0.213  25.834  0.00  0.00    -0.451 OA
ATOM      3  C   UNL     1       5.546  -0.521  26.627  0.00  0.00    +0.147 A 
ATOM      4  C   UNL     1       4.454   0.320  26.745  0.00  0.00    +0.109 A 
ATOM      5  C   UNL     1       3.442  -0.019  27.647  0.00  0.00    +0.135 A 
ATOM      6  C   UNL     1       3.484  -1.230  28.344  0.00  0.00    +0.092 A 
ATOM      7  C   UNL     1       4.465  -2.173  28.044  0.00  0.00    +0.131 A 
ATOM      8  C   UNL     1       4.377   1.497  25.848  0.00  0.00    +0.238 A 
ATOM      9  O   UNL     1       3.333   2.127  25.743  0.00  0.00    -0.283 OA
ATOM     10  C   UNL     1       5.555  -1.768  27.266  0.00  0.00    +0.093 A 
ATOM     11  C   UNL     1       5.598   1.841  25.043  0.00  0.00    +0.214 A 
ENDROOT
BRANCH   1  13
ATOM     12  C   UNL     1       8.996   1.885  24.790  0.00  0.00    +0.015 A 
ATOM     13  C   UNL     1       7.888   1.160  24.324  0.00  0.00    +0.025 A 
ATOM     14  C   UNL     1       7.923   0.700  22.996  0.00  0.00    +0.060 A 
ATOM     15  C   UNL     1       8.922   1.140  22.136  0.00  0.00    +0.159 A 
ATOM     16  C   UNL     1       9.883   2.047  22.569  0.00  0.00    +0.158 A 
ATOM     17  C   UNL     1       9.961   2.395  23.910  0.00  0.00    +0.050 A 
BRANCH  16  18
ATOM     18  O   UNL     1      10.719   2.601  21.645  0.00  0.00    -0.503 OA
ATOM     19  H   UNL     1      10.840   1.951  20.929  0.00  0.00    +0.292 HD
ENDBRANCH  16  18
BRANCH  15  20
ATOM     20  O   UNL     1       8.905   0.714  20.831  0.00  0.00    -0.503 OA
ATOM     21  H   UNL     1       9.775   1.025  20.487  0.00  0.00    +0.292 HD
ENDBRANCH  15  20
ENDBRANCH   1  13
BRANCH   5  22
ATOM     22  O   UNL     1       2.340   0.745  27.869  0.00  0.00    -0.506 OA
ATOM     23  H   UNL     1       1.834   0.826  27.027  0.00  0.00    +0.292 HD
ENDBRANCH   5  22
BRANCH  11  24
ATOM     24  O   UNL     1       5.687   3.100  24.481  0.00  0.00    -0.453 OA
BRANCH  24  25
ATOM     25  C   UNL     1       5.662   3.347  23.060  0.00  0.00    +0.340 C 
ATOM     26  O   UNL     1       6.535   4.437  22.684  0.00  0.00    -0.331 OA
ATOM     27  C   UNL     1       6.138   5.807  22.988  0.00  0.00    +0.179 C 
ATOM     28  C   UNL     1       4.656   6.111  23.306  0.00  0.00    +0.177 C 
ATOM     29  C   UNL     1       3.822   4.873  23.617  0.00  0.00    +0.180 C 
ATOM     30  C   UNL     1       4.238   3.756  22.644  0.00  0.00    +0.214 C 
BRANCH  30  31
ATOM     31  O   UNL     1       3.278   2.703  22.638  0.00  0.00    -0.383 OA
ATOM     32  H   UNL     1       3.305   2.234  23.499  0.00  0.00    +0.210 HD
ENDBRANCH  30  31
BRANCH  29  33
ATOM     33  O   UNL     1       2.439   5.225  23.502  0.00  0.00    -0.386 OA
ATOM     34  H   UNL     1       1.979   4.731  24.213  0.00  0.00    +0.210 HD
ENDBRANCH  29  33
BRANCH  28  35
ATOM     35  O   UNL     1       4.012   6.800  22.219  0.00  0.00    -0.386 OA
ATOM     36  H   UNL     1       3.654   7.617  22.628  0.00  0.00    +0.210 HD
ENDBRANCH  28  35
BRANCH  27  37
ATOM     37  C   UNL     1       6.647   6.676  21.816  0.00  0.00    +0.190 C 
BRANCH  37  38
ATOM     38  O   UNL     1       7.904   6.170  21.357  0.00  0.00    -0.392 OA
ATOM     39  H   UNL     1       8.568   6.593  21.935  0.00  0.00    +0.210 HD
ENDBRANCH  37  38
ENDBRANCH  27  37
ENDBRANCH  24  25
ENDBRANCH  11  24
BRANCH   7  40
ATOM     40  O   UNL     1       4.443  -3.505  28.373  0.00  0.00    -0.461 OA
BRANCH  40  41
ATOM     41  C   UNL     1       3.474  -4.353  27.739  0.00  0.00    +0.340 C 
ATOM     42  O   UNL     1       2.820  -5.142  28.750  0.00  0.00    -0.331 OA
ATOM     43  C   UNL     1       3.644  -6.221  29.224  0.00  0.00    +0.179 C 
ATOM     44  C   UNL     1       3.829  -7.219  28.071  0.00  0.00    +0.177 C 
ATOM     45  C   UNL     1       4.684  -6.527  26.995  0.00  0.00    +0.180 C 
ATOM     46  C   UNL     1       4.033  -5.205  26.533  0.00  0.00    +0.221 C 
BRANCH  45  47
ATOM     47  O   UNL     1       6.010  -6.325  27.488  0.00  0.00    -0.386 OA
ATOM     48  H   UNL     1       6.539  -5.911  26.780  0.00  0.00    +0.210 HD
ENDBRANCH  45  47
BRANCH  44  49
ATOM     49  O   UNL     1       2.558  -7.588  27.520  0.00  0.00    -0.386 OA
ATOM     50  H   UNL     1       2.020  -7.982  28.231  0.00  0.00    +0.210 HD
ENDBRANCH  44  49
BRANCH  46  51
ATOM     51  O   UNL     1       4.860  -4.436  25.588  0.00  0.00    -0.337 OA
BRANCH  51  52
ATOM     52  C   UNL     1       5.687  -5.227  24.675  0.00  0.00    +0.282 C 
ATOM     53  O   UNL     1       7.091  -5.206  25.051  0.00  0.00    -0.341 OA
ATOM     54  C   UNL     1       7.832  -3.988  24.804  0.00  0.00    +0.178 C 
ATOM     55  C   UNL     1       7.572  -3.336  23.420  0.00  0.00    +0.177 C 
ATOM     56  C   UNL     1       6.083  -3.342  23.089  0.00  0.00    +0.179 C 
ATOM     57  C   UNL     1       5.589  -4.798  23.194  0.00  0.00    +0.201 C 
BRANCH  57  58
ATOM     58  O   UNL     1       4.290  -4.974  22.624  0.00  0.00    -0.384 OA
ATOM     59  H   UNL     1       4.176  -5.927  22.450  0.00  0.00    +0.210 HD
ENDBRANCH  57  58
BRANCH  56  60
ATOM     60  O   UNL     1       5.389  -2.431  23.954  0.00  0.00    -0.386 OA
ATOM     61  H   UNL     1       5.973  -1.663  24.133  0.00  0.00    +0.210 HD
ENDBRANCH  56  60
BRANCH  55  62
ATOM     62  O   UNL     1       8.270  -4.029  22.375  0.00  0.00    -0.386 OA
ATOM     63  H   UNL     1       7.919  -4.936  22.324  0.00  0.00    +0.210 HD
ENDBRANCH  55  62
BRANCH  54  64
ATOM     64  C   UNL     1       9.362  -4.222  24.946  0.00  0.00    +0.190 C 
BRANCH  64  65
ATOM     65  O   UNL     1       9.768  -5.569  24.732  0.00  0.00    -0.392 OA
ATOM     66  H   UNL     1       8.972  -6.118  24.639  0.00  0.00    +0.210 HD
ENDBRANCH  64  65
ENDBRANCH  54  64
ENDBRANCH  51  52
ENDBRANCH  46  51
BRANCH  43  67
ATOM     67  C   UNL     1       3.006  -6.823  30.484  0.00  0.00    +0.190 C 
BRANCH  67  68
ATOM     68  O   UNL     1       2.668  -8.198  30.355  0.00  0.00    -0.392 OA
ATOM     69  H   UNL     1       2.150  -8.425  31.150  0.00  0.00    +0.210 HD
ENDBRANCH  67  68
ENDBRANCH  43  67
ENDBRANCH  40  41
ENDBRANCH   7  40
TORSDOF 24
ENDMDL
MODEL 3
REMARK VINA RESULT:      -6.6      2.071      9.735
REMARK  Name = 
REMARK  24 active torsions:
REMARK  status: ('A' for Active; 'I' for Inactive)
REMARK    1  A    between atoms: C_3  and  O_63
REMARK    2  A    between atoms: C_4  and  O_62
REMARK    3  A    between atoms: C_6  and  C_7
REMARK    4  A    between atoms: C_8  and  O_48
REMARK    5  A    between atoms: C_12  and  O_47
REMARK    6  A    between atoms: C_14  and  O_18
REMARK    7  A    between atoms: O_18  and  C_19
REMARK    8  A    between atoms: C_21  and  O_32
REMARK    9  A    between atoms: C_22  and  O_31
REMARK   10  A    between atoms: C_24  and  O_30
REMARK   11  A    between atoms: C_26  and  C_28
REMARK   12  A    between atoms: C_28  and  O_29
REMARK   13  A    between atoms: O_32  and  C_33
REMARK   14  A    between atoms: C_35  and  O_46
REMARK   15  A    between atoms: C_36  and  O_45
REMARK   16  A    between atoms: C_38  and  O_44
REMARK   17  A    between atoms: C_40  and  C_42
REMARK   18  A    between atoms: C_42  and  O_43
REMARK   19  A    between atoms: O_48  and  C_49
REMARK   20  A    between atoms: C_51  and  O_61
REMARK   21  A    between atoms: C_52  and  O_60
REMARK   22  A    between atoms: C_53  and  O_59
REMARK   23  A    between atoms: C_55  and  C_57
REMARK   24  A    between atoms: C_57  and  O_58
REMARK                            x       y       z     vdW  Elec       q    Type
REMARK                         _______ _______ _______ _____ _____    ______ ____
ROOT
ATOM      1  C   UNL     1       5.567   1.744  25.195  0.00  0.00    +0.181 A 
ATOM      2  O   UNL     1       5.840   0.461  25.672  0.00  0.00    -0.451 OA
ATOM      3  C   UNL     1       5.080  -0.076  26.676  0.00  0.00    +0.147 A 
ATOM      4  C   UNL     1       4.017   0.607  27.238  0.00  0.00    +0.109 A 
ATOM      5  C   UNL     1       3.349   0.032  28.322  0.00  0.00    +0.135 A 
ATOM      6  C   UNL     1       3.683  -1.250  28.768  0.00  0.00    +0.092 A 
ATOM      7  C   UNL     1       4.593  -2.022  28.047  0.00  0.00    +0.131 A 
ATOM      8  C   UNL     1       3.591   1.879  26.609  0.00  0.00    +0.238 A 
ATOM      9  O   UNL     1       2.522   2.393  26.912  0.00  0.00    -0.283 OA
ATOM     10  C   UNL     1       5.368  -1.390  27.070  0.00  0.00    +0.093 A 
ATOM     11  C   UNL     1       4.486   2.471  25.558  0.00  0.00    +0.214 A 
ENDROOT
BRANCH   1  13
ATOM     12  C   UNL     1       6.308   1.817  22.768  0.00  0.00    +0.015 A 
ATOM     13  C   UNL     1       6.498   2.167  24.113  0.00  0.00    +0.025 A 
ATOM     14  C   UNL     1       7.693   2.829  24.450  0.00  0.00    +0.060 A 
ATOM     15  C   UNL     1       8.717   2.927  23.517  0.00  0.00    +0.159 A 
ATOM     16  C   UNL     1       8.585   2.362  22.254  0.00  0.00    +0.158 A 
ATOM     17  C   UNL     1       7.365   1.842  21.847  0.00  0.00    +0.050 A 
BRANCH  16  18
ATOM     18  O   UNL     1       9.681   2.309  21.445  0.00  0.00    -0.503 OA
ATOM     19  H   UNL     1      10.370   1.805  21.915  0.00  0.00    +0.292 HD
ENDBRANCH  16  18
BRANCH  15  20
ATOM     20  O   UNL     1       9.892   3.536  23.888  0.00  0.00    -0.503 OA
ATOM     21  H   UNL     1       9.582   4.298  24.430  0.00  0.00    +0.292 HD
ENDBRANCH  15  20
ENDBRANCH   1  13
BRANCH   5  22
ATOM     22  O   UNL     1       2.313   0.625  28.973  0.00  0.00    -0.506 OA
ATOM     23  H   UNL     1       1.772  -0.073  29.411  0.00  0.00    +0.292 HD
ENDBRANCH   5  22
BRANCH  11  24
ATOM     24  O   UNL     1       4.315   3.797  25.211  0.00  0.00    -0.453 OA
BRANCH  24  25
ATOM     25  C   UNL     1       3.063   4.350  24.752  0.00  0.00    +0.340 C 
ATOM     26  O   UNL     1       2.313   3.402  23.957  0.00  0.00    -0.331 OA
ATOM     27  C   UNL     1       2.748   3.105  22.598  0.00  0.00    +0.179 C 
ATOM     28  C   UNL     1       3.711   4.082  21.885  0.00  0.00    +0.177 C 
ATOM     29  C   UNL     1       4.389   5.078  22.818  0.00  0.00    +0.180 C 
ATOM     30  C   UNL     1       3.348   5.559  23.845  0.00  0.00    +0.214 C 
BRANCH  30  31
ATOM     31  O   UNL     1       3.800   6.733  24.515  0.00  0.00    -0.383 OA
ATOM     32  H   UNL     1       4.753   6.638  24.728  0.00  0.00    +0.210 HD
ENDBRANCH  30  31
BRANCH  29  33
ATOM     33  O   UNL     1       4.922   6.144  22.024  0.00  0.00    -0.386 OA
ATOM     34  H   UNL     1       4.473   6.957  22.336  0.00  0.00    +0.210 HD
ENDBRANCH  29  33
BRANCH  28  35
ATOM     35  O   UNL     1       3.037   4.841  20.864  0.00  0.00    -0.386 OA
ATOM     36  H   UNL     1       2.152   4.421  20.795  0.00  0.00    +0.210 HD
ENDBRANCH  28  35
BRANCH  27  37
ATOM     37  C   UNL     1       1.462   2.885  21.769  0.00  0.00    +0.190 C 
BRANCH  37  38
ATOM     38  O   UNL     1       1.732   1.973  20.702  0.00  0.00    -0.392 OA
ATOM     39  H   UNL     1       1.191   1.185  20.905  0.00  0.00    +0.210 HD
ENDBRANCH  37  38
ENDBRANCH  27  37
ENDBRANCH  24  25
ENDBRANCH  11  24
BRANCH   7  40
ATOM     40  O   UNL     1       4.764  -3.380  28.144  0.00  0.00    -0.461 OA
BRANCH  40  41
ATOM     41  C   UNL     1       3.961  -4.234  27.316  0.00  0.00    +0.340 C 
ATOM     42  O   UNL     1       3.389  -5.268  28.139  0.00  0.00    -0.331 OA
ATOM     43  C   UNL     1       4.344  -6.286  28.485  0.00  0.00    +0.179 C 
ATOM     44  C   UNL     1       4.725  -7.036  27.200  0.00  0.00    +0.177 C 
ATOM     45  C   UNL     1       5.512  -6.058  26.311  0.00  0.00    +0.180 C 
ATOM     46  C   UNL     1       4.692  -4.780  26.028  0.00  0.00    +0.221 C 
BRANCH  45  47
ATOM     47  O   UNL     1       6.771  -5.760  26.918  0.00  0.00    -0.386 OA
ATOM     48  H   UNL     1       7.419  -5.590  26.208  0.00  0.00    +0.210 HD
ENDBRANCH  45  47
BRANCH  44  49
ATOM     49  O   UNL     1       3.548  -7.480  26.512  0.00  0.00    -0.386 OA
ATOM     50  H   UNL     1       3.819  -8.096  25.808  0.00  0.00    +0.210 HD
ENDBRANCH  44  49
BRANCH  46  51
ATOM     51  O   UNL     1       5.434  -3.754  25.278  0.00  0.00    -0.337 OA
BRANCH  51  52
ATOM     52  C   UNL     1       6.430  -4.252  24.328  0.00  0.00    +0.282 C 
ATOM     53  O   UNL     1       7.769  -3.786  24.644  0.00  0.00    -0.341 OA
ATOM     54  C   UNL     1       8.078  -2.399  24.369  0.00  0.00    +0.178 C 
ATOM     55  C   UNL     1       7.567  -1.877  22.999  0.00  0.00    +0.177 C 
ATOM     56  C   UNL     1       6.144  -2.356  22.733  0.00  0.00    +0.179 C 
ATOM     57  C   UNL     1       6.140  -3.892  22.854  0.00  0.00    +0.201 C 
BRANCH  57  58
ATOM     58  O   UNL     1       4.940  -4.475  22.340  0.00  0.00    -0.384 OA
ATOM     59  H   UNL     1       4.256  -3.780  22.340  0.00  0.00    +0.210 HD
ENDBRANCH  57  58
BRANCH  56  60
ATOM     60  O   UNL     1       5.235  -1.701  23.629  0.00  0.00    -0.386 OA
ATOM     61  H   UNL     1       4.885  -0.897  23.189  0.00  0.00    +0.210 HD
ENDBRANCH  56  60
BRANCH  55  62
ATOM     62  O   UNL     1       8.404  -2.325  21.923  0.00  0.00    -0.386 OA
ATOM     63  H   UNL     1       8.034  -3.157  21.576  0.00  0.00    +0.210 HD
ENDBRANCH  55  62
BRANCH  54  64
ATOM     64  C   UNL     1       9.607  -2.137  24.444  0.00  0.00    +0.190 C 
BRANCH  64  65
ATOM     65  O   UNL     1      10.400  -3.113  23.776  0.00  0.00    -0.392 OA
ATOM     66  H   UNL     1      10.235  -3.040  22.821  0.00  0.00    +0.210 HD
ENDBRANCH  64  65
ENDBRANCH  54  64
ENDBRANCH  51  52
ENDBRANCH  46  51
BRANCH  43  67
ATOM     67  C   UNL     1       3.750  -7.178  29.585  0.00  0.00    +0.190 C 
BRANCH  67  68
ATOM     68  O   UNL     1       2.625  -7.938  29.161  0.00  0.00    -0.392 OA
ATOM     69  H   UNL     1       2.959  -8.562  28.489  0.00  0.00    +0.210 HD
ENDBRANCH  67  68
ENDBRANCH  43  67
ENDBRANCH  40  41
ENDBRANCH   7  40
TORSDOF 24
ENDMDL
MODEL 4
REMARK VINA RESULT:      -6.5      2.135      9.397
REMARK  Name = 
REMARK  24 active torsions:
REMARK  status: ('A' for Active; 'I' for Inactive)
REMARK    1  A    between atoms: C_3  and  O_63
REMARK    2  A    between atoms: C_4  and  O_62
REMARK    3  A    between atoms: C_6  and  C_7
REMARK    4  A    between atoms: C_8  and  O_48
REMARK    5  A    between atoms: C_12  and  O_47
REMARK    6  A    between atoms: C_14  and  O_18
REMARK    7  A    between atoms: O_18  and  C_19
REMARK    8  A    between atoms: C_21  and  O_32
REMARK    9  A    between atoms: C_22  and  O_31
REMARK   10  A    between atoms: C_24  and  O_30
REMARK   11  A    between atoms: C_26  and  C_28
REMARK   12  A    between atoms: C_28  and  O_29
REMARK   13  A    between atoms: O_32  and  C_33
REMARK   14  A    between atoms: C_35  and  O_46
REMARK   15  A    between atoms: C_36  and  O_45
REMARK   16  A    between atoms: C_38  and  O_44
REMARK   17  A    between atoms: C_40  and  C_42
REMARK   18  A    between atoms: C_42  and  O_43
REMARK   19  A    between atoms: O_48  and  C_49
REMARK   20  A    between atoms: C_51  and  O_61
REMARK   21  A    between atoms: C_52  and  O_60
REMARK   22  A    between atoms: C_53  and  O_59
REMARK   23  A    between atoms: C_55  and  C_57
REMARK   24  A    between atoms: C_57  and  O_58
REMARK                            x       y       z     vdW  Elec       q    Type
REMARK                         _______ _______ _______ _____ _____    ______ ____
ROOT
ATOM      1  C   UNL     1       4.866   2.629  24.532  0.00  0.00    +0.181 A 
ATOM      2  O   UNL     1       4.423   1.361  24.914  0.00  0.00    -0.451 OA
ATOM      3  C   UNL     1       5.245   0.533  25.630  0.00  0.00    +0.147 A 
ATOM      4  C   UNL     1       6.518   0.914  26.014  0.00  0.00    +0.109 A 
ATOM      5  C   UNL     1       7.332  -0.021  26.659  0.00  0.00    +0.135 A 
ATOM      6  C   UNL     1       6.837  -1.284  26.998  0.00  0.00    +0.092 A 
ATOM      7  C   UNL     1       5.485  -1.574  26.818  0.00  0.00    +0.131 A 
ATOM      8  C   UNL     1       6.925   2.321  25.791  0.00  0.00    +0.238 A 
ATOM      9  O   UNL     1       7.933   2.766  26.324  0.00  0.00    -0.283 OA
ATOM     10  C   UNL     1       4.721  -0.703  26.034  0.00  0.00    +0.093 A 
ATOM     11  C   UNL     1       6.029   3.180  24.945  0.00  0.00    +0.214 A 
ENDROOT
BRANCH   1  13
ATOM     12  C   UNL     1       2.785   4.074  24.363  0.00  0.00    +0.015 A 
ATOM     13  C   UNL     1       3.845   3.385  23.755  0.00  0.00    +0.025 A 
ATOM     14  C   UNL     1       3.849   3.306  22.351  0.00  0.00    +0.060 A 
ATOM     15  C   UNL     1       2.732   3.710  21.631  0.00  0.00    +0.159 A 
ATOM     16  C   UNL     1       1.597   4.179  22.283  0.00  0.00    +0.158 A 
ATOM     17  C   UNL     1       1.625   4.410  23.651  0.00  0.00    +0.050 A 
BRANCH  16  18
ATOM     18  O   UNL     1       0.461   4.376  21.556  0.00  0.00    -0.503 OA
ATOM     19  H   UNL     1      -0.148   3.642  21.756  0.00  0.00    +0.292 HD
ENDBRANCH  16  18
BRANCH  15  20
ATOM     20  O   UNL     1       2.743   3.577  20.264  0.00  0.00    -0.503 OA
ATOM     21  H   UNL     1       3.637   3.203  20.087  0.00  0.00    +0.292 HD
ENDBRANCH  15  20
ENDBRANCH   1  13
BRANCH   5  22
ATOM     22  O   UNL     1       8.608   0.230  27.053  0.00  0.00    -0.506 OA
ATOM     23  H   UNL     1       8.790  -0.272  27.882  0.00  0.00    +0.292 HD
ENDBRANCH   5  22
BRANCH  11  24
ATOM     24  O   UNL     1       6.533   4.359  24.431  0.00  0.00    -0.453 OA
BRANCH  24  25
ATOM     25  C   UNL     1       7.043   4.493  23.088  0.00  0.00    +0.340 C 
ATOM     26  O   UNL     1       7.670   3.276  22.623  0.00  0.00    -0.331 OA
ATOM     27  C   UNL     1       8.979   2.901  23.144  0.00  0.00    +0.179 C 
ATOM     28  C   UNL     1       9.851   3.974  23.835  0.00  0.00    +0.177 C 
ATOM     29  C   UNL     1       9.092   5.240  24.215  0.00  0.00    +0.180 C 
ATOM     30  C   UNL     1       8.127   5.585  23.066  0.00  0.00    +0.214 C 
BRANCH  30  31
ATOM     31  O   UNL     1       7.649   6.922  23.188  0.00  0.00    -0.383 OA
ATOM     32  H   UNL     1       6.954   6.958  23.879  0.00  0.00    +0.210 HD
ENDBRANCH  30  31
BRANCH  29  33
ATOM     33  O   UNL     1      10.048   6.276  24.469  0.00  0.00    -0.386 OA
ATOM     34  H   UNL     1      10.447   6.488  23.599  0.00  0.00    +0.210 HD
ENDBRANCH  29  33
BRANCH  28  35
ATOM     35  O   UNL     1      10.958   4.371  23.006  0.00  0.00    -0.386 OA
ATOM     36  H   UNL     1      11.081   3.617  22.388  0.00  0.00    +0.210 HD
ENDBRANCH  28  35
BRANCH  27  37
ATOM     37  C   UNL     1       9.737   2.234  21.974  0.00  0.00    +0.190 C 
BRANCH  37  38
ATOM     38  O   UNL     1       8.801   1.596  21.101  0.00  0.00    -0.392 OA
ATOM     39  H   UNL     1       8.729   2.194  20.332  0.00  0.00    +0.210 HD
ENDBRANCH  37  38
ENDBRANCH  27  37
ENDBRANCH  24  25
ENDBRANCH  11  24
BRANCH   7  40
ATOM     40  O   UNL     1       4.788  -2.603  27.399  0.00  0.00    -0.461 OA
BRANCH  40  41
ATOM     41  C   UNL     1       4.493  -3.765  26.609  0.00  0.00    +0.340 C 
ATOM     42  O   UNL     1       3.867  -4.749  27.453  0.00  0.00    -0.331 OA
ATOM     43  C   UNL     1       4.808  -5.415  28.312  0.00  0.00    +0.179 C 
ATOM     44  C   UNL     1       5.742  -6.257  27.430  0.00  0.00    +0.177 C 
ATOM     45  C   UNL     1       6.599  -5.282  26.604  0.00  0.00    +0.180 C 
ATOM     46  C   UNL     1       5.712  -4.325  25.778  0.00  0.00    +0.221 C 
BRANCH  45  47
ATOM     47  O   UNL     1       7.491  -4.574  27.466  0.00  0.00    -0.386 OA
ATOM     48  H   UNL     1       6.979  -4.240  28.227  0.00  0.00    +0.210 HD
ENDBRANCH  45  47
BRANCH  44  49
ATOM     49  O   UNL     1       4.979  -7.098  26.555  0.00  0.00    -0.386 OA
ATOM     50  H   UNL     1       5.351  -7.023  25.657  0.00  0.00    +0.210 HD
ENDBRANCH  44  49
BRANCH  46  51
ATOM     51  O   UNL     1       6.470  -3.291  25.054  0.00  0.00    -0.337 OA
BRANCH  51  52
ATOM     52  C   UNL     1       7.648  -3.760  24.321  0.00  0.00    +0.282 C 
ATOM     53  O   UNL     1       8.808  -2.917  24.554  0.00  0.00    -0.341 OA
ATOM     54  C   UNL     1       8.829  -1.615  23.923  0.00  0.00    +0.178 C 
ATOM     55  C   UNL     1       8.365  -1.602  22.441  0.00  0.00    +0.177 C 
ATOM     56  C   UNL     1       7.120  -2.464  22.256  0.00  0.00    +0.179 C 
ATOM     57  C   UNL     1       7.444  -3.871  22.794  0.00  0.00    +0.201 C 
BRANCH  57  58
ATOM     58  O   UNL     1       6.466  -4.840  22.409  0.00  0.00    -0.384 OA
ATOM     59  H   UNL     1       6.031  -4.509  21.602  0.00  0.00    +0.210 HD
ENDBRANCH  57  58
BRANCH  56  60
ATOM     60  O   UNL     1       5.998  -1.842  22.898  0.00  0.00    -0.386 OA
ATOM     61  H   UNL     1       5.682  -1.105  22.333  0.00  0.00    +0.210 HD
ENDBRANCH  56  60
BRANCH  55  62
ATOM     62  O   UNL     1       9.390  -2.094  21.566  0.00  0.00    -0.386 OA
ATOM     63  H   UNL     1       9.491  -1.463  20.831  0.00  0.00    +0.210 HD
ENDBRANCH  55  62
BRANCH  54  64
ATOM     64  C   UNL     1      10.245  -0.979  23.988  0.00  0.00    +0.190 C 
BRANCH  64  65
ATOM     65  O   UNL     1      10.354   0.110  24.898  0.00  0.00    -0.392 OA
ATOM     66  H   UNL     1       9.872  -0.120  25.710  0.00  0.00    +0.210 HD
ENDBRANCH  64  65
ENDBRANCH  54  64
ENDBRANCH  51  52
ENDBRANCH  46  51
BRANCH  43  67
ATOM     67  C   UNL     1       4.040  -6.221  29.369  0.00  0.00    +0.190 C 
BRANCH  67  68
ATOM     68  O   UNL     1       3.895  -7.598  29.046  0.00  0.00    -0.392 OA
ATOM     69  H   UNL     1       3.957  -7.655  28.073  0.00  0.00    +0.210 HD
ENDBRANCH  67  68
ENDBRANCH  43  67
ENDBRANCH  40  41
ENDBRANCH   7  40
TORSDOF 24
ENDMDL
MODEL 5
REMARK VINA RESULT:      -6.5      2.123      5.642
REMARK  Name = 
REMARK  24 active torsions:
REMARK  status: ('A' for Active; 'I' for Inactive)
REMARK    1  A    between atoms: C_3  and  O_63
REMARK    2  A    between atoms: C_4  and  O_62
REMARK    3  A    between atoms: C_6  and  C_7
REMARK    4  A    between atoms: C_8  and  O_48
REMARK    5  A    between atoms: C_12  and  O_47
REMARK    6  A    between atoms: C_14  and  O_18
REMARK    7  A    between atoms: O_18  and  C_19
REMARK    8  A    between atoms: C_21  and  O_32
REMARK    9  A    between atoms: C_22  and  O_31
REMARK   10  A    between atoms: C_24  and  O_30
REMARK   11  A    between atoms: C_26  and  C_28
REMARK   12  A    between atoms: C_28  and  O_29
REMARK   13  A    between atoms: O_32  and  C_33
REMARK   14  A    between atoms: C_35  and  O_46
REMARK   15  A    between atoms: C_36  and  O_45
REMARK   16  A    between atoms: C_38  and  O_44
REMARK   17  A    between atoms: C_40  and  C_42
REMARK   18  A    between atoms: C_42  and  O_43
REMARK   19  A    between atoms: O_48  and  C_49
REMARK   20  A    between atoms: C_51  and  O_61
REMARK   21  A    between atoms: C_52  and  O_60
REMARK   22  A    between atoms: C_53  and  O_59
REMARK   23  A    between atoms: C_55  and  C_57
REMARK   24  A    between atoms: C_57  and  O_58
REMARK                            x       y       z     vdW  Elec       q    Type
REMARK                         _______ _______ _______ _____ _____    ______ ____
ROOT
ATOM      1  C   UNL     1       5.677  -2.777  25.544  0.00  0.00    +0.181 A 
ATOM      2  O   UNL     1       5.713  -1.597  24.798  0.00  0.00    -0.451 OA
ATOM      3  C   UNL     1       5.314  -0.415  25.360  0.00  0.00    +0.147 A 
ATOM      4  C   UNL     1       4.882  -0.334  26.672  0.00  0.00    +0.109 A 
ATOM      5  C   UNL     1       4.401   0.889  27.145  0.00  0.00    +0.135 A 
ATOM      6  C   UNL     1       4.445   2.032  26.341  0.00  0.00    +0.092 A 
ATOM      7  C   UNL     1       5.095   1.992  25.109  0.00  0.00    +0.131 A 
ATOM      8  C   UNL     1       5.028  -1.532  27.532  0.00  0.00    +0.238 A 
ATOM      9  O   UNL     1       4.891  -1.444  28.745  0.00  0.00    -0.283 OA
ATOM     10  C   UNL     1       5.429   0.742  24.578  0.00  0.00    +0.093 A 
ATOM     11  C   UNL     1       5.404  -2.826  26.867  0.00  0.00    +0.214 A 
ENDROOT
BRANCH   1  13
ATOM     12  C   UNL     1       7.458  -4.432  24.816  0.00  0.00    +0.015 A 
ATOM     13  C   UNL     1       6.137  -3.963  24.770  0.00  0.00    +0.025 A 
ATOM     14  C   UNL     1       5.263  -4.566  23.848  0.00  0.00    +0.060 A 
ATOM     15  C   UNL     1       5.763  -5.436  22.888  0.00  0.00    +0.159 A 
ATOM     16  C   UNL     1       7.125  -5.707  22.813  0.00  0.00    +0.158 A 
ATOM     17  C   UNL     1       7.982  -5.247  23.802  0.00  0.00    +0.050 A 
BRANCH  16  18
ATOM     18  O   UNL     1       7.593  -6.404  21.739  0.00  0.00    -0.503 OA
ATOM     19  H   UNL     1       8.543  -6.567  21.885  0.00  0.00    +0.292 HD
ENDBRANCH  16  18
BRANCH  15  20
ATOM     20  O   UNL     1       4.895  -5.975  21.969  0.00  0.00    -0.503 OA
ATOM     21  H   UNL     1       4.065  -5.468  22.127  0.00  0.00    +0.292 HD
ENDBRANCH  15  20
ENDBRANCH   1  13
BRANCH   5  22
ATOM     22  O   UNL     1       3.923   1.079  28.403  0.00  0.00    -0.506 OA
ATOM     23  H   UNL     1       4.031   0.242  28.914  0.00  0.00    +0.292 HD
ENDBRANCH   5  22
BRANCH  11  24
ATOM     24  O   UNL     1       5.206  -4.007  27.557  0.00  0.00    -0.453 OA
BRANCH  24  25
ATOM     25  C   UNL     1       4.079  -4.881  27.342  0.00  0.00    +0.340 C 
ATOM     26  O   UNL     1       3.046  -4.686  28.335  0.00  0.00    -0.331 OA
ATOM     27  C   UNL     1       3.251  -5.188  29.688  0.00  0.00    +0.179 C 
ATOM     28  C   UNL     1       4.337  -6.260  29.938  0.00  0.00    +0.177 C 
ATOM     29  C   UNL     1       5.325  -6.422  28.790  0.00  0.00    +0.180 C 
ATOM     30  C   UNL     1       4.543  -6.343  27.467  0.00  0.00    +0.214 C 
BRANCH  30  31
ATOM     31  O   UNL     1       5.328  -6.830  26.382  0.00  0.00    -0.383 OA
ATOM     32  H   UNL     1       5.271  -7.809  26.353  0.00  0.00    +0.210 HD
ENDBRANCH  30  31
BRANCH  29  33
ATOM     33  O   UNL     1       6.008  -7.670  28.960  0.00  0.00    -0.386 OA
ATOM     34  H   UNL     1       6.500  -7.819  28.125  0.00  0.00    +0.210 HD
ENDBRANCH  29  33
BRANCH  28  35
ATOM     35  O   UNL     1       3.755  -7.553  30.189  0.00  0.00    -0.386 OA
ATOM     36  H   UNL     1       4.080  -8.112  29.450  0.00  0.00    +0.210 HD
ENDBRANCH  28  35
BRANCH  27  37
ATOM     37  C   UNL     1       1.869  -5.665  30.188  0.00  0.00    +0.190 C 
BRANCH  37  38
ATOM     38  O   UNL     1       1.221  -6.415  29.156  0.00  0.00    -0.392 OA
ATOM     39  H   UNL     1       0.837  -7.188  29.614  0.00  0.00    +0.210 HD
ENDBRANCH  37  38
ENDBRANCH  27  37
ENDBRANCH  24  25
ENDBRANCH  11  24
BRANCH   7  40
ATOM     40  O   UNL     1       5.520   3.072  24.377  0.00  0.00    -0.461 OA
BRANCH  40  41
ATOM     41  C   UNL     1       6.548   3.912  24.924  0.00  0.00    +0.340 C 
ATOM     42  O   UNL     1       6.154   5.287  24.765  0.00  0.00    -0.331 OA
ATOM     43  C   UNL     1       6.314   5.752  23.414  0.00  0.00    +0.179 C 
ATOM     44  C   UNL     1       7.817   5.783  23.098  0.00  0.00    +0.177 C 
ATOM     45  C   UNL     1       8.311   4.327  23.064  0.00  0.00    +0.180 C 
ATOM     46  C   UNL     1       8.003   3.603  24.393  0.00  0.00    +0.221 C 
BRANCH  45  47
ATOM     47  O   UNL     1       7.741   3.650  21.943  0.00  0.00    -0.386 OA
ATOM     48  H   UNL     1       6.777   3.810  21.948  0.00  0.00    +0.210 HD
ENDBRANCH  45  47
BRANCH  44  49
ATOM     49  O   UNL     1       8.525   6.515  24.108  0.00  0.00    -0.386 OA
ATOM     50  H   UNL     1       9.258   5.960  24.431  0.00  0.00    +0.210 HD
ENDBRANCH  44  49
BRANCH  46  51
ATOM     51  O   UNL     1       8.347   2.172  24.382  0.00  0.00    -0.337 OA
BRANCH  51  52
ATOM     52  C   UNL     1       9.060   1.696  23.196  0.00  0.00    +0.282 C 
ATOM     53  O   UNL     1       8.398   0.560  22.578  0.00  0.00    -0.341 OA
ATOM     54  C   UNL     1       8.492  -0.717  23.251  0.00  0.00    +0.178 C 
ATOM     55  C   UNL     1       9.905  -1.067  23.791  0.00  0.00    +0.177 C 
ATOM     56  C   UNL     1      10.540   0.143  24.468  0.00  0.00    +0.179 C 
ATOM     57  C   UNL     1      10.531   1.303  23.453  0.00  0.00    +0.201 C 
BRANCH  57  58
ATOM     58  O   UNL     1      11.360   2.392  23.864  0.00  0.00    -0.384 OA
ATOM     59  H   UNL     1      11.438   3.001  23.106  0.00  0.00    +0.210 HD
ENDBRANCH  57  58
BRANCH  56  60
ATOM     60  O   UNL     1       9.847   0.437  25.690  0.00  0.00    -0.386 OA
ATOM     61  H   UNL     1       9.118   1.063  25.494  0.00  0.00    +0.210 HD
ENDBRANCH  56  60
BRANCH  55  62
ATOM     62  O   UNL     1      10.775  -1.504  22.737  0.00  0.00    -0.386 OA
ATOM     63  H   UNL     1      11.532  -1.967  23.140  0.00  0.00    +0.210 HD
ENDBRANCH  55  62
BRANCH  54  64
ATOM     64  C   UNL     1       8.031  -1.877  22.325  0.00  0.00    +0.190 C 
BRANCH  64  65
ATOM     65  O   UNL     1       6.623  -1.942  22.128  0.00  0.00    -0.392 OA
ATOM     66  H   UNL     1       6.361  -2.877  22.097  0.00  0.00    +0.210 HD
ENDBRANCH  64  65
ENDBRANCH  54  64
ENDBRANCH  51  52
ENDBRANCH  46  51
BRANCH  43  67
ATOM     67  C   UNL     1       5.608   7.108  23.263  0.00  0.00    +0.190 C 
BRANCH  67  68
ATOM     68  O   UNL     1       4.519   7.088  22.350  0.00  0.00    -0.392 OA
ATOM     69  H   UNL     1       4.571   7.925  21.849  0.00  0.00    +0.210 HD
ENDBRANCH  67  68
ENDBRANCH  43  67
ENDBRANCH  40  41
ENDBRANCH   7  40
TORSDOF 24
ENDMDL
MODEL 6
REMARK VINA RESULT:      -6.5      2.121     10.154
REMARK  Name = 
REMARK  24 active torsions:
REMARK  status: ('A' for Active; 'I' for Inactive)
REMARK    1  A    between atoms: C_3  and  O_63
REMARK    2  A    between atoms: C_4  and  O_62
REMARK    3  A    between atoms: C_6  and  C_7
REMARK    4  A    between atoms: C_8  and  O_48
REMARK    5  A    between atoms: C_12  and  O_47
REMARK    6  A    between atoms: C_14  and  O_18
REMARK    7  A    between atoms: O_18  and  C_19
REMARK    8  A    between atoms: C_21  and  O_32
REMARK    9  A    between atoms: C_22  and  O_31
REMARK   10  A    between atoms: C_24  and  O_30
REMARK   11  A    between atoms: C_26  and  C_28
REMARK   12  A    between atoms: C_28  and  O_29
REMARK   13  A    between atoms: O_32  and  C_33
REMARK   14  A    between atoms: C_35  and  O_46
REMARK   15  A    between atoms: C_36  and  O_45
REMARK   16  A    between atoms: C_38  and  O_44
REMARK   17  A    between atoms: C_40  and  C_42
REMARK   18  A    between atoms: C_42  and  O_43
REMARK   19  A    between atoms: O_48  and  C_49
REMARK   20  A    between atoms: C_51  and  O_61
REMARK   21  A    between atoms: C_52  and  O_60
REMARK   22  A    between atoms: C_53  and  O_59
REMARK   23  A    between atoms: C_55  and  C_57
REMARK   24  A    between atoms: C_57  and  O_58
REMARK                            x       y       z     vdW  Elec       q    Type
REMARK                         _______ _______ _______ _____ _____    ______ ____
ROOT
ATOM      1  C   UNL     1       5.945  -0.838  25.167  0.00  0.00    +0.181 A 
ATOM      2  O   UNL     1       4.875  -1.734  25.128  0.00  0.00    -0.451 OA
ATOM      3  C   UNL     1       4.926  -2.832  24.313  0.00  0.00    +0.147 A 
ATOM      4  C   UNL     1       6.025  -3.106  23.518  0.00  0.00    +0.109 A 
ATOM      5  C   UNL     1       5.964  -4.193  22.642  0.00  0.00    +0.135 A 
ATOM      6  C   UNL     1       4.855  -5.044  22.636  0.00  0.00    +0.092 A 
ATOM      7  C   UNL     1       3.859  -4.897  23.601  0.00  0.00    +0.131 A 
ATOM      8  C   UNL     1       7.241  -2.280  23.697  0.00  0.00    +0.238 A 
ATOM      9  O   UNL     1       8.305  -2.628  23.202  0.00  0.00    -0.283 OA
ATOM     10  C   UNL     1       3.847  -3.724  24.364  0.00  0.00    +0.093 A 
ATOM     11  C   UNL     1       7.128  -1.046  24.547  0.00  0.00    +0.214 A 
ENDROOT
BRANCH   1  13
ATOM     12  C   UNL     1       4.627   1.178  25.968  0.00  0.00    +0.015 A 
ATOM     13  C   UNL     1       5.711   0.298  26.100  0.00  0.00    +0.025 A 
ATOM     14  C   UNL     1       6.678   0.599  27.077  0.00  0.00    +0.060 A 
ATOM     15  C   UNL     1       6.653   1.829  27.721  0.00  0.00    +0.159 A 
ATOM     16  C   UNL     1       5.691   2.780  27.399  0.00  0.00    +0.158 A 
ATOM     17  C   UNL     1       4.640   2.452  26.555  0.00  0.00    +0.050 A 
BRANCH  16  18
ATOM     18  O   UNL     1       5.822   4.038  27.908  0.00  0.00    -0.503 OA
ATOM     19  H   UNL     1       4.964   4.290  28.296  0.00  0.00    +0.292 HD
ENDBRANCH  16  18
BRANCH  15  20
ATOM     20  O   UNL     1       7.636   2.116  28.636  0.00  0.00    -0.503 OA
ATOM     21  H   UNL     1       7.127   2.272  29.465  0.00  0.00    +0.292 HD
ENDBRANCH  15  20
ENDBRANCH   1  13
BRANCH   5  22
ATOM     22  O   UNL     1       6.968  -4.538  21.793  0.00  0.00    -0.506 OA
ATOM     23  H   UNL     1       7.365  -5.387  22.098  0.00  0.00    +0.292 HD
ENDBRANCH   5  22
BRANCH  11  24
ATOM     24  O   UNL     1       8.113  -0.083  24.452  0.00  0.00    -0.453 OA
BRANCH  24  25
ATOM     25  C   UNL     1       8.585   0.460  23.201  0.00  0.00    +0.340 C 
ATOM     26  O   UNL     1       9.907   1.033  23.324  0.00  0.00    -0.331 OA
ATOM     27  C   UNL     1      10.073   2.310  24.008  0.00  0.00    +0.179 C 
ATOM     28  C   UNL     1       8.841   3.222  24.211  0.00  0.00    +0.177 C 
ATOM     29  C   UNL     1       7.506   2.522  23.985  0.00  0.00    +0.180 C 
ATOM     30  C   UNL     1       7.649   1.599  22.761  0.00  0.00    +0.214 C 
BRANCH  30  31
ATOM     31  O   UNL     1       6.371   1.189  22.282  0.00  0.00    -0.383 OA
ATOM     32  H   UNL     1       5.730   1.923  22.396  0.00  0.00    +0.210 HD
ENDBRANCH  30  31
BRANCH  29  33
ATOM     33  O   UNL     1       6.498   3.524  23.813  0.00  0.00    -0.386 OA
ATOM     34  H   UNL     1       5.902   3.436  24.586  0.00  0.00    +0.210 HD
ENDBRANCH  29  33
BRANCH  28  35
ATOM     35  O   UNL     1       8.879   4.365  23.338  0.00  0.00    -0.386 OA
ATOM     36  H   UNL     1       8.217   4.160  22.642  0.00  0.00    +0.210 HD
ENDBRANCH  28  35
BRANCH  27  37
ATOM     37  C   UNL     1      11.203   3.056  23.265  0.00  0.00    +0.190 C 
BRANCH  37  38
ATOM     38  O   UNL     1      10.987   2.966  21.854  0.00  0.00    -0.392 OA
ATOM     39  H   UNL     1      11.829   2.624  21.494  0.00  0.00    +0.210 HD
ENDBRANCH  37  38
ENDBRANCH  27  37
ENDBRANCH  24  25
ENDBRANCH  11  24
BRANCH   7  40
ATOM     40  O   UNL     1       2.913  -5.829  23.944  0.00  0.00    -0.461 OA
BRANCH  40  41
ATOM     41  C   UNL     1       3.349  -7.142  24.325  0.00  0.00    +0.340 C 
ATOM     42  O   UNL     1       2.664  -8.111  23.509  0.00  0.00    -0.331 OA
ATOM     43  C   UNL     1       1.299  -8.306  23.916  0.00  0.00    +0.179 C 
ATOM     44  C   UNL     1       1.308  -8.965  25.304  0.00  0.00    +0.177 C 
ATOM     45  C   UNL     1       1.862  -7.933  26.301  0.00  0.00    +0.180 C 
ATOM     46  C   UNL     1       3.262  -7.442  25.873  0.00  0.00    +0.221 C 
BRANCH  45  47
ATOM     47  O   UNL     1       0.938  -6.853  26.442  0.00  0.00    -0.386 OA
ATOM     48  H   UNL     1       0.942  -6.567  27.376  0.00  0.00    +0.210 HD
ENDBRANCH  45  47
BRANCH  44  49
ATOM     49  O   UNL     1       2.139 -10.133  25.298  0.00  0.00    -0.386 OA
ATOM     50  H   UNL     1       2.081 -10.545  24.417  0.00  0.00    +0.210 HD
ENDBRANCH  44  49
BRANCH  46  51
ATOM     51  O   UNL     1       3.799  -6.367  26.723  0.00  0.00    -0.337 OA
BRANCH  51  52
ATOM     52  C   UNL     1       2.939  -5.937  27.827  0.00  0.00    +0.282 C 
ATOM     53  O   UNL     1       2.530  -4.549  27.693  0.00  0.00    -0.341 OA
ATOM     54  C   UNL     1       3.521  -3.529  27.956  0.00  0.00    +0.178 C 
ATOM     55  C   UNL     1       4.394  -3.779  29.216  0.00  0.00    +0.177 C 
ATOM     56  C   UNL     1       4.835  -5.237  29.290  0.00  0.00    +0.179 C 
ATOM     57  C   UNL     1       3.567  -6.110  29.228  0.00  0.00    +0.201 C 
BRANCH  57  58
ATOM     58  O   UNL     1       3.825  -7.471  29.583  0.00  0.00    -0.384 OA
ATOM     59  H   UNL     1       4.243  -7.898  28.812  0.00  0.00    +0.210 HD
ENDBRANCH  57  58
BRANCH  56  60
ATOM     60  O   UNL     1       5.780  -5.512  28.246  0.00  0.00    -0.386 OA
ATOM     61  H   UNL     1       6.338  -6.271  28.520  0.00  0.00    +0.210 HD
ENDBRANCH  56  60
BRANCH  55  62
ATOM     62  O   UNL     1       3.679  -3.461  30.420  0.00  0.00    -0.386 OA
ATOM     63  H   UNL     1       4.236  -3.711  31.179  0.00  0.00    +0.210 HD
ENDBRANCH  55  62
BRANCH  54  64
ATOM     64  C   UNL     1       2.865  -2.128  28.096  0.00  0.00    +0.190 C 
BRANCH  64  65
ATOM     65  O   UNL     1       2.563  -1.498  26.856  0.00  0.00    -0.392 OA
ATOM     66  H   UNL     1       3.101  -1.916  26.162  0.00  0.00    +0.210 HD
ENDBRANCH  64  65
ENDBRANCH  54  64
ENDBRANCH  51  52
ENDBRANCH  46  51
BRANCH  43  67
ATOM     67  C   UNL     1       0.564  -9.114  22.838  0.00  0.00    +0.190 C 
BRANCH  67  68
ATOM     68  O   UNL     1       1.107  -8.955  21.533  0.00  0.00    -0.392 OA
ATOM     69  H   UNL     1       0.681  -8.160  21.158  0.00  0.00    +0.210 HD
ENDBRANCH  67  68
ENDBRANCH  43  67
ENDBRANCH  40  41
ENDBRANCH   7  40
TORSDOF 24
ENDMDL
MODEL 7
REMARK VINA RESULT:      -6.4      2.339      4.911
REMARK  Name = 
REMARK  24 active torsions:
REMARK  status: ('A' for Active; 'I' for Inactive)
REMARK    1  A    between atoms: C_3  and  O_63
REMARK    2  A    between atoms: C_4  and  O_62
REMARK    3  A    between atoms: C_6  and  C_7
REMARK    4  A    between atoms: C_8  and  O_48
REMARK    5  A    between atoms: C_12  and  O_47
REMARK    6  A    between atoms: C_14  and  O_18
REMARK    7  A    between atoms: O_18  and  C_19
REMARK    8  A    between atoms: C_21  and  O_32
REMARK    9  A    between atoms: C_22  and  O_31
REMARK   10  A    between atoms: C_24  and  O_30
REMARK   11  A    between atoms: C_26  and  C_28
REMARK   12  A    between atoms: C_28  and  O_29
REMARK   13  A    between atoms: O_32  and  C_33
REMARK   14  A    between atoms: C_35  and  O_46
REMARK   15  A    between atoms: C_36  and  O_45
REMARK   16  A    between atoms: C_38  and  O_44
REMARK   17  A    between atoms: C_40  and  C_42
REMARK   18  A    between atoms: C_42  and  O_43
REMARK   19  A    between atoms: O_48  and  C_49
REMARK   20  A    between atoms: C_51  and  O_61
REMARK   21  A    between atoms: C_52  and  O_60
REMARK   22  A    between atoms: C_53  and  O_59
REMARK   23  A    between atoms: C_55  and  C_57
REMARK   24  A    between atoms: C_57  and  O_58
REMARK                            x       y       z     vdW  Elec       q    Type
REMARK                         _______ _______ _______ _____ _____    ______ ____
ROOT
ATOM      1  C   UNL     1       6.041  -1.893  26.433  0.00  0.00    +0.181 A 
ATOM      2  O   UNL     1       6.403  -0.549  26.545  0.00  0.00    -0.451 OA
ATOM      3  C   UNL     1       5.442   0.412  26.706  0.00  0.00    +0.147 A 
ATOM      4  C   UNL     1       4.096   0.099  26.781  0.00  0.00    +0.109 A 
ATOM      5  C   UNL     1       3.169   1.142  26.850  0.00  0.00    +0.135 A 
ATOM      6  C   UNL     1       3.595   2.471  26.940  0.00  0.00    +0.092 A 
ATOM      7  C   UNL     1       4.950   2.759  27.101  0.00  0.00    +0.131 A 
ATOM      8  C   UNL     1       3.713  -1.329  26.865  0.00  0.00    +0.238 A 
ATOM      9  O   UNL     1       2.572  -1.647  27.173  0.00  0.00    -0.283 OA
ATOM     10  C   UNL     1       5.875   1.734  26.872  0.00  0.00    +0.093 A 
ATOM     11  C   UNL     1       4.783  -2.354  26.617  0.00  0.00    +0.214 A 
ENDROOT
BRANCH   1  13
ATOM     12  C   UNL     1       8.163  -2.609  25.238  0.00  0.00    +0.015 A 
ATOM     13  C   UNL     1       7.213  -2.793  26.254  0.00  0.00    +0.025 A 
ATOM     14  C   UNL     1       7.316  -3.956  27.038  0.00  0.00    +0.060 A 
ATOM     15  C   UNL     1       8.194  -4.967  26.667  0.00  0.00    +0.159 A 
ATOM     16  C   UNL     1       8.963  -4.852  25.515  0.00  0.00    +0.158 A 
ATOM     17  C   UNL     1       8.993  -3.656  24.812  0.00  0.00    +0.050 A 
BRANCH  16  18
ATOM     18  O   UNL     1       9.659  -5.943  25.084  0.00  0.00    -0.503 OA
ATOM     19  H   UNL     1      10.278  -6.197  25.792  0.00  0.00    +0.292 HD
ENDBRANCH  16  18
BRANCH  15  20
ATOM     20  O   UNL     1       8.240  -6.112  27.423  0.00  0.00    -0.503 OA
ATOM     21  H   UNL     1       7.409  -6.062  27.950  0.00  0.00    +0.292 HD
ENDBRANCH  15  20
ENDBRANCH   1  13
BRANCH   5  22
ATOM     22  O   UNL     1       1.824   0.957  26.895  0.00  0.00    -0.506 OA
ATOM     23  H   UNL     1       1.560   0.357  26.157  0.00  0.00    +0.292 HD
ENDBRANCH   5  22
BRANCH  11  24
ATOM     24  O   UNL     1       4.405  -3.654  26.340  0.00  0.00    -0.453 OA
BRANCH  24  25
ATOM     25  C   UNL     1       3.488  -4.013  25.285  0.00  0.00    +0.340 C 
ATOM     26  O   UNL     1       2.677  -5.157  25.641  0.00  0.00    -0.331 OA
ATOM     27  C   UNL     1       3.278  -6.485  25.651  0.00  0.00    +0.179 C 
ATOM     28  C   UNL     1       4.607  -6.717  24.896  0.00  0.00    +0.177 C 
ATOM     29  C   UNL     1       5.335  -5.434  24.514  0.00  0.00    +0.180 C 
ATOM     30  C   UNL     1       4.289  -4.412  24.034  0.00  0.00    +0.214 C 
BRANCH  30  31
ATOM     31  O   UNL     1       4.913  -3.335  23.339  0.00  0.00    -0.383 OA
ATOM     32  H   UNL     1       4.941  -2.546  23.921  0.00  0.00    +0.210 HD
ENDBRANCH  30  31
BRANCH  29  33
ATOM     33  O   UNL     1       6.305  -5.753  23.508  0.00  0.00    -0.386 OA
ATOM     34  H   UNL     1       6.567  -6.682  23.678  0.00  0.00    +0.210 HD
ENDBRANCH  29  33
BRANCH  28  35
ATOM     35  O   UNL     1       4.404  -7.472  23.687  0.00  0.00    -0.386 OA
ATOM     36  H   UNL     1       4.158  -8.369  24.001  0.00  0.00    +0.210 HD
ENDBRANCH  28  35
BRANCH  27  37
ATOM     37  C   UNL     1       2.182  -7.460  25.165  0.00  0.00    +0.190 C 
BRANCH  37  38
ATOM     38  O   UNL     1       2.657  -8.805  25.276  0.00  0.00    -0.392 OA
ATOM     39  H   UNL     1       2.057  -9.328  24.709  0.00  0.00    +0.210 HD
ENDBRANCH  37  38
ENDBRANCH  27  37
ENDBRANCH  24  25
ENDBRANCH  11  24
BRANCH   7  40
ATOM     40  O   UNL     1       5.484   3.943  27.539  0.00  0.00    -0.461 OA
BRANCH  40  41
ATOM     41  C   UNL     1       6.884   4.185  27.332  0.00  0.00    +0.340 C 
ATOM     42  O   UNL     1       7.430   4.786  28.521  0.00  0.00    -0.331 OA
ATOM     43  C   UNL     1       7.077   6.174  28.646  0.00  0.00    +0.179 C 
ATOM     44  C   UNL     1       7.776   6.945  27.516  0.00  0.00    +0.177 C 
ATOM     45  C   UNL     1       7.132   6.503  26.191  0.00  0.00    +0.180 C 
ATOM     46  C   UNL     1       7.228   4.973  26.008  0.00  0.00    +0.221 C 
BRANCH  45  47
ATOM     47  O   UNL     1       5.781   6.965  26.133  0.00  0.00    -0.386 OA
ATOM     48  H   UNL     1       5.448   6.821  25.227  0.00  0.00    +0.210 HD
ENDBRANCH  45  47
BRANCH  44  49
ATOM     49  O   UNL     1       9.178   6.646  27.500  0.00  0.00    -0.386 OA
ATOM     50  H   UNL     1       9.379   6.161  26.680  0.00  0.00    +0.210 HD
ENDBRANCH  44  49
BRANCH  46  51
ATOM     51  O   UNL     1       6.527   4.474  24.813  0.00  0.00    -0.337 OA
BRANCH  51  52
ATOM     52  C   UNL     1       6.726   3.057  24.503  0.00  0.00    +0.282 C 
ATOM     53  O   UNL     1       8.129   2.730  24.312  0.00  0.00    -0.341 OA
ATOM     54  C   UNL     1       8.760   3.174  23.088  0.00  0.00    +0.178 C 
ATOM     55  C   UNL     1       7.914   2.960  21.804  0.00  0.00    +0.177 C 
ATOM     56  C   UNL     1       6.461   3.358  22.041  0.00  0.00    +0.179 C 
ATOM     57  C   UNL     1       5.953   2.563  23.260  0.00  0.00    +0.201 C 
BRANCH  57  58
ATOM     58  O   UNL     1       4.531   2.627  23.398  0.00  0.00    -0.384 OA
ATOM     59  H   UNL     1       4.298   3.558  23.574  0.00  0.00    +0.210 HD
ENDBRANCH  57  58
BRANCH  56  60
ATOM     60  O   UNL     1       6.365   4.782  22.196  0.00  0.00    -0.386 OA
ATOM     61  H   UNL     1       5.953   5.158  21.389  0.00  0.00    +0.210 HD
ENDBRANCH  56  60
BRANCH  55  62
ATOM     62  O   UNL     1       7.944   1.590  21.379  0.00  0.00    -0.386 OA
ATOM     63  H   UNL     1       8.833   1.400  21.030  0.00  0.00    +0.210 HD
ENDBRANCH  55  62
BRANCH  54  64
ATOM     64  C   UNL     1      10.134   2.479  22.879  0.00  0.00    +0.190 C 
BRANCH  64  65
ATOM     65  O   UNL     1      10.533   2.373  21.517  0.00  0.00    -0.392 OA
ATOM     66  H   UNL     1      11.062   3.156  21.291  0.00  0.00    +0.210 HD
ENDBRANCH  64  65
ENDBRANCH  54  64
ENDBRANCH  51  52
ENDBRANCH  46  51
BRANCH  43  67
ATOM     67  C   UNL     1       7.439   6.658  30.058  0.00  0.00    +0.190 C 
BRANCH  67  68
ATOM     68  O   UNL     1       8.739   6.269  30.482  0.00  0.00    -0.392 OA
ATOM     69  H   UNL     1       9.345   6.968  30.171  0.00  0.00    +0.210 HD
ENDBRANCH  67  68
ENDBRANCH  43  67
ENDBRANCH  40  41
ENDBRANCH   7  40
TORSDOF 24
ENDMDL
MODEL 8
REMARK VINA RESULT:      -6.4      2.107      5.582
REMARK  Name = 
REMARK  24 active torsions:
REMARK  status: ('A' for Active; 'I' for Inactive)
REMARK    1  A    between atoms: C_3  and  O_63
REMARK    2  A    between atoms: C_4  and  O_62
REMARK    3  A    between atoms: C_6  and  C_7
REMARK    4  A    between atoms: C_8  and  O_48
REMARK    5  A    between atoms: C_12  and  O_47
REMARK    6  A    between atoms: C_14  and  O_18
REMARK    7  A    between atoms: O_18  and  C_19
REMARK    8  A    between atoms: C_21  and  O_32
REMARK    9  A    between atoms: C_22  and  O_31
REMARK   10  A    between atoms: C_24  and  O_30
REMARK   11  A    between atoms: C_26  and  C_28
REMARK   12  A    between atoms: C_28  and  O_29
REMARK   13  A    between atoms: O_32  and  C_33
REMARK   14  A    between atoms: C_35  and  O_46
REMARK   15  A    between atoms: C_36  and  O_45
REMARK   16  A    between atoms: C_38  and  O_44
REMARK   17  A    between atoms: C_40  and  C_42
REMARK   18  A    between atoms: C_42  and  O_43
REMARK   19  A    between atoms: O_48  and  C_49
REMARK   20  A    between atoms: C_51  and  O_61
REMARK   21  A    between atoms: C_52  and  O_60
REMARK   22  A    between atoms: C_53  and  O_59
REMARK   23  A    between atoms: C_55  and  C_57
REMARK   24  A    between atoms: C_57  and  O_58
REMARK                            x       y       z     vdW  Elec       q    Type
REMARK                         _______ _______ _______ _____ _____    ______ ____
ROOT
ATOM      1  C   UNL     1       4.627  -2.203  26.113  0.00  0.00    +0.181 A 
ATOM      2  O   UNL     1       5.145  -1.146  25.363  0.00  0.00    -0.451 OA
ATOM      3  C   UNL     1       5.151   0.123  25.876  0.00  0.00    +0.147 A 
ATOM      4  C   UNL     1       4.669   0.407  27.141  0.00  0.00    +0.109 A 
ATOM      5  C   UNL     1       4.621   1.739  27.557  0.00  0.00    +0.135 A 
ATOM      6  C   UNL     1       5.138   2.758  26.750  0.00  0.00    +0.092 A 
ATOM      7  C   UNL     1       5.832   2.438  25.584  0.00  0.00    +0.131 A 
ATOM      8  C   UNL     1       4.303  -0.728  28.021  0.00  0.00    +0.238 A 
ATOM      9  O   UNL     1       4.106  -0.547  29.215  0.00  0.00    -0.283 OA
ATOM     10  C   UNL     1       5.738   1.130  25.098  0.00  0.00    +0.093 A 
ATOM     11  C   UNL     1       4.244  -2.097  27.405  0.00  0.00    +0.214 A 
ENDROOT
BRANCH   1  13
ATOM     12  C   UNL     1       5.854  -4.295  25.362  0.00  0.00    +0.015 A 
ATOM     13  C   UNL     1       4.694  -3.507  25.395  0.00  0.00    +0.025 A 
ATOM     14  C   UNL     1       3.607  -3.914  24.603  0.00  0.00    +0.060 A 
ATOM     15  C   UNL     1       3.772  -4.932  23.672  0.00  0.00    +0.159 A 
ATOM     16  C   UNL     1       5.008  -5.545  23.500  0.00  0.00    +0.158 A 
ATOM     17  C   UNL     1       6.051  -5.268  24.372  0.00  0.00    +0.050 A 
BRANCH  16  18
ATOM     18  O   UNL     1       5.174  -6.394  22.446  0.00  0.00    -0.503 OA
ATOM     19  H   UNL     1       4.410  -6.280  21.852  0.00  0.00    +0.292 HD
ENDBRANCH  16  18
BRANCH  15  20
ATOM     20  O   UNL     1       2.707  -5.279  22.876  0.00  0.00    -0.503 OA
ATOM     21  H   UNL     1       2.100  -4.509  22.975  0.00  0.00    +0.292 HD
ENDBRANCH  15  20
ENDBRANCH   1  13
BRANCH   5  22
ATOM     22  O   UNL     1       4.139   2.139  28.763  0.00  0.00    -0.506 OA
ATOM     23  H   UNL     1       3.252   1.730  28.902  0.00  0.00    +0.292 HD
ENDBRANCH   5  22
BRANCH  11  24
ATOM     24  O   UNL     1       3.580  -3.101  28.084  0.00  0.00    -0.453 OA
BRANCH  24  25
ATOM     25  C   UNL     1       4.110  -3.767  29.249  0.00  0.00    +0.340 C 
ATOM     26  O   UNL     1       5.288  -4.547  28.937  0.00  0.00    -0.331 OA
ATOM     27  C   UNL     1       5.142  -5.804  28.213  0.00  0.00    +0.179 C 
ATOM     28  C   UNL     1       3.756  -6.488  28.162  0.00  0.00    +0.177 C 
ATOM     29  C   UNL     1       2.602  -5.584  28.580  0.00  0.00    +0.180 C 
ATOM     30  C   UNL     1       3.058  -4.750  29.790  0.00  0.00    +0.214 C 
BRANCH  30  31
ATOM     31  O   UNL     1       1.943  -4.152  30.445  0.00  0.00    -0.383 OA
ATOM     32  H   UNL     1       1.175  -4.761  30.399  0.00  0.00    +0.210 HD
ENDBRANCH  30  31
BRANCH  29  33
ATOM     33  O   UNL     1       1.468  -6.410  28.868  0.00  0.00    -0.386 OA
ATOM     34  H   UNL     1       1.138  -6.111  29.741  0.00  0.00    +0.210 HD
ENDBRANCH  29  33
BRANCH  28  35
ATOM     35  O   UNL     1       3.711  -7.657  29.001  0.00  0.00    -0.386 OA
ATOM     36  H   UNL     1       3.696  -8.408  28.368  0.00  0.00    +0.210 HD
ENDBRANCH  28  35
BRANCH  27  37
ATOM     37  C   UNL     1       6.215  -6.759  28.783  0.00  0.00    +0.190 C 
BRANCH  37  38
ATOM     38  O   UNL     1       7.496  -6.407  28.254  0.00  0.00    -0.392 OA
ATOM     39  H   UNL     1       7.578  -5.447  28.415  0.00  0.00    +0.210 HD
ENDBRANCH  37  38
ENDBRANCH  27  37
ENDBRANCH  24  25
ENDBRANCH  11  24
BRANCH   7  40
ATOM     40  O   UNL     1       6.675   3.264  24.886  0.00  0.00    -0.461 OA
BRANCH  40  41
ATOM     41  C   UNL     1       8.076   3.240  25.198  0.00  0.00    +0.340 C 
ATOM     42  O   UNL     1       8.526   4.591  25.409  0.00  0.00    -0.331 OA
ATOM     43  C   UNL     1       8.681   5.317  24.178  0.00  0.00    +0.179 C 
ATOM     44  C   UNL     1       9.842   4.684  23.397  0.00  0.00    +0.177 C 
ATOM     45  C   UNL     1       9.392   3.279  22.960  0.00  0.00    +0.180 C 
ATOM     46  C   UNL     1       8.965   2.428  24.176  0.00  0.00    +0.221 C 
BRANCH  45  47
ATOM     47  O   UNL     1       8.348   3.387  21.991  0.00  0.00    -0.386 OA
ATOM     48  H   UNL     1       8.533   2.754  21.271  0.00  0.00    +0.210 HD
ENDBRANCH  45  47
BRANCH  44  49
ATOM     49  O   UNL     1      11.008   4.586  24.226  0.00  0.00    -0.386 OA
ATOM     50  H   UNL     1      11.343   5.486  24.391  0.00  0.00    +0.210 HD
ENDBRANCH  44  49
BRANCH  46  51
ATOM     51  O   UNL     1       8.414   1.112  23.814  0.00  0.00    -0.337 OA
BRANCH  51  52
ATOM     52  C   UNL     1       9.351   0.177  23.191  0.00  0.00    +0.282 C 
ATOM     53  O   UNL     1       8.670  -0.847  22.417  0.00  0.00    -0.341 OA
ATOM     54  C   UNL     1       7.982  -1.891  23.145  0.00  0.00    +0.178 C 
ATOM     55  C   UNL     1       8.770  -2.473  24.350  0.00  0.00    +0.177 C 
ATOM     56  C   UNL     1       9.429  -1.359  25.155  0.00  0.00    +0.179 C 
ATOM     57  C   UNL     1      10.297  -0.533  24.185  0.00  0.00    +0.201 C 
BRANCH  57  58
ATOM     58  O   UNL     1      11.189   0.350  24.869  0.00  0.00    -0.384 OA
ATOM     59  H   UNL     1      10.677   0.793  25.570  0.00  0.00    +0.210 HD
ENDBRANCH  57  58
BRANCH  56  60
ATOM     60  O   UNL     1       8.426  -0.589  25.833  0.00  0.00    -0.386 OA
ATOM     61  H   UNL     1       7.559  -0.755  25.403  0.00  0.00    +0.210 HD
ENDBRANCH  56  60
BRANCH  55  62
ATOM     62  O   UNL     1       9.791  -3.383  23.917  0.00  0.00    -0.386 OA
ATOM     63  H   UNL     1       9.539  -4.280  24.201  0.00  0.00    +0.210 HD
ENDBRANCH  55  62
BRANCH  54  64
ATOM     64  C   UNL     1       7.594  -3.069  22.210  0.00  0.00    +0.190 C 
BRANCH  64  65
ATOM     65  O   UNL     1       6.274  -2.986  21.683  0.00  0.00    -0.392 OA
ATOM     66  H   UNL     1       5.720  -2.507  22.321  0.00  0.00    +0.210 HD
ENDBRANCH  64  65
ENDBRANCH  54  64
ENDBRANCH  51  52
ENDBRANCH  46  51
BRANCH  43  67
ATOM     67  C   UNL     1       8.872   6.808  24.496  0.00  0.00    +0.190 C 
BRANCH  67  68
ATOM     68  O   UNL     1      10.086   7.098  25.177  0.00  0.00    -0.392 OA
ATOM     69  H   UNL     1      10.532   6.240  25.312  0.00  0.00    +0.210 HD
ENDBRANCH  67  68
ENDBRANCH  43  67
ENDBRANCH  40  41
ENDBRANCH   7  40
TORSDOF 24
ENDMDL
MODEL 9
REMARK VINA RESULT:      -6.4      2.267      6.060
REMARK  Name = 
REMARK  24 active torsions:
REMARK  status: ('A' for Active; 'I' for Inactive)
REMARK    1  A    between atoms: C_3  and  O_63
REMARK    2  A    between atoms: C_4  and  O_62
REMARK    3  A    between atoms: C_6  and  C_7
REMARK    4  A    between atoms: C_8  and  O_48
REMARK    5  A    between atoms: C_12  and  O_47
REMARK    6  A    between atoms: C_14  and  O_18
REMARK    7  A    between atoms: O_18  and  C_19
REMARK    8  A    between atoms: C_21  and  O_32
REMARK    9  A    between atoms: C_22  and  O_31
REMARK   10  A    between atoms: C_24  and  O_30
REMARK   11  A    between atoms: C_26  and  C_28
REMARK   12  A    between atoms: C_28  and  O_29
REMARK   13  A    between atoms: O_32  and  C_33
REMARK   14  A    between atoms: C_35  and  O_46
REMARK   15  A    between atoms: C_36  and  O_45
REMARK   16  A    between atoms: C_38  and  O_44
REMARK   17  A    between atoms: C_40  and  C_42
REMARK   18  A    between atoms: C_42  and  O_43
REMARK   19  A    between atoms: O_48  and  C_49
REMARK   20  A    between atoms: C_51  and  O_61
REMARK   21  A    between atoms: C_52  and  O_60
REMARK   22  A    between atoms: C_53  and  O_59
REMARK   23  A    between atoms: C_55  and  C_57
REMARK   24  A    between atoms: C_57  and  O_58
REMARK                            x       y       z     vdW  Elec       q    Type
REMARK                         _______ _______ _______ _____ _____    ______ ____
ROOT
ATOM      1  C   UNL     1       3.507  -2.858  26.331  0.00  0.00    +0.181 A 
ATOM      2  O   UNL     1       4.167  -1.977  25.472  0.00  0.00    -0.451 OA
ATOM      3  C   UNL     1       4.631  -0.778  25.942  0.00  0.00    +0.147 A 
ATOM      4  C   UNL     1       4.484  -0.400  27.264  0.00  0.00    +0.109 A 
ATOM      5  C   UNL     1       4.898   0.879  27.646  0.00  0.00    +0.135 A 
ATOM      6  C   UNL     1       5.536   1.724  26.734  0.00  0.00    +0.092 A 
ATOM      7  C   UNL     1       5.890   1.247  25.472  0.00  0.00    +0.131 A 
ATOM      8  C   UNL     1       3.967  -1.402  28.225  0.00  0.00    +0.238 A 
ATOM      9  O   UNL     1       4.046  -1.203  29.430  0.00  0.00    -0.283 OA
ATOM     10  C   UNL     1       5.337   0.036  25.045  0.00  0.00    +0.093 A 
ATOM     11  C   UNL     1       3.406  -2.679  27.667  0.00  0.00    +0.214 A 
ENDROOT
BRANCH   1  13
ATOM     12  C   UNL     1       1.714  -4.431  25.461  0.00  0.00    +0.015 A 
ATOM     13  C   UNL     1       3.066  -4.106  25.647  0.00  0.00    +0.025 A 
ATOM     14  C   UNL     1       4.023  -5.072  25.290  0.00  0.00    +0.060 A 
ATOM     15  C   UNL     1       3.619  -6.362  24.971  0.00  0.00    +0.159 A 
ATOM     16  C   UNL     1       2.276  -6.719  25.019  0.00  0.00    +0.158 A 
ATOM     17  C   UNL     1       1.303  -5.749  25.218  0.00  0.00    +0.050 A 
BRANCH  16  18
ATOM     18  O   UNL     1       1.946  -8.036  24.893  0.00  0.00    -0.503 OA
ATOM     19  H   UNL     1       2.723  -8.502  24.533  0.00  0.00    +0.292 HD
ENDBRANCH  16  18
BRANCH  15  20
ATOM     20  O   UNL     1       4.577  -7.300  24.673  0.00  0.00    -0.503 OA
ATOM     21  H   UNL     1       5.417  -6.791  24.759  0.00  0.00    +0.292 HD
ENDBRANCH  15  20
ENDBRANCH   1  13
BRANCH   5  22
ATOM     22  O   UNL     1       4.773   1.369  28.907  0.00  0.00    -0.506 OA
ATOM     23  H   UNL     1       4.859   2.351  28.876  0.00  0.00    +0.292 HD
ENDBRANCH   5  22
BRANCH  11  24
ATOM     24  O   UNL     1       2.611  -3.465  28.478  0.00  0.00    -0.453 OA
BRANCH  24  25
ATOM     25  C   UNL     1       3.052  -4.021  29.735  0.00  0.00    +0.340 C 
ATOM     26  O   UNL     1       4.423  -4.477  29.673  0.00  0.00    -0.331 OA
ATOM     27  C   UNL     1       4.737  -5.705  28.953  0.00  0.00    +0.179 C 
ATOM     28  C   UNL     1       3.601  -6.705  28.638  0.00  0.00    +0.177 C 
ATOM     29  C   UNL     1       2.201  -6.128  28.807  0.00  0.00    +0.180 C 
ATOM     30  C   UNL     1       2.191  -5.251  30.072  0.00  0.00    +0.214 C 
BRANCH  30  31
ATOM     31  O   UNL     1       0.857  -4.968  30.485  0.00  0.00    -0.383 OA
ATOM     32  H   UNL     1       0.261  -5.011  29.707  0.00  0.00    +0.210 HD
ENDBRANCH  30  31
BRANCH  29  33
ATOM     33  O   UNL     1       1.273  -7.217  28.877  0.00  0.00    -0.386 OA
ATOM     34  H   UNL     1       1.723  -7.977  28.451  0.00  0.00    +0.210 HD
ENDBRANCH  29  33
BRANCH  28  35
ATOM     35  O   UNL     1       3.684  -7.879  29.468  0.00  0.00    -0.386 OA
ATOM     36  H   UNL     1       2.818  -7.910  29.930  0.00  0.00    +0.210 HD
ENDBRANCH  28  35
BRANCH  27  37
ATOM     37  C   UNL     1       5.881  -6.387  29.737  0.00  0.00    +0.190 C 
BRANCH  37  38
ATOM     38  O   UNL     1       6.450  -7.429  28.940  0.00  0.00    -0.392 OA
ATOM     39  H   UNL     1       7.381  -7.162  28.808  0.00  0.00    +0.210 HD
ENDBRANCH  37  38
ENDBRANCH  27  37
ENDBRANCH  24  25
ENDBRANCH  11  24
BRANCH   7  40
ATOM     40  O   UNL     1       6.798   1.812  24.613  0.00  0.00    -0.461 OA
BRANCH  40  41
ATOM     41  C   UNL     1       8.187   1.483  24.768  0.00  0.00    +0.340 C 
ATOM     42  O   UNL     1       8.931   2.700  24.962  0.00  0.00    -0.331 OA
ATOM     43  C   UNL     1       9.109   3.436  23.739  0.00  0.00    +0.179 C 
ATOM     44  C   UNL     1      10.024   2.612  22.819  0.00  0.00    +0.177 C 
ATOM     45  C   UNL     1       9.244   1.354  22.400  0.00  0.00    +0.180 C 
ATOM     46  C   UNL     1       8.774   0.554  23.634  0.00  0.00    +0.221 C 
BRANCH  45  47
ATOM     47  O   UNL     1       8.152   1.722  21.555  0.00  0.00    -0.386 OA
ATOM     48  H   UNL     1       8.469   1.726  20.632  0.00  0.00    +0.210 HD
ENDBRANCH  45  47
BRANCH  44  49
ATOM     49  O   UNL     1      11.221   2.236  23.511  0.00  0.00    -0.386 OA
ATOM     50  H   UNL     1      11.972   2.329  22.897  0.00  0.00    +0.210 HD
ENDBRANCH  44  49
BRANCH  46  51
ATOM     51  O   UNL     1       7.923  -0.600  23.303  0.00  0.00    -0.337 OA
BRANCH  51  52
ATOM     52  C   UNL     1       8.581  -1.694  22.587  0.00  0.00    +0.282 C 
ATOM     53  O   UNL     1       7.632  -2.527  21.868  0.00  0.00    -0.341 OA
ATOM     54  C   UNL     1       6.802  -3.422  22.645  0.00  0.00    +0.178 C 
ATOM     55  C   UNL     1       7.549  -4.194  23.767  0.00  0.00    +0.177 C 
ATOM     56  C   UNL     1       8.499  -3.269  24.520  0.00  0.00    +0.179 C 
ATOM     57  C   UNL     1       9.435  -2.618  23.483  0.00  0.00    +0.201 C 
BRANCH  57  58
ATOM     58  O   UNL     1      10.552  -1.965  24.092  0.00  0.00    -0.384 OA
ATOM     59  H   UNL     1      11.360  -2.349  23.705  0.00  0.00    +0.210 HD
ENDBRANCH  57  58
BRANCH  56  60
ATOM     60  O   UNL     1       7.746  -2.325  25.295  0.00  0.00    -0.386 OA
ATOM     61  H   UNL     1       7.165  -2.818  25.913  0.00  0.00    +0.210 HD
ENDBRANCH  56  60
BRANCH  55  62
ATOM     62  O   UNL     1       8.310  -5.287  23.233  0.00  0.00    -0.386 OA
ATOM     63  H   UNL     1       9.136  -4.929  22.861  0.00  0.00    +0.210 HD
ENDBRANCH  55  62
BRANCH  54  64
ATOM     64  C   UNL     1       6.092  -4.463  21.737  0.00  0.00    +0.190 C 
BRANCH  64  65
ATOM     65  O   UNL     1       5.772  -5.686  22.391  0.00  0.00    -0.392 OA
ATOM     66  H   UNL     1       5.217  -6.216  21.795  0.00  0.00    +0.210 HD
ENDBRANCH  64  65
ENDBRANCH  54  64
ENDBRANCH  51  52
ENDBRANCH  46  51
BRANCH  43  67
ATOM     67  C   UNL     1       9.643   4.837  24.070  0.00  0.00    +0.190 C 
BRANCH  67  68
ATOM     68  O   UNL     1      10.779   5.214  23.303  0.00  0.00    -0.392 OA
ATOM     69  H   UNL     1      10.472   5.274  22.378  0.00  0.00    +0.210 HD
ENDBRANCH  67  68
ENDBRANCH  43  67
ENDBRANCH  40  41
ENDBRANCH   7  40
TORSDOF 24
ENDMDL
