MODEL 1
REMARK VINA RESULT:      -7.1      0.000      0.000
REMARK  Name = 
REMARK  18 active torsions:
REMARK  status: ('A' for Active; 'I' for Inactive)
REMARK    1  A    between atoms: C_1  and  C_2
REMARK    2  A    between atoms: C_3  and  O_49
REMARK    3  A    between atoms: C_5  and  O_48
REMARK    4  A    between atoms: C_7  and  O_47
REMARK    5  A    between atoms: C_8  and  O_11
REMARK    6  A    between atoms: O_11  and  C_12
REMARK    7  A    between atoms: C_12  and  C_13
REMARK    8  A    between atoms: C_14  and  O_46
REMARK    9  A    between atoms: C_16  and  O_45
REMARK   10  A    between atoms: C_17  and  O_44
REMARK   11  A    between atoms: C_18  and  O_21
REMARK   12  A    between atoms: O_21  and  C_22
REMARK   13  A    between atoms: C_23  and  C_36
REMARK   14  A    between atoms: C_27  and  O_34
REMARK   15  A    between atoms: C_29  and  O_33
REMARK   16  A    between atoms: O_34  and  C_35
REMARK   17  A    between atoms: C_38  and  O_43
REMARK   18  A    between atoms: C_39  and  O_42
REMARK                            x       y       z     vdW  Elec       q    Type
REMARK                         _______ _______ _______ _____ _____    ______ ____
ROOT
ATOM      1  C   UNL     1       7.556  -4.516  24.295  0.00  0.00    +0.179 C 
ATOM      2  O   UNL     1       7.057  -3.168  24.432  0.00  0.00    -0.331 OA
ATOM      3  C   UNL     1       5.639  -2.958  24.414  0.00  0.00    +0.340 C 
ATOM      4  C   UNL     1       4.936  -3.663  23.233  0.00  0.00    +0.214 C 
ATOM      5  C   UNL     1       5.285  -5.145  23.322  0.00  0.00    +0.180 C 
ATOM      6  C   UNL     1       6.800  -5.332  23.199  0.00  0.00    +0.177 C 
ENDROOT
BRANCH   6   7
ATOM      7  O   UNL     1       7.252  -4.934  21.890  0.00  0.00    -0.386 OA
ATOM      8  H   UNL     1       6.844  -5.547  21.241  0.00  0.00    +0.210 HD
ENDBRANCH   6   7
BRANCH   5   9
ATOM      9  O   UNL     1       4.587  -5.882  22.304  0.00  0.00    -0.386 OA
ATOM     10  H   UNL     1       3.750  -5.402  22.152  0.00  0.00    +0.210 HD
ENDBRANCH   5   9
BRANCH   4  11
ATOM     11  O   UNL     1       5.364  -3.138  21.958  0.00  0.00    -0.383 OA
ATOM     12  H   UNL     1       4.631  -2.573  21.637  0.00  0.00    +0.210 HD
ENDBRANCH   4  11
BRANCH   3  13
ATOM     13  O   UNL     1       5.355  -1.539  24.286  0.00  0.00    -0.453 OA
BRANCH  13  14
ATOM     14  C   UNL     1       6.383  -0.612  24.280  0.00  0.00    +0.214 A 
ATOM     15  C   UNL     1       7.220  -0.318  23.085  0.00  0.00    +0.238 A 
ATOM     16  O   UNL     1       6.881  -0.678  21.966  0.00  0.00    -0.283 OA
ATOM     17  C   UNL     1       8.363   0.583  23.239  0.00  0.00    +0.109 A 
ATOM     18  C   UNL     1       8.434   1.366  24.382  0.00  0.00    +0.147 A 
ATOM     19  C   UNL     1       9.378   2.396  24.472  0.00  0.00    +0.092 A 
ATOM     20  C   UNL     1      10.230   2.655  23.395  0.00  0.00    +0.127 A 
ATOM     21  C   UNL     1      10.172   1.850  22.256  0.00  0.00    +0.092 A 
ATOM     22  O   UNL     1       7.582   1.190  25.431  0.00  0.00    -0.451 OA
ATOM     23  C   UNL     1       9.284   0.781  22.210  0.00  0.00    +0.135 A 
ATOM     24  C   UNL     1       6.595   0.214  25.339  0.00  0.00    +0.181 A 
BRANCH  24  25
ATOM     25  C   UNL     1       5.574   0.406  26.360  0.00  0.00    +0.025 A 
ATOM     26  C   UNL     1       4.680   1.490  26.140  0.00  0.00    +0.015 A 
ATOM     27  C   UNL     1       3.800   1.894  27.131  0.00  0.00    +0.050 A 
ATOM     28  C   UNL     1       3.736   1.164  28.307  0.00  0.00    +0.158 A 
ATOM     29  C   UNL     1       4.569   0.071  28.528  0.00  0.00    +0.159 A 
ATOM     30  C   UNL     1       5.530  -0.287  27.579  0.00  0.00    +0.060 A 
BRANCH  29  31
ATOM     31  O   UNL     1       4.412  -0.652  29.675  0.00  0.00    -0.503 OA
ATOM     32  H   UNL     1       4.629  -0.102  30.442  0.00  0.00    +0.292 HD
ENDBRANCH  29  31
BRANCH  28  33
ATOM     33  O   UNL     1       2.799   1.522  29.231  0.00  0.00    -0.503 OA
ATOM     34  H   UNL     1       1.957   1.189  28.877  0.00  0.00    +0.292 HD
ENDBRANCH  28  33
ENDBRANCH  24  25
BRANCH  23  35
ATOM     35  O   UNL     1       9.399  -0.142  21.215  0.00  0.00    -0.506 OA
ATOM     36  H   UNL     1      10.106  -0.790  21.436  0.00  0.00    +0.292 HD
ENDBRANCH  23  35
BRANCH  20  37
ATOM     37  O   UNL     1      11.164   3.654  23.335  0.00  0.00    -0.495 OA
ATOM     38  C   UNL     1      10.733   4.957  23.711  0.00  0.00    +0.277 C 
ENDBRANCH  20  37
ENDBRANCH  13  14
ENDBRANCH   3  13
BRANCH   1  39
ATOM     39  C   UNL     1       7.625  -5.333  25.627  0.00  0.00    +0.197 C 
BRANCH  39  40
ATOM     40  O   UNL     1       6.553  -6.226  25.919  0.00  0.00    -0.346 OA
BRANCH  40  44
ATOM     41  C   UNL     1       3.670  -3.493  27.662  0.00  0.00    +0.041 C 
ATOM     42  C   UNL     1       4.947  -4.017  28.312  0.00  0.00    +0.149 C 
ATOM     43  O   UNL     1       5.798  -4.612  27.321  0.00  0.00    -0.343 OA
ATOM     44  C   UNL     1       5.540  -5.975  26.899  0.00  0.00    +0.282 C 
ATOM     45  C   UNL     1       5.543  -6.856  28.182  0.00  0.00    +0.201 C 
ATOM     46  C   UNL     1       4.381  -6.354  29.077  0.00  0.00    +0.179 C 
ATOM     47  C   UNL     1       4.629  -4.911  29.516  0.00  0.00    +0.174 C 
BRANCH  47  48
ATOM     48  O   UNL     1       5.691  -4.884  30.485  0.00  0.00    -0.387 OA
ATOM     49  H   UNL     1       5.460  -5.551  31.172  0.00  0.00    +0.210 HD
ENDBRANCH  47  48
BRANCH  46  50
ATOM     50  O   UNL     1       4.167  -7.166  30.252  0.00  0.00    -0.386 OA
ATOM     51  H   UNL     1       4.112  -8.097  29.951  0.00  0.00    +0.210 HD
ENDBRANCH  46  50
BRANCH  45  52
ATOM     52  O   UNL     1       6.795  -6.716  28.897  0.00  0.00    -0.384 OA
ATOM     53  H   UNL     1       6.554  -6.496  29.819  0.00  0.00    +0.210 HD
ENDBRANCH  45  52
ENDBRANCH  40  44
ENDBRANCH  39  40
ENDBRANCH   1  39
TORSDOF 16
ENDMDL
MODEL 2
REMARK VINA RESULT:      -7.1      2.395      6.706
REMARK  Name = 
REMARK  18 active torsions:
REMARK  status: ('A' for Active; 'I' for Inactive)
REMARK    1  A    between atoms: C_1  and  C_2
REMARK    2  A    between atoms: C_3  and  O_49
REMARK    3  A    between atoms: C_5  and  O_48
REMARK    4  A    between atoms: C_7  and  O_47
REMARK    5  A    between atoms: C_8  and  O_11
REMARK    6  A    between atoms: O_11  and  C_12
REMARK    7  A    between atoms: C_12  and  C_13
REMARK    8  A    between atoms: C_14  and  O_46
REMARK    9  A    between atoms: C_16  and  O_45
REMARK   10  A    between atoms: C_17  and  O_44
REMARK   11  A    between atoms: C_18  and  O_21
REMARK   12  A    between atoms: O_21  and  C_22
REMARK   13  A    between atoms: C_23  and  C_36
REMARK   14  A    between atoms: C_27  and  O_34
REMARK   15  A    between atoms: C_29  and  O_33
REMARK   16  A    between atoms: O_34  and  C_35
REMARK   17  A    between atoms: C_38  and  O_43
REMARK   18  A    between atoms: C_39  and  O_42
REMARK                            x       y       z     vdW  Elec       q    Type
REMARK                         _______ _______ _______ _____ _____    ______ ____
ROOT
ATOM      1  C   UNL     1       8.697  -3.011  23.938  0.00  0.00    +0.179 C 
ATOM      2  O   UNL     1       7.798  -2.512  24.952  0.00  0.00    -0.331 OA
ATOM      3  C   UNL     1       7.950  -2.987  26.296  0.00  0.00    +0.340 C 
ATOM      4  C   UNL     1       8.045  -4.526  26.388  0.00  0.00    +0.214 C 
ATOM      5  C   UNL     1       9.210  -4.959  25.503  0.00  0.00    +0.180 C 
ATOM      6  C   UNL     1       8.940  -4.550  24.051  0.00  0.00    +0.177 C 
ENDROOT
BRANCH   6   7
ATOM      7  O   UNL     1       7.805  -5.267  23.529  0.00  0.00    -0.386 OA
ATOM      8  H   UNL     1       7.951  -6.220  23.713  0.00  0.00    +0.210 HD
ENDBRANCH   6   7
BRANCH   5   9
ATOM      9  O   UNL     1       9.417  -6.376  25.612  0.00  0.00    -0.386 OA
ATOM     10  H   UNL     1       8.639  -6.725  26.088  0.00  0.00    +0.210 HD
ENDBRANCH   5   9
BRANCH   4  11
ATOM     11  O   UNL     1       6.831  -5.170  25.945  0.00  0.00    -0.383 OA
ATOM     12  H   UNL     1       7.108  -5.870  25.320  0.00  0.00    +0.210 HD
ENDBRANCH   4  11
BRANCH   3  13
ATOM     13  O   UNL     1       6.801  -2.588  27.090  0.00  0.00    -0.453 OA
BRANCH  13  14
ATOM     14  C   UNL     1       6.183  -1.369  26.874  0.00  0.00    +0.214 A 
ATOM     15  C   UNL     1       6.816  -0.058  27.184  0.00  0.00    +0.238 A 
ATOM     16  O   UNL     1       8.017   0.035  27.394  0.00  0.00    -0.283 OA
ATOM     17  C   UNL     1       6.012   1.157  27.039  0.00  0.00    +0.109 A 
ATOM     18  C   UNL     1       4.824   1.077  26.327  0.00  0.00    +0.147 A 
ATOM     19  C   UNL     1       4.138   2.245  25.972  0.00  0.00    +0.092 A 
ATOM     20  C   UNL     1       4.666   3.493  26.309  0.00  0.00    +0.127 A 
ATOM     21  C   UNL     1       5.850   3.569  27.046  0.00  0.00    +0.092 A 
ATOM     22  O   UNL     1       4.303  -0.115  25.924  0.00  0.00    -0.451 OA
ATOM     23  C   UNL     1       6.481   2.401  27.461  0.00  0.00    +0.135 A 
ATOM     24  C   UNL     1       5.000  -1.284  26.210  0.00  0.00    +0.181 A 
BRANCH  24  25
ATOM     25  C   UNL     1       4.505  -2.397  25.409  0.00  0.00    +0.025 A 
ATOM     26  C   UNL     1       3.555  -3.239  26.048  0.00  0.00    +0.015 A 
ATOM     27  C   UNL     1       3.165  -4.435  25.466  0.00  0.00    +0.050 A 
ATOM     28  C   UNL     1       3.642  -4.752  24.204  0.00  0.00    +0.158 A 
ATOM     29  C   UNL     1       4.539  -3.920  23.539  0.00  0.00    +0.159 A 
ATOM     30  C   UNL     1       5.018  -2.762  24.156  0.00  0.00    +0.060 A 
BRANCH  29  31
ATOM     31  O   UNL     1       4.920  -4.250  22.270  0.00  0.00    -0.503 OA
ATOM     32  H   UNL     1       4.816  -5.203  22.133  0.00  0.00    +0.292 HD
ENDBRANCH  29  31
BRANCH  28  33
ATOM     33  O   UNL     1       3.174  -5.887  23.611  0.00  0.00    -0.503 OA
ATOM     34  H   UNL     1       2.402  -5.601  23.095  0.00  0.00    +0.292 HD
ENDBRANCH  28  33
ENDBRANCH  24  25
BRANCH  23  35
ATOM     35  O   UNL     1       7.485   2.473  28.378  0.00  0.00    -0.506 OA
ATOM     36  H   UNL     1       7.419   1.723  29.010  0.00  0.00    +0.292 HD
ENDBRANCH  23  35
BRANCH  20  37
ATOM     37  O   UNL     1       4.123   4.707  25.987  0.00  0.00    -0.495 OA
ATOM     38  C   UNL     1       4.862   5.522  25.084  0.00  0.00    +0.277 C 
ENDBRANCH  20  37
ENDBRANCH  13  14
ENDBRANCH   3  13
BRANCH   1  39
ATOM     39  C   UNL     1      10.061  -2.253  23.834  0.00  0.00    +0.197 C 
BRANCH  39  40
ATOM     40  O   UNL     1      10.129  -0.926  24.350  0.00  0.00    -0.346 OA
BRANCH  40  44
ATOM     41  C   UNL     1      11.050   3.228  23.505  0.00  0.00    +0.041 C 
ATOM     42  C   UNL     1       9.760   2.677  24.107  0.00  0.00    +0.149 C 
ATOM     43  O   UNL     1       9.957   1.327  24.547  0.00  0.00    -0.343 OA
ATOM     44  C   UNL     1       9.877   0.252  23.576  0.00  0.00    +0.282 C 
ATOM     45  C   UNL     1       8.491   0.373  22.878  0.00  0.00    +0.201 C 
ATOM     46  C   UNL     1       8.471   1.742  22.150  0.00  0.00    +0.179 C 
ATOM     47  C   UNL     1       8.574   2.885  23.159  0.00  0.00    +0.174 C 
BRANCH  47  48
ATOM     48  O   UNL     1       7.336   2.995  23.883  0.00  0.00    -0.387 OA
ATOM     49  H   UNL     1       6.727   2.321  23.500  0.00  0.00    +0.210 HD
ENDBRANCH  47  48
BRANCH  46  50
ATOM     50  O   UNL     1       7.295   1.945  21.337  0.00  0.00    -0.386 OA
ATOM     51  H   UNL     1       7.381   2.831  20.926  0.00  0.00    +0.210 HD
ENDBRANCH  46  50
BRANCH  45  52
ATOM     52  O   UNL     1       7.420   0.333  23.853  0.00  0.00    -0.384 OA
ATOM     53  H   UNL     1       7.690  -0.330  24.519  0.00  0.00    +0.210 HD
ENDBRANCH  45  52
ENDBRANCH  40  44
ENDBRANCH  39  40
ENDBRANCH   1  39
TORSDOF 16
ENDMDL
MODEL 3
REMARK VINA RESULT:      -6.9      2.271      3.721
REMARK  Name = 
REMARK  18 active torsions:
REMARK  status: ('A' for Active; 'I' for Inactive)
REMARK    1  A    between atoms: C_1  and  C_2
REMARK    2  A    between atoms: C_3  and  O_49
REMARK    3  A    between atoms: C_5  and  O_48
REMARK    4  A    between atoms: C_7  and  O_47
REMARK    5  A    between atoms: C_8  and  O_11
REMARK    6  A    between atoms: O_11  and  C_12
REMARK    7  A    between atoms: C_12  and  C_13
REMARK    8  A    between atoms: C_14  and  O_46
REMARK    9  A    between atoms: C_16  and  O_45
REMARK   10  A    between atoms: C_17  and  O_44
REMARK   11  A    between atoms: C_18  and  O_21
REMARK   12  A    between atoms: O_21  and  C_22
REMARK   13  A    between atoms: C_23  and  C_36
REMARK   14  A    between atoms: C_27  and  O_34
REMARK   15  A    between atoms: C_29  and  O_33
REMARK   16  A    between atoms: O_34  and  C_35
REMARK   17  A    between atoms: C_38  and  O_43
REMARK   18  A    between atoms: C_39  and  O_42
REMARK                            x       y       z     vdW  Elec       q    Type
REMARK                         _______ _______ _______ _____ _____    ______ ____
ROOT
ATOM      1  C   UNL     1       8.335  -5.042  26.697  0.00  0.00    +0.179 C 
ATOM      2  O   UNL     1       8.640  -3.647  26.914  0.00  0.00    -0.331 OA
ATOM      3  C   UNL     1       8.202  -2.690  25.942  0.00  0.00    +0.340 C 
ATOM      4  C   UNL     1       8.561  -3.088  24.493  0.00  0.00    +0.214 C 
ATOM      5  C   UNL     1       7.955  -4.465  24.241  0.00  0.00    +0.180 C 
ATOM      6  C   UNL     1       8.555  -5.484  25.215  0.00  0.00    +0.177 C 
ENDROOT
BRANCH   6   7
ATOM      7  O   UNL     1       9.963  -5.658  24.957  0.00  0.00    -0.386 OA
ATOM      8  H   UNL     1      10.145  -5.289  24.066  0.00  0.00    +0.210 HD
ENDBRANCH   6   7
BRANCH   5   9
ATOM      9  O   UNL     1       8.172  -4.861  22.877  0.00  0.00    -0.386 OA
ATOM     10  H   UNL     1       7.335  -4.678  22.408  0.00  0.00    +0.210 HD
ENDBRANCH   5   9
BRANCH   4  11
ATOM     11  O   UNL     1       9.989  -3.139  24.285  0.00  0.00    -0.383 OA
ATOM     12  H   UNL     1      10.264  -2.225  24.065  0.00  0.00    +0.210 HD
ENDBRANCH   4  11
BRANCH   3  13
ATOM     13  O   UNL     1       8.835  -1.408  26.195  0.00  0.00    -0.453 OA
BRANCH  13  14
ATOM     14  C   UNL     1       8.356  -0.255  25.598  0.00  0.00    +0.214 A 
ATOM     15  C   UNL     1       9.136   0.552  24.620  0.00  0.00    +0.238 A 
ATOM     16  O   UNL     1      10.137   0.103  24.080  0.00  0.00    -0.283 OA
ATOM     17  C   UNL     1       8.576   1.824  24.161  0.00  0.00    +0.109 A 
ATOM     18  C   UNL     1       7.231   2.072  24.394  0.00  0.00    +0.147 A 
ATOM     19  C   UNL     1       6.602   3.164  23.784  0.00  0.00    +0.092 A 
ATOM     20  C   UNL     1       7.322   3.986  22.914  0.00  0.00    +0.127 A 
ATOM     21  C   UNL     1       8.681   3.747  22.699  0.00  0.00    +0.092 A 
ATOM     22  O   UNL     1       6.475   1.261  25.186  0.00  0.00    -0.451 OA
ATOM     23  C   UNL     1       9.314   2.707  23.373  0.00  0.00    +0.135 A 
ATOM     24  C   UNL     1       7.063   0.136  25.752  0.00  0.00    +0.181 A 
BRANCH  24  25
ATOM     25  C   UNL     1       6.051  -0.788  26.248  0.00  0.00    +0.025 A 
ATOM     26  C   UNL     1       5.399  -1.574  25.259  0.00  0.00    +0.015 A 
ATOM     27  C   UNL     1       4.289  -2.338  25.582  0.00  0.00    +0.050 A 
ATOM     28  C   UNL     1       3.881  -2.401  26.904  0.00  0.00    +0.158 A 
ATOM     29  C   UNL     1       4.531  -1.675  27.898  0.00  0.00    +0.159 A 
ATOM     30  C   UNL     1       5.590  -0.823  27.572  0.00  0.00    +0.060 A 
BRANCH  29  31
ATOM     31  O   UNL     1       4.129  -1.831  29.193  0.00  0.00    -0.503 OA
ATOM     32  H   UNL     1       4.349  -2.723  29.500  0.00  0.00    +0.292 HD
ENDBRANCH  29  31
BRANCH  28  33
ATOM     33  O   UNL     1       2.843  -3.230  27.214  0.00  0.00    -0.503 OA
ATOM     34  H   UNL     1       3.217  -3.876  27.837  0.00  0.00    +0.292 HD
ENDBRANCH  28  33
ENDBRANCH  24  25
BRANCH  23  35
ATOM     35  O   UNL     1      10.673   2.629  23.355  0.00  0.00    -0.506 OA
ATOM     36  H   UNL     1      10.970   2.096  22.583  0.00  0.00    +0.292 HD
ENDBRANCH  23  35
BRANCH  20  37
ATOM     37  O   UNL     1       6.820   5.055  22.221  0.00  0.00    -0.495 OA
ATOM     38  C   UNL     1       7.602   6.244  22.223  0.00  0.00    +0.277 C 
ENDBRANCH  20  37
ENDBRANCH  13  14
ENDBRANCH   3  13
BRANCH   1  39
ATOM     39  C   UNL     1       6.921  -5.493  27.191  0.00  0.00    +0.197 C 
BRANCH  39  40
ATOM     40  O   UNL     1       6.185  -6.399  26.373  0.00  0.00    -0.346 OA
BRANCH  40  44
ATOM     41  C   UNL     1       1.901  -6.617  27.021  0.00  0.00    +0.041 C 
ATOM     42  C   UNL     1       2.717  -7.410  26.005  0.00  0.00    +0.149 C 
ATOM     43  O   UNL     1       4.115  -7.323  26.317  0.00  0.00    -0.343 OA
ATOM     44  C   UNL     1       4.859  -6.153  25.892  0.00  0.00    +0.282 C 
ATOM     45  C   UNL     1       4.662  -6.024  24.353  0.00  0.00    +0.201 C 
ATOM     46  C   UNL     1       3.148  -5.800  24.110  0.00  0.00    +0.179 C 
ATOM     47  C   UNL     1       2.347  -7.018  24.570  0.00  0.00    +0.174 C 
BRANCH  47  48
ATOM     48  O   UNL     1       2.567  -8.106  23.656  0.00  0.00    -0.387 OA
ATOM     49  H   UNL     1       3.457  -7.961  23.258  0.00  0.00    +0.210 HD
ENDBRANCH  47  48
BRANCH  46  50
ATOM     50  O   UNL     1       2.820  -5.525  22.731  0.00  0.00    -0.386 OA
ATOM     51  H   UNL     1       3.360  -4.753  22.457  0.00  0.00    +0.210 HD
ENDBRANCH  46  50
BRANCH  45  52
ATOM     52  O   UNL     1       5.084  -7.235  23.679  0.00  0.00    -0.384 OA
ATOM     53  H   UNL     1       4.297  -7.813  23.651  0.00  0.00    +0.210 HD
ENDBRANCH  45  52
ENDBRANCH  40  44
ENDBRANCH  39  40
ENDBRANCH   1  39
TORSDOF 16
ENDMDL
MODEL 4
REMARK VINA RESULT:      -6.9      2.546      8.173
REMARK  Name = 
REMARK  18 active torsions:
REMARK  status: ('A' for Active; 'I' for Inactive)
REMARK    1  A    between atoms: C_1  and  C_2
REMARK    2  A    between atoms: C_3  and  O_49
REMARK    3  A    between atoms: C_5  and  O_48
REMARK    4  A    between atoms: C_7  and  O_47
REMARK    5  A    between atoms: C_8  and  O_11
REMARK    6  A    between atoms: O_11  and  C_12
REMARK    7  A    between atoms: C_12  and  C_13
REMARK    8  A    between atoms: C_14  and  O_46
REMARK    9  A    between atoms: C_16  and  O_45
REMARK   10  A    between atoms: C_17  and  O_44
REMARK   11  A    between atoms: C_18  and  O_21
REMARK   12  A    between atoms: O_21  and  C_22
REMARK   13  A    between atoms: C_23  and  C_36
REMARK   14  A    between atoms: C_27  and  O_34
REMARK   15  A    between atoms: C_29  and  O_33
REMARK   16  A    between atoms: O_34  and  C_35
REMARK   17  A    between atoms: C_38  and  O_43
REMARK   18  A    between atoms: C_39  and  O_42
REMARK                            x       y       z     vdW  Elec       q    Type
REMARK                         _______ _______ _______ _____ _____    ______ ____
ROOT
ATOM      1  C   UNL     1       9.490   0.317  22.935  0.00  0.00    +0.179 C 
ATOM      2  O   UNL     1       8.061   0.110  22.955  0.00  0.00    -0.331 OA
ATOM      3  C   UNL     1       7.532  -0.936  23.780  0.00  0.00    +0.340 C 
ATOM      4  C   UNL     1       8.257  -2.287  23.588  0.00  0.00    +0.214 C 
ATOM      5  C   UNL     1       9.738  -2.045  23.864  0.00  0.00    +0.180 C 
ATOM      6  C   UNL     1      10.293  -1.021  22.870  0.00  0.00    +0.177 C 
ENDROOT
BRANCH   6   7
ATOM      7  O   UNL     1      10.260  -1.551  21.530  0.00  0.00    -0.386 OA
ATOM      8  H   UNL     1       9.412  -2.035  21.429  0.00  0.00    +0.210 HD
ENDBRANCH   6   7
BRANCH   5   9
ATOM      9  O   UNL     1      10.464  -3.283  23.794  0.00  0.00    -0.386 OA
ATOM     10  H   UNL     1      11.299  -3.079  23.331  0.00  0.00    +0.210 HD
ENDBRANCH   5   9
BRANCH   4  11
ATOM     11  O   UNL     1       8.090  -2.804  22.250  0.00  0.00    -0.383 OA
ATOM     12  H   UNL     1       8.788  -3.480  22.132  0.00  0.00    +0.210 HD
ENDBRANCH   4  11
BRANCH   3  13
ATOM     13  O   UNL     1       6.134  -1.159  23.453  0.00  0.00    -0.453 OA
BRANCH  13  14
ATOM     14  C   UNL     1       5.378  -2.067  24.174  0.00  0.00    +0.214 A 
ATOM     15  C   UNL     1       5.031  -3.427  23.679  0.00  0.00    +0.238 A 
ATOM     16  O   UNL     1       5.615  -3.926  22.727  0.00  0.00    -0.283 OA
ATOM     17  C   UNL     1       4.112  -4.245  24.473  0.00  0.00    +0.109 A 
ATOM     18  C   UNL     1       3.859  -3.865  25.782  0.00  0.00    +0.147 A 
ATOM     19  C   UNL     1       3.172  -4.728  26.644  0.00  0.00    +0.092 A 
ATOM     20  C   UNL     1       2.767  -5.987  26.192  0.00  0.00    +0.127 A 
ATOM     21  C   UNL     1       3.004  -6.356  24.866  0.00  0.00    +0.092 A 
ATOM     22  O   UNL     1       4.289  -2.673  26.284  0.00  0.00    -0.451 OA
ATOM     23  C   UNL     1       3.617  -5.459  23.999  0.00  0.00    +0.135 A 
ATOM     24  C   UNL     1       5.028  -1.827  25.465  0.00  0.00    +0.181 A 
BRANCH  24  25
ATOM     25  C   UNL     1       5.700  -0.798  26.249  0.00  0.00    +0.025 A 
ATOM     26  C   UNL     1       5.101   0.491  26.213  0.00  0.00    +0.015 A 
ATOM     27  C   UNL     1       5.754   1.589  26.750  0.00  0.00    +0.050 A 
ATOM     28  C   UNL     1       6.957   1.396  27.410  0.00  0.00    +0.158 A 
ATOM     29  C   UNL     1       7.541   0.135  27.497  0.00  0.00    +0.159 A 
ATOM     30  C   UNL     1       6.945  -0.964  26.874  0.00  0.00    +0.060 A 
BRANCH  29  31
ATOM     31  O   UNL     1       8.691  -0.006  28.220  0.00  0.00    -0.503 OA
ATOM     32  H   UNL     1       9.364  -0.449  27.682  0.00  0.00    +0.292 HD
ENDBRANCH  29  31
BRANCH  28  33
ATOM     33  O   UNL     1       7.536   2.474  28.011  0.00  0.00    -0.503 OA
ATOM     34  H   UNL     1       6.918   2.730  28.717  0.00  0.00    +0.292 HD
ENDBRANCH  28  33
ENDBRANCH  24  25
BRANCH  23  35
ATOM     35  O   UNL     1       3.623  -5.721  22.662  0.00  0.00    -0.506 OA
ATOM     36  H   UNL     1       3.278  -6.627  22.494  0.00  0.00    +0.292 HD
ENDBRANCH  23  35
BRANCH  20  37
ATOM     37  O   UNL     1       2.129  -6.940  26.939  0.00  0.00    -0.495 OA
ATOM     38  C   UNL     1       1.233  -7.803  26.248  0.00  0.00    +0.277 C 
ENDBRANCH  20  37
ENDBRANCH  13  14
ENDBRANCH   3  13
BRANCH   1  39
ATOM     39  C   UNL     1      10.041   1.224  24.084  0.00  0.00    +0.197 C 
BRANCH  39  40
ATOM     40  O   UNL     1       9.122   2.078  24.761  0.00  0.00    -0.346 OA
BRANCH  40  44
ATOM     41  C   UNL     1       8.572   6.218  25.932  0.00  0.00    +0.041 C 
ATOM     42  C   UNL     1       7.511   5.273  25.376  0.00  0.00    +0.149 C 
ATOM     43  O   UNL     1       7.978   3.918  25.432  0.00  0.00    -0.343 OA
ATOM     44  C   UNL     1       8.855   3.433  24.383  0.00  0.00    +0.282 C 
ATOM     45  C   UNL     1       8.123   3.675  23.030  0.00  0.00    +0.201 C 
ATOM     46  C   UNL     1       7.931   5.206  22.889  0.00  0.00    +0.179 C 
ATOM     47  C   UNL     1       7.023   5.736  23.999  0.00  0.00    +0.174 C 
BRANCH  47  48
ATOM     48  O   UNL     1       5.671   5.313  23.751  0.00  0.00    -0.387 OA
ATOM     49  H   UNL     1       5.708   4.343  23.582  0.00  0.00    +0.210 HD
ENDBRANCH  47  48
BRANCH  46  50
ATOM     50  O   UNL     1       7.383   5.602  21.613  0.00  0.00    -0.386 OA
ATOM     51  H   UNL     1       6.928   4.818  21.241  0.00  0.00    +0.210 HD
ENDBRANCH  46  50
BRANCH  45  52
ATOM     52  O   UNL     1       6.828   3.026  23.026  0.00  0.00    -0.384 OA
ATOM     53  H   UNL     1       6.495   3.085  23.943  0.00  0.00    +0.210 HD
ENDBRANCH  45  52
ENDBRANCH  40  44
ENDBRANCH  39  40
ENDBRANCH   1  39
TORSDOF 16
ENDMDL
MODEL 5
REMARK VINA RESULT:      -6.9      3.230      6.721
REMARK  Name = 
REMARK  18 active torsions:
REMARK  status: ('A' for Active; 'I' for Inactive)
REMARK    1  A    between atoms: C_1  and  C_2
REMARK    2  A    between atoms: C_3  and  O_49
REMARK    3  A    between atoms: C_5  and  O_48
REMARK    4  A    between atoms: C_7  and  O_47
REMARK    5  A    between atoms: C_8  and  O_11
REMARK    6  A    between atoms: O_11  and  C_12
REMARK    7  A    between atoms: C_12  and  C_13
REMARK    8  A    between atoms: C_14  and  O_46
REMARK    9  A    between atoms: C_16  and  O_45
REMARK   10  A    between atoms: C_17  and  O_44
REMARK   11  A    between atoms: C_18  and  O_21
REMARK   12  A    between atoms: O_21  and  C_22
REMARK   13  A    between atoms: C_23  and  C_36
REMARK   14  A    between atoms: C_27  and  O_34
REMARK   15  A    between atoms: C_29  and  O_33
REMARK   16  A    between atoms: O_34  and  C_35
REMARK   17  A    between atoms: C_38  and  O_43
REMARK   18  A    between atoms: C_39  and  O_42
REMARK                            x       y       z     vdW  Elec       q    Type
REMARK                         _______ _______ _______ _____ _____    ______ ____
ROOT
ATOM      1  C   UNL     1       9.372  -1.181  25.184  0.00  0.00    +0.179 C 
ATOM      2  O   UNL     1       9.188   0.237  25.387  0.00  0.00    -0.331 OA
ATOM      3  C   UNL     1       8.421   0.973  24.426  0.00  0.00    +0.340 C 
ATOM      4  C   UNL     1       8.855   0.702  22.967  0.00  0.00    +0.214 C 
ATOM      5  C   UNL     1       8.750  -0.803  22.739  0.00  0.00    +0.180 C 
ATOM      6  C   UNL     1       9.689  -1.542  23.697  0.00  0.00    +0.177 C 
ENDROOT
BRANCH   6   7
ATOM      7  O   UNL     1      11.063  -1.228  23.397  0.00  0.00    -0.386 OA
ATOM      8  H   UNL     1      11.116  -1.036  22.436  0.00  0.00    +0.210 HD
ENDBRANCH   6   7
BRANCH   5   9
ATOM      9  O   UNL     1       9.051  -1.120  21.370  0.00  0.00    -0.386 OA
ATOM     10  H   UNL     1       8.353  -1.736  21.077  0.00  0.00    +0.210 HD
ENDBRANCH   5   9
BRANCH   4  11
ATOM     11  O   UNL     1      10.208   1.139  22.716  0.00  0.00    -0.383 OA
ATOM     12  H   UNL     1      10.147   1.823  22.018  0.00  0.00    +0.210 HD
ENDBRANCH   4  11
BRANCH   3  13
ATOM     13  O   UNL     1       8.585   2.398  24.655  0.00  0.00    -0.453 OA
BRANCH  13  14
ATOM     14  C   UNL     1       7.712   3.308  24.084  0.00  0.00    +0.214 A 
ATOM     15  C   UNL     1       6.235   3.124  24.050  0.00  0.00    +0.238 A 
ATOM     16  O   UNL     1       5.681   2.295  24.758  0.00  0.00    -0.283 OA
ATOM     17  C   UNL     1       5.429   4.089  23.300  0.00  0.00    +0.109 A 
ATOM     18  C   UNL     1       6.017   5.289  22.929  0.00  0.00    +0.147 A 
ATOM     19  C   UNL     1       5.232   6.326  22.413  0.00  0.00    +0.092 A 
ATOM     20  C   UNL     1       3.849   6.163  22.299  0.00  0.00    +0.127 A 
ATOM     21  C   UNL     1       3.264   4.945  22.652  0.00  0.00    +0.092 A 
ATOM     22  O   UNL     1       7.352   5.515  23.080  0.00  0.00    -0.451 OA
ATOM     23  C   UNL     1       4.064   3.895  23.089  0.00  0.00    +0.135 A 
ATOM     24  C   UNL     1       8.142   4.522  23.649  0.00  0.00    +0.181 A 
BRANCH  24  25
ATOM     25  C   UNL     1       9.434   5.055  24.063  0.00  0.00    +0.025 A 
ATOM     26  C   UNL     1       9.393   6.033  25.094  0.00  0.00    +0.015 A 
ATOM     27  C   UNL     1      10.529   6.754  25.430  0.00  0.00    +0.050 A 
ATOM     28  C   UNL     1      11.728   6.439  24.813  0.00  0.00    +0.158 A 
ATOM     29  C   UNL     1      11.802   5.454  23.832  0.00  0.00    +0.159 A 
ATOM     30  C   UNL     1      10.647   4.789  23.412  0.00  0.00    +0.060 A 
BRANCH  29  31
ATOM     31  O   UNL     1      13.023   5.139  23.310  0.00  0.00    -0.503 OA
ATOM     32  H   UNL     1      13.609   4.821  24.013  0.00  0.00    +0.292 HD
ENDBRANCH  29  31
BRANCH  28  33
ATOM     33  O   UNL     1      12.850   7.097  25.224  0.00  0.00    -0.503 OA
ATOM     34  H   UNL     1      12.522   7.867  25.719  0.00  0.00    +0.292 HD
ENDBRANCH  28  33
ENDBRANCH  24  25
BRANCH  23  35
ATOM     35  O   UNL     1       3.530   2.647  23.194  0.00  0.00    -0.506 OA
ATOM     36  H   UNL     1       3.123   2.528  24.082  0.00  0.00    +0.292 HD
ENDBRANCH  23  35
BRANCH  20  37
ATOM     37  O   UNL     1       2.965   7.108  21.854  0.00  0.00    -0.495 OA
ATOM     38  C   UNL     1       2.337   6.857  20.601  0.00  0.00    +0.277 C 
ENDBRANCH  20  37
ENDBRANCH  13  14
ENDBRANCH   3  13
BRANCH   1  39
ATOM     39  C   UNL     1       8.212  -2.081  25.723  0.00  0.00    +0.197 C 
BRANCH  39  40
ATOM     40  O   UNL     1       8.025  -3.360  25.122  0.00  0.00    -0.346 OA
BRANCH  40  44
ATOM     41  C   UNL     1       4.101  -5.198  24.914  0.00  0.00    +0.041 C 
ATOM     42  C   UNL     1       5.388  -5.709  24.276  0.00  0.00    +0.149 C 
ATOM     43  O   UNL     1       6.522  -5.035  24.841  0.00  0.00    -0.343 OA
ATOM     44  C   UNL     1       6.881  -3.723  24.340  0.00  0.00    +0.282 C 
ATOM     45  C   UNL     1       7.073  -3.860  22.801  0.00  0.00    +0.201 C 
ATOM     46  C   UNL     1       5.705  -4.290  22.213  0.00  0.00    +0.179 C 
ATOM     47  C   UNL     1       5.303  -5.665  22.746  0.00  0.00    +0.174 C 
BRANCH  47  48
ATOM     48  O   UNL     1       6.137  -6.671  22.145  0.00  0.00    -0.387 OA
ATOM     49  H   UNL     1       6.779  -6.195  21.569  0.00  0.00    +0.210 HD
ENDBRANCH  47  48
BRANCH  46  50
ATOM     50  O   UNL     1       5.685  -4.328  20.770  0.00  0.00    -0.386 OA
ATOM     51  H   UNL     1       4.794  -4.032  20.488  0.00  0.00    +0.210 HD
ENDBRANCH  46  50
BRANCH  45  52
ATOM     52  O   UNL     1       8.066  -4.869  22.497  0.00  0.00    -0.384 OA
ATOM     53  H   UNL     1       8.193  -5.378  23.322  0.00  0.00    +0.210 HD
ENDBRANCH  45  52
ENDBRANCH  40  44
ENDBRANCH  39  40
ENDBRANCH   1  39
TORSDOF 16
ENDMDL
MODEL 6
REMARK VINA RESULT:      -6.9      1.524      5.131
REMARK  Name = 
REMARK  18 active torsions:
REMARK  status: ('A' for Active; 'I' for Inactive)
REMARK    1  A    between atoms: C_1  and  C_2
REMARK    2  A    between atoms: C_3  and  O_49
REMARK    3  A    between atoms: C_5  and  O_48
REMARK    4  A    between atoms: C_7  and  O_47
REMARK    5  A    between atoms: C_8  and  O_11
REMARK    6  A    between atoms: O_11  and  C_12
REMARK    7  A    between atoms: C_12  and  C_13
REMARK    8  A    between atoms: C_14  and  O_46
REMARK    9  A    between atoms: C_16  and  O_45
REMARK   10  A    between atoms: C_17  and  O_44
REMARK   11  A    between atoms: C_18  and  O_21
REMARK   12  A    between atoms: O_21  and  C_22
REMARK   13  A    between atoms: C_23  and  C_36
REMARK   14  A    between atoms: C_27  and  O_34
REMARK   15  A    between atoms: C_29  and  O_33
REMARK   16  A    between atoms: O_34  and  C_35
REMARK   17  A    between atoms: C_38  and  O_43
REMARK   18  A    between atoms: C_39  and  O_42
REMARK                            x       y       z     vdW  Elec       q    Type
REMARK                         _______ _______ _______ _____ _____    ______ ____
ROOT
ATOM      1  C   UNL     1       6.071  -5.640  23.508  0.00  0.00    +0.179 C 
ATOM      2  O   UNL     1       6.611  -4.545  24.279  0.00  0.00    -0.331 OA
ATOM      3  C   UNL     1       6.281  -3.206  23.891  0.00  0.00    +0.340 C 
ATOM      4  C   UNL     1       6.491  -2.942  22.383  0.00  0.00    +0.214 C 
ATOM      5  C   UNL     1       5.657  -3.969  21.626  0.00  0.00    +0.180 C 
ATOM      6  C   UNL     1       6.135  -5.383  21.968  0.00  0.00    +0.177 C 
ENDROOT
BRANCH   6   7
ATOM      7  O   UNL     1       7.479  -5.589  21.491  0.00  0.00    -0.386 OA
ATOM      8  H   UNL     1       8.063  -4.976  21.987  0.00  0.00    +0.210 HD
ENDBRANCH   6   7
BRANCH   5   9
ATOM      9  O   UNL     1       5.731  -3.725  20.212  0.00  0.00    -0.386 OA
ATOM     10  H   UNL     1       5.004  -3.106  20.008  0.00  0.00    +0.210 HD
ENDBRANCH   5   9
BRANCH   4  11
ATOM     11  O   UNL     1       7.878  -3.064  22.002  0.00  0.00    -0.383 OA
ATOM     12  H   UNL     1       8.163  -3.953  22.297  0.00  0.00    +0.210 HD
ENDBRANCH   4  11
BRANCH   3  13
ATOM     13  O   UNL     1       7.128  -2.266  24.605  0.00  0.00    -0.453 OA
BRANCH  13  14
ATOM     14  C   UNL     1       6.574  -1.317  25.447  0.00  0.00    +0.214 A 
ATOM     15  C   UNL     1       5.974  -1.641  26.770  0.00  0.00    +0.238 A 
ATOM     16  O   UNL     1       6.174  -2.718  27.314  0.00  0.00    -0.283 OA
ATOM     17  C   UNL     1       5.299  -0.573  27.510  0.00  0.00    +0.109 A 
ATOM     18  C   UNL     1       5.517   0.739  27.115  0.00  0.00    +0.147 A 
ATOM     19  C   UNL     1       5.079   1.797  27.920  0.00  0.00    +0.092 A 
ATOM     20  C   UNL     1       4.447   1.531  29.138  0.00  0.00    +0.127 A 
ATOM     21  C   UNL     1       4.208   0.209  29.520  0.00  0.00    +0.092 A 
ATOM     22  O   UNL     1       6.184   1.046  25.967  0.00  0.00    -0.451 OA
ATOM     23  C   UNL     1       4.577  -0.831  28.675  0.00  0.00    +0.135 A 
ATOM     24  C   UNL     1       6.684   0.012  25.184  0.00  0.00    +0.181 A 
BRANCH  24  25
ATOM     25  C   UNL     1       7.657   0.510  24.220  0.00  0.00    +0.025 A 
ATOM     26  C   UNL     1       8.897   0.941  24.767  0.00  0.00    +0.015 A 
ATOM     27  C   UNL     1       9.819   1.616  23.983  0.00  0.00    +0.050 A 
ATOM     28  C   UNL     1       9.557   1.780  22.632  0.00  0.00    +0.158 A 
ATOM     29  C   UNL     1       8.369   1.326  22.065  0.00  0.00    +0.159 A 
ATOM     30  C   UNL     1       7.387   0.733  22.862  0.00  0.00    +0.060 A 
BRANCH  29  31
ATOM     31  O   UNL     1       8.197   1.453  20.717  0.00  0.00    -0.503 OA
ATOM     32  H   UNL     1       7.785   0.651  20.361  0.00  0.00    +0.292 HD
ENDBRANCH  29  31
BRANCH  28  33
ATOM     33  O   UNL     1      10.518   2.364  21.861  0.00  0.00    -0.503 OA
ATOM     34  H   UNL     1      10.038   2.736  21.101  0.00  0.00    +0.292 HD
ENDBRANCH  28  33
ENDBRANCH  24  25
BRANCH  23  35
ATOM     35  O   UNL     1       4.128  -2.091  28.930  0.00  0.00    -0.506 OA
ATOM     36  H   UNL     1       3.834  -2.521  28.095  0.00  0.00    +0.292 HD
ENDBRANCH  23  35
BRANCH  20  37
ATOM     37  O   UNL     1       4.010   2.467  30.035  0.00  0.00    -0.495 OA
ATOM     38  C   UNL     1       4.937   3.480  30.408  0.00  0.00    +0.277 C 
ENDBRANCH  20  37
ENDBRANCH  13  14
ENDBRANCH   3  13
BRANCH   1  39
ATOM     39  C   UNL     1       4.632  -6.093  23.922  0.00  0.00    +0.197 C 
BRANCH  39  40
ATOM     40  O   UNL     1       4.018  -5.437  25.028  0.00  0.00    -0.346 OA
BRANCH  40  44
ATOM     41  C   UNL     1       2.072  -5.641  28.900  0.00  0.00    +0.041 C 
ATOM     42  C   UNL     1       3.422  -5.004  28.583  0.00  0.00    +0.149 C 
ATOM     43  O   UNL     1       3.567  -4.831  27.167  0.00  0.00    -0.343 OA
ATOM     44  C   UNL     1       3.993  -5.959  26.361  0.00  0.00    +0.282 C 
ATOM     45  C   UNL     1       5.337  -6.466  26.963  0.00  0.00    +0.201 C 
ATOM     46  C   UNL     1       5.034  -6.937  28.408  0.00  0.00    +0.179 C 
ATOM     47  C   UNL     1       4.566  -5.761  29.266  0.00  0.00    +0.174 C 
BRANCH  47  48
ATOM     48  O   UNL     1       5.681  -4.895  29.537  0.00  0.00    -0.387 OA
ATOM     49  H   UNL     1       5.320  -3.979  29.581  0.00  0.00    +0.210 HD
ENDBRANCH  47  48
BRANCH  46  50
ATOM     50  O   UNL     1       6.161  -7.564  29.057  0.00  0.00    -0.386 OA
ATOM     51  H   UNL     1       6.243  -8.465  28.681  0.00  0.00    +0.210 HD
ENDBRANCH  46  50
BRANCH  45  52
ATOM     52  O   UNL     1       6.316  -5.399  27.000  0.00  0.00    -0.384 OA
ATOM     53  H   UNL     1       7.153  -5.792  26.685  0.00  0.00    +0.210 HD
ENDBRANCH  45  52
ENDBRANCH  40  44
ENDBRANCH  39  40
ENDBRANCH   1  39
TORSDOF 16
ENDMDL
MODEL 7
REMARK VINA RESULT:      -6.8      3.141      8.882
REMARK  Name = 
REMARK  18 active torsions:
REMARK  status: ('A' for Active; 'I' for Inactive)
REMARK    1  A    between atoms: C_1  and  C_2
REMARK    2  A    between atoms: C_3  and  O_49
REMARK    3  A    between atoms: C_5  and  O_48
REMARK    4  A    between atoms: C_7  and  O_47
REMARK    5  A    between atoms: C_8  and  O_11
REMARK    6  A    between atoms: O_11  and  C_12
REMARK    7  A    between atoms: C_12  and  C_13
REMARK    8  A    between atoms: C_14  and  O_46
REMARK    9  A    between atoms: C_16  and  O_45
REMARK   10  A    between atoms: C_17  and  O_44
REMARK   11  A    between atoms: C_18  and  O_21
REMARK   12  A    between atoms: O_21  and  C_22
REMARK   13  A    between atoms: C_23  and  C_36
REMARK   14  A    between atoms: C_27  and  O_34
REMARK   15  A    between atoms: C_29  and  O_33
REMARK   16  A    between atoms: O_34  and  C_35
REMARK   17  A    between atoms: C_38  and  O_43
REMARK   18  A    between atoms: C_39  and  O_42
REMARK                            x       y       z     vdW  Elec       q    Type
REMARK                         _______ _______ _______ _____ _____    ______ ____
ROOT
ATOM      1  C   UNL     1       6.676   2.901  27.050  0.00  0.00    +0.179 C 
ATOM      2  O   UNL     1       7.483   1.798  26.583  0.00  0.00    -0.331 OA
ATOM      3  C   UNL     1       7.227   0.491  27.111  0.00  0.00    +0.340 C 
ATOM      4  C   UNL     1       7.142   0.466  28.654  0.00  0.00    +0.214 C 
ATOM      5  C   UNL     1       6.059   1.459  29.061  0.00  0.00    +0.180 C 
ATOM      6  C   UNL     1       6.441   2.867  28.594  0.00  0.00    +0.177 C 
ENDROOT
BRANCH   6   7
ATOM      7  O   UNL     1       7.624   3.322  29.281  0.00  0.00    -0.386 OA
ATOM      8  H   UNL     1       7.387   3.436  30.227  0.00  0.00    +0.210 HD
ENDBRANCH   6   7
BRANCH   5   9
ATOM      9  O   UNL     1       5.860   1.421  30.484  0.00  0.00    -0.386 OA
ATOM     10  H   UNL     1       6.264   2.238  30.833  0.00  0.00    +0.210 HD
ENDBRANCH   5   9
BRANCH   4  11
ATOM     11  O   UNL     1       8.395   0.832  29.270  0.00  0.00    -0.383 OA
ATOM     12  H   UNL     1       9.077   0.261  28.859  0.00  0.00    +0.210 HD
ENDBRANCH   4  11
BRANCH   3  13
ATOM     13  O   UNL     1       8.303  -0.409  26.735  0.00  0.00    -0.453 OA
BRANCH  13  14
ATOM     14  C   UNL     1       8.087  -1.419  25.813  0.00  0.00    +0.214 A 
ATOM     15  C   UNL     1       7.153  -2.555  26.040  0.00  0.00    +0.238 A 
ATOM     16  O   UNL     1       6.318  -2.525  26.934  0.00  0.00    -0.283 OA
ATOM     17  C   UNL     1       7.111  -3.633  25.049  0.00  0.00    +0.109 A 
ATOM     18  C   UNL     1       7.688  -3.407  23.808  0.00  0.00    +0.147 A 
ATOM     19  C   UNL     1       7.481  -4.312  22.761  0.00  0.00    +0.092 A 
ATOM     20  C   UNL     1       6.666  -5.430  22.958  0.00  0.00    +0.127 A 
ATOM     21  C   UNL     1       6.106  -5.666  24.215  0.00  0.00    +0.092 A 
ATOM     22  O   UNL     1       8.439  -2.299  23.553  0.00  0.00    -0.451 OA
ATOM     23  C   UNL     1       6.383  -4.802  25.268  0.00  0.00    +0.135 A 
ATOM     24  C   UNL     1       8.607  -1.354  24.559  0.00  0.00    +0.181 A 
BRANCH  24  25
ATOM     25  C   UNL     1       9.110  -0.098  24.017  0.00  0.00    +0.025 A 
ATOM     26  C   UNL     1      10.437   0.246  24.395  0.00  0.00    +0.015 A 
ATOM     27  C   UNL     1      10.951   1.501  24.110  0.00  0.00    +0.050 A 
ATOM     28  C   UNL     1      10.186   2.384  23.364  0.00  0.00    +0.158 A 
ATOM     29  C   UNL     1       8.901   2.052  22.944  0.00  0.00    +0.159 A 
ATOM     30  C   UNL     1       8.332   0.830  23.310  0.00  0.00    +0.060 A 
BRANCH  29  31
ATOM     31  O   UNL     1       8.223   2.934  22.153  0.00  0.00    -0.503 OA
ATOM     32  H   UNL     1       8.186   2.600  21.245  0.00  0.00    +0.292 HD
ENDBRANCH  29  31
BRANCH  28  33
ATOM     33  O   UNL     1      10.746   3.578  23.017  0.00  0.00    -0.503 OA
ATOM     34  H   UNL     1      11.106   3.936  23.845  0.00  0.00    +0.292 HD
ENDBRANCH  28  33
ENDBRANCH  24  25
BRANCH  23  35
ATOM     35  O   UNL     1       6.044  -5.163  26.537  0.00  0.00    -0.506 OA
ATOM     36  H   UNL     1       5.361  -4.550  26.891  0.00  0.00    +0.292 HD
ENDBRANCH  23  35
BRANCH  20  37
ATOM     37  O   UNL     1       6.346  -6.366  22.012  0.00  0.00    -0.495 OA
ATOM     38  C   UNL     1       6.148  -5.893  20.684  0.00  0.00    +0.277 C 
ENDBRANCH  20  37
ENDBRANCH  13  14
ENDBRANCH   3  13
BRANCH   1  39
ATOM     39  C   UNL     1       5.316   3.088  26.300  0.00  0.00    +0.197 C 
BRANCH  39  40
ATOM     40  O   UNL     1       5.357   3.382  24.906  0.00  0.00    -0.346 OA
BRANCH  40  44
ATOM     41  C   UNL     1       1.143   3.701  23.927  0.00  0.00    +0.041 C 
ATOM     42  C   UNL     1       2.275   3.294  22.989  0.00  0.00    +0.149 C 
ATOM     43  O   UNL     1       3.452   2.975  23.743  0.00  0.00    -0.343 OA
ATOM     44  C   UNL     1       4.311   4.054  24.194  0.00  0.00    +0.282 C 
ATOM     45  C   UNL     1       4.710   4.875  22.933  0.00  0.00    +0.201 C 
ATOM     46  C   UNL     1       3.400   5.458  22.343  0.00  0.00    +0.179 C 
ATOM     47  C   UNL     1       2.475   4.333  21.880  0.00  0.00    +0.174 C 
BRANCH  47  48
ATOM     48  O   UNL     1       3.014   3.732  20.689  0.00  0.00    -0.387 OA
ATOM     49  H   UNL     1       3.826   4.243  20.461  0.00  0.00    +0.210 HD
ENDBRANCH  47  48
BRANCH  46  50
ATOM     50  O   UNL     1       3.619   6.362  21.238  0.00  0.00    -0.386 OA
ATOM     51  H   UNL     1       2.820   6.319  20.671  0.00  0.00    +0.210 HD
ENDBRANCH  46  50
BRANCH  45  52
ATOM     52  O   UNL     1       5.344   4.024  21.947  0.00  0.00    -0.384 OA
ATOM     53  H   UNL     1       4.813   4.117  21.131  0.00  0.00    +0.210 HD
ENDBRANCH  45  52
ENDBRANCH  40  44
ENDBRANCH  39  40
ENDBRANCH   1  39
TORSDOF 16
ENDMDL
MODEL 8
REMARK VINA RESULT:      -6.8      2.084      5.847
REMARK  Name = 
REMARK  18 active torsions:
REMARK  status: ('A' for Active; 'I' for Inactive)
REMARK    1  A    between atoms: C_1  and  C_2
REMARK    2  A    between atoms: C_3  and  O_49
REMARK    3  A    between atoms: C_5  and  O_48
REMARK    4  A    between atoms: C_7  and  O_47
REMARK    5  A    between atoms: C_8  and  O_11
REMARK    6  A    between atoms: O_11  and  C_12
REMARK    7  A    between atoms: C_12  and  C_13
REMARK    8  A    between atoms: C_14  and  O_46
REMARK    9  A    between atoms: C_16  and  O_45
REMARK   10  A    between atoms: C_17  and  O_44
REMARK   11  A    between atoms: C_18  and  O_21
REMARK   12  A    between atoms: O_21  and  C_22
REMARK   13  A    between atoms: C_23  and  C_36
REMARK   14  A    between atoms: C_27  and  O_34
REMARK   15  A    between atoms: C_29  and  O_33
REMARK   16  A    between atoms: O_34  and  C_35
REMARK   17  A    between atoms: C_38  and  O_43
REMARK   18  A    between atoms: C_39  and  O_42
REMARK                            x       y       z     vdW  Elec       q    Type
REMARK                         _______ _______ _______ _____ _____    ______ ____
ROOT
ATOM      1  C   UNL     1       8.245  -4.358  26.424  0.00  0.00    +0.179 C 
ATOM      2  O   UNL     1       8.089  -2.949  26.699  0.00  0.00    -0.331 OA
ATOM      3  C   UNL     1       7.303  -2.159  25.798  0.00  0.00    +0.340 C 
ATOM      4  C   UNL     1       7.685  -2.367  24.316  0.00  0.00    +0.214 C 
ATOM      5  C   UNL     1       7.551  -3.858  24.022  0.00  0.00    +0.180 C 
ATOM      6  C   UNL     1       8.509  -4.653  24.913  0.00  0.00    +0.177 C 
ENDROOT
BRANCH   6   7
ATOM      7  O   UNL     1       9.878  -4.344  24.583  0.00  0.00    -0.386 OA
ATOM      8  H   UNL     1       9.861  -3.653  23.886  0.00  0.00    +0.210 HD
ENDBRANCH   6   7
BRANCH   5   9
ATOM      9  O   UNL     1       7.803  -4.115  22.630  0.00  0.00    -0.386 OA
ATOM     10  H   UNL     1       8.110  -5.040  22.579  0.00  0.00    +0.210 HD
ENDBRANCH   5   9
BRANCH   4  11
ATOM     11  O   UNL     1       9.035  -1.937  24.041  0.00  0.00    -0.383 OA
ATOM     12  H   UNL     1       9.015  -1.533  23.149  0.00  0.00    +0.210 HD
ENDBRANCH   4  11
BRANCH   3  13
ATOM     13  O   UNL     1       7.494  -0.749  26.088  0.00  0.00    -0.453 OA
BRANCH  13  14
ATOM     14  C   UNL     1       6.435   0.139  26.002  0.00  0.00    +0.214 A 
ATOM     15  C   UNL     1       5.440   0.341  27.090  0.00  0.00    +0.238 A 
ATOM     16  O   UNL     1       5.649  -0.060  28.227  0.00  0.00    -0.283 OA
ATOM     17  C   UNL     1       4.289   1.207  26.830  0.00  0.00    +0.109 A 
ATOM     18  C   UNL     1       4.331   2.042  25.723  0.00  0.00    +0.147 A 
ATOM     19  C   UNL     1       3.363   3.040  25.558  0.00  0.00    +0.092 A 
ATOM     20  C   UNL     1       2.370   3.214  26.525  0.00  0.00    +0.127 A 
ATOM     21  C   UNL     1       2.316   2.355  27.626  0.00  0.00    +0.092 A 
ATOM     22  O   UNL     1       5.317   1.950  24.787  0.00  0.00    -0.451 OA
ATOM     23  C   UNL     1       3.236   1.319  27.738  0.00  0.00    +0.135 A 
ATOM     24  C   UNL     1       6.325   1.008  24.963  0.00  0.00    +0.181 A 
BRANCH  24  25
ATOM     25  C   UNL     1       7.459   1.288  24.091  0.00  0.00    +0.025 A 
ATOM     26  C   UNL     1       8.523   2.020  24.685  0.00  0.00    +0.015 A 
ATOM     27  C   UNL     1       9.559   2.517  23.909  0.00  0.00    +0.050 A 
ATOM     28  C   UNL     1       9.592   2.206  22.559  0.00  0.00    +0.158 A 
ATOM     29  C   UNL     1       8.584   1.452  21.964  0.00  0.00    +0.159 A 
ATOM     30  C   UNL     1       7.483   1.030  22.713  0.00  0.00    +0.060 A 
BRANCH  29  31
ATOM     31  O   UNL     1       8.707   1.118  20.646  0.00  0.00    -0.503 OA
ATOM     32  H   UNL     1       9.404   1.652  20.236  0.00  0.00    +0.292 HD
ENDBRANCH  29  31
BRANCH  28  33
ATOM     33  O   UNL     1      10.668   2.627  21.833  0.00  0.00    -0.503 OA
ATOM     34  H   UNL     1      10.726   2.005  21.088  0.00  0.00    +0.292 HD
ENDBRANCH  28  33
ENDBRANCH  24  25
BRANCH  23  35
ATOM     35  O   UNL     1       3.035   0.344  28.668  0.00  0.00    -0.506 OA
ATOM     36  H   UNL     1       2.546   0.710  29.440  0.00  0.00    +0.292 HD
ENDBRANCH  23  35
BRANCH  20  37
ATOM     37  O   UNL     1       1.394   4.173  26.508  0.00  0.00    -0.495 OA
ATOM     38  C   UNL     1       1.506   5.184  25.513  0.00  0.00    +0.277 C 
ENDBRANCH  20  37
ENDBRANCH  13  14
ENDBRANCH   3  13
BRANCH   1  39
ATOM     39  C   UNL     1       7.091  -5.268  26.960  0.00  0.00    +0.197 C 
BRANCH  39  40
ATOM     40  O   UNL     1       6.422  -6.115  26.029  0.00  0.00    -0.346 OA
BRANCH  40  44
ATOM     41  C   UNL     1       2.237  -6.448  27.121  0.00  0.00    +0.041 C 
ATOM     42  C   UNL     1       2.994  -7.307  26.113  0.00  0.00    +0.149 C 
ATOM     43  O   UNL     1       4.408  -7.128  26.273  0.00  0.00    -0.343 OA
ATOM     44  C   UNL     1       5.045  -5.978  25.661  0.00  0.00    +0.282 C 
ATOM     45  C   UNL     1       4.696  -6.018  24.144  0.00  0.00    +0.201 C 
ATOM     46  C   UNL     1       3.155  -5.887  24.033  0.00  0.00    +0.179 C 
ATOM     47  C   UNL     1       2.468  -7.084  24.690  0.00  0.00    +0.174 C 
BRANCH  47  48
ATOM     48  O   UNL     1       2.657  -8.251  23.871  0.00  0.00    -0.387 OA
ATOM     49  H   UNL     1       2.024  -8.930  24.202  0.00  0.00    +0.210 HD
ENDBRANCH  47  48
BRANCH  46  50
ATOM     50  O   UNL     1       2.684  -5.771  22.673  0.00  0.00    -0.386 OA
ATOM     51  H   UNL     1       2.201  -6.599  22.466  0.00  0.00    +0.210 HD
ENDBRANCH  46  50
BRANCH  45  52
ATOM     52  O   UNL     1       5.115  -7.274  23.555  0.00  0.00    -0.384 OA
ATOM     53  H   UNL     1       5.559  -7.771  24.271  0.00  0.00    +0.210 HD
ENDBRANCH  45  52
ENDBRANCH  40  44
ENDBRANCH  39  40
ENDBRANCH   1  39
TORSDOF 16
ENDMDL
MODEL 9
REMARK VINA RESULT:      -6.8      2.564      4.364
REMARK  Name = 
REMARK  18 active torsions:
REMARK  status: ('A' for Active; 'I' for Inactive)
REMARK    1  A    between atoms: C_1  and  C_2
REMARK    2  A    between atoms: C_3  and  O_49
REMARK    3  A    between atoms: C_5  and  O_48
REMARK    4  A    between atoms: C_7  and  O_47
REMARK    5  A    between atoms: C_8  and  O_11
REMARK    6  A    between atoms: O_11  and  C_12
REMARK    7  A    between atoms: C_12  and  C_13
REMARK    8  A    between atoms: C_14  and  O_46
REMARK    9  A    between atoms: C_16  and  O_45
REMARK   10  A    between atoms: C_17  and  O_44
REMARK   11  A    between atoms: C_18  and  O_21
REMARK   12  A    between atoms: O_21  and  C_22
REMARK   13  A    between atoms: C_23  and  C_36
REMARK   14  A    between atoms: C_27  and  O_34
REMARK   15  A    between atoms: C_29  and  O_33
REMARK   16  A    between atoms: O_34  and  C_35
REMARK   17  A    between atoms: C_38  and  O_43
REMARK   18  A    between atoms: C_39  and  O_42
REMARK                            x       y       z     vdW  Elec       q    Type
REMARK                         _______ _______ _______ _____ _____    ______ ____
ROOT
ATOM      1  C   UNL     1       6.112  -4.695  26.579  0.00  0.00    +0.179 C 
ATOM      2  O   UNL     1       6.558  -3.383  26.986  0.00  0.00    -0.331 OA
ATOM      3  C   UNL     1       7.542  -2.715  26.186  0.00  0.00    +0.340 C 
ATOM      4  C   UNL     1       8.760  -3.606  25.853  0.00  0.00    +0.214 C 
ATOM      5  C   UNL     1       8.227  -4.858  25.163  0.00  0.00    +0.180 C 
ATOM      6  C   UNL     1       7.285  -5.612  26.106  0.00  0.00    +0.177 C 
ENDROOT
BRANCH   6   7
ATOM      7  O   UNL     1       8.009  -6.112  27.247  0.00  0.00    -0.386 OA
ATOM      8  H   UNL     1       8.627  -5.405  27.534  0.00  0.00    +0.210 HD
ENDBRANCH   6   7
BRANCH   5   9
ATOM      9  O   UNL     1       9.316  -5.694  24.740  0.00  0.00    -0.386 OA
ATOM     10  H   UNL     1       9.973  -5.095  24.336  0.00  0.00    +0.210 HD
ENDBRANCH   5   9
BRANCH   4  11
ATOM     11  O   UNL     1       9.495  -3.980  27.038  0.00  0.00    -0.383 OA
ATOM     12  H   UNL     1       8.851  -4.419  27.630  0.00  0.00    +0.210 HD
ENDBRANCH   4  11
BRANCH   3  13
ATOM     13  O   UNL     1       8.051  -1.557  26.899  0.00  0.00    -0.453 OA
BRANCH  13  14
ATOM     14  C   UNL     1       8.001  -0.298  26.326  0.00  0.00    +0.214 A 
ATOM     15  C   UNL     1       8.996   0.195  25.335  0.00  0.00    +0.238 A 
ATOM     16  O   UNL     1       9.759  -0.571  24.763  0.00  0.00    -0.283 OA
ATOM     17  C   UNL     1       8.916   1.591  24.902  0.00  0.00    +0.109 A 
ATOM     18  C   UNL     1       7.754   2.298  25.175  0.00  0.00    +0.147 A 
ATOM     19  C   UNL     1       7.542   3.553  24.592  0.00  0.00    +0.092 A 
ATOM     20  C   UNL     1       8.488   4.081  23.710  0.00  0.00    +0.127 A 
ATOM     21  C   UNL     1       9.668   3.377  23.457  0.00  0.00    +0.092 A 
ATOM     22  O   UNL     1       6.776   1.796  25.979  0.00  0.00    -0.451 OA
ATOM     23  C   UNL     1       9.903   2.168  24.103  0.00  0.00    +0.135 A 
ATOM     24  C   UNL     1       6.936   0.524  26.519  0.00  0.00    +0.181 A 
BRANCH  24  25
ATOM     25  C   UNL     1       5.673   0.012  27.034  0.00  0.00    +0.025 A 
ATOM     26  C   UNL     1       5.490   0.131  28.439  0.00  0.00    +0.015 A 
ATOM     27  C   UNL     1       4.425  -0.496  29.068  0.00  0.00    +0.050 A 
ATOM     28  C   UNL     1       3.487  -1.160  28.295  0.00  0.00    +0.158 A 
ATOM     29  C   UNL     1       3.621  -1.250  26.912  0.00  0.00    +0.159 A 
ATOM     30  C   UNL     1       4.741  -0.710  26.275  0.00  0.00    +0.060 A 
BRANCH  29  31
ATOM     31  O   UNL     1       2.629  -1.856  26.196  0.00  0.00    -0.503 OA
ATOM     32  H   UNL     1       1.954  -1.205  25.954  0.00  0.00    +0.292 HD
ENDBRANCH  29  31
BRANCH  28  33
ATOM     33  O   UNL     1       2.399  -1.690  28.925  0.00  0.00    -0.503 OA
ATOM     34  H   UNL     1       2.399  -2.629  28.675  0.00  0.00    +0.292 HD
ENDBRANCH  28  33
ENDBRANCH  24  25
BRANCH  23  35
ATOM     35  O   UNL     1      11.144   1.611  24.047  0.00  0.00    -0.506 OA
ATOM     36  H   UNL     1      11.739   2.046  24.699  0.00  0.00    +0.292 HD
ENDBRANCH  23  35
BRANCH  20  37
ATOM     37  O   UNL     1       8.385   5.271  23.041  0.00  0.00    -0.495 OA
ATOM     38  C   UNL     1       9.127   6.367  23.565  0.00  0.00    +0.277 C 
ENDBRANCH  20  37
ENDBRANCH  13  14
ENDBRANCH   3  13
BRANCH   1  39
ATOM     39  C   UNL     1       4.959  -4.702  25.521  0.00  0.00    +0.197 C 
BRANCH  39  40
ATOM     40  O   UNL     1       4.580  -5.954  24.955  0.00  0.00    -0.346 OA
BRANCH  40  44
ATOM     41  C   UNL     1       1.188  -8.591  25.553  0.00  0.00    +0.041 C 
ATOM     42  C   UNL     1       2.050  -8.474  24.300  0.00  0.00    +0.149 C 
ATOM     43  O   UNL     1       3.260  -7.762  24.596  0.00  0.00    -0.343 OA
ATOM     44  C   UNL     1       3.233  -6.313  24.625  0.00  0.00    +0.282 C 
ATOM     45  C   UNL     1       2.678  -5.840  23.250  0.00  0.00    +0.201 C 
ATOM     46  C   UNL     1       1.233  -6.390  23.135  0.00  0.00    +0.179 C 
ATOM     47  C   UNL     1       1.242  -7.918  23.122  0.00  0.00    +0.174 C 
BRANCH  47  48
ATOM     48  O   UNL     1       1.762  -8.381  21.863  0.00  0.00    -0.387 OA
ATOM     49  H   UNL     1       1.248  -7.919  21.161  0.00  0.00    +0.210 HD
ENDBRANCH  47  48
BRANCH  46  50
ATOM     50  O   UNL     1       0.529  -5.920  21.965  0.00  0.00    -0.386 OA
ATOM     51  H   UNL     1      -0.082  -6.636  21.692  0.00  0.00    +0.210 HD
ENDBRANCH  46  50
BRANCH  45  52
ATOM     52  O   UNL     1       3.480  -6.367  22.165  0.00  0.00    -0.384 OA
ATOM     53  H   UNL     1       3.147  -7.272  22.000  0.00  0.00    +0.210 HD
ENDBRANCH  45  52
ENDBRANCH  40  44
ENDBRANCH  39  40
ENDBRANCH   1  39
TORSDOF 16
ENDMDL
