MODEL 1
REMARK VINA RESULT:      -7.6      0.000      0.000
REMARK  Name = 
REMARK  12 active torsions:
REMARK  status: ('A' for Active; 'I' for Inactive)
REMARK    1  A    between atoms: C_3  and  O_38
REMARK    2  A    between atoms: C_4  and  O_37
REMARK    3  A    between atoms: C_6  and  C_7
REMARK    4  A    between atoms: C_8  and  O_20
REMARK    5  A    between atoms: C_12  and  O_19
REMARK    6  A    between atoms: C_14  and  O_18
REMARK    7  A    between atoms: O_20  and  C_21
REMARK    8  A    between atoms: C_22  and  O_36
REMARK    9  A    between atoms: C_24  and  O_35
REMARK   10  A    between atoms: C_26  and  O_34
REMARK   11  A    between atoms: C_28  and  C_31
REMARK   12  A    between atoms: C_31  and  O_33
REMARK                            x       y       z     vdW  Elec       q    Type
REMARK                         _______ _______ _______ _____ _____    ______ ____
ROOT
ATOM      1  C   UNL     1       8.719  -1.820  24.700  0.00  0.00    +0.181 A 
ATOM      2  O   UNL     1       8.988  -0.559  25.213  0.00  0.00    -0.451 OA
ATOM      3  C   UNL     1       8.941   0.511  24.349  0.00  0.00    +0.147 A 
ATOM      4  C   UNL     1       8.856   0.354  22.967  0.00  0.00    +0.109 A 
ATOM      5  C   UNL     1       8.810   1.465  22.119  0.00  0.00    +0.135 A 
ATOM      6  C   UNL     1       8.848   2.749  22.649  0.00  0.00    +0.091 A 
ATOM      7  C   UNL     1       8.939   2.902  24.028  0.00  0.00    +0.124 A 
ATOM      8  C   UNL     1       8.819  -1.009  22.431  0.00  0.00    +0.238 A 
ATOM      9  O   UNL     1       8.983  -1.185  21.227  0.00  0.00    -0.283 OA
ATOM     10  C   UNL     1       8.981   1.797  24.883  0.00  0.00    +0.092 A 
ATOM     11  C   UNL     1       8.569  -2.111  23.391  0.00  0.00    +0.214 A 
ENDROOT
BRANCH   1  13
ATOM     12  C   UNL     1       9.402  -3.945  25.864  0.00  0.00    +0.015 A 
ATOM     13  C   UNL     1       8.502  -2.872  25.716  0.00  0.00    +0.025 A 
ATOM     14  C   UNL     1       7.293  -2.901  26.417  0.00  0.00    +0.060 A 
ATOM     15  C   UNL     1       6.947  -4.038  27.136  0.00  0.00    +0.159 A 
ATOM     16  C   UNL     1       7.797  -5.138  27.196  0.00  0.00    +0.158 A 
ATOM     17  C   UNL     1       9.051  -5.086  26.593  0.00  0.00    +0.050 A 
BRANCH  15  18
ATOM     18  O   UNL     1       5.721  -4.093  27.742  0.00  0.00    -0.503 OA
ATOM     19  H   UNL     1       5.905  -3.946  28.688  0.00  0.00    +0.292 HD
ENDBRANCH  15  18
BRANCH  16  20
ATOM     20  O   UNL     1       7.338  -6.265  27.819  0.00  0.00    -0.503 OA
ATOM     21  H   UNL     1       6.778  -6.755  27.188  0.00  0.00    +0.292 HD
ENDBRANCH  16  20
ENDBRANCH   1  13
BRANCH   5  22
ATOM     22  O   UNL     1       8.714   1.368  20.757  0.00  0.00    -0.506 OA
ATOM     23  H   UNL     1       8.587   2.270  20.389  0.00  0.00    +0.292 HD
ENDBRANCH   5  22
BRANCH   7  24
ATOM     24  O   UNL     1       8.989   4.144  24.588  0.00  0.00    -0.507 OA
ATOM     25  H   UNL     1       9.783   4.603  24.263  0.00  0.00    +0.292 HD
ENDBRANCH   7  24
BRANCH  11  26
ATOM     26  O   UNL     1       8.159  -3.363  22.974  0.00  0.00    -0.453 OA
BRANCH  26  27
ATOM     27  C   UNL     1       6.888  -3.529  22.330  0.00  0.00    +0.340 C 
ATOM     28  O   UNL     1       5.937  -3.307  23.384  0.00  0.00    -0.322 OA
ATOM     29  C   UNL     1       4.689  -4.032  23.329  0.00  0.00    +0.261 C 
ATOM     30  C   UNL     1       4.850  -5.556  23.158  0.00  0.00    +0.185 C 
ATOM     31  C   UNL     1       6.307  -5.909  22.840  0.00  0.00    +0.180 C 
ATOM     32  C   UNL     1       6.801  -4.952  21.739  0.00  0.00    +0.214 C 
BRANCH  29  33
ATOM     33  C   UNL     1       4.061  -3.753  24.698  0.00  0.00    +0.337 C 
ATOM     34  O   UNL     1       3.722  -2.657  25.113  0.00  0.00    -0.248 OA
BRANCH  33  35
ATOM     35  O   UNL     1       3.904  -4.887  25.438  0.00  0.00    -0.479 OA
ATOM     36  H   UNL     1       4.678  -4.974  26.042  0.00  0.00    +0.295 HD
ENDBRANCH  33  35
ENDBRANCH  29  33
BRANCH  30  37
ATOM     37  O   UNL     1       3.993  -6.015  22.091  0.00  0.00    -0.386 OA
ATOM     38  H   UNL     1       3.888  -6.984  22.194  0.00  0.00    +0.210 HD
ENDBRANCH  30  37
BRANCH  31  39
ATOM     39  O   UNL     1       7.110  -5.864  24.021  0.00  0.00    -0.386 OA
ATOM     40  H   UNL     1       6.614  -6.233  24.777  0.00  0.00    +0.210 HD
ENDBRANCH  31  39
BRANCH  32  41
ATOM     41  O   UNL     1       5.882  -4.993  20.631  0.00  0.00    -0.383 OA
ATOM     42  H   UNL     1       5.869  -4.107  20.217  0.00  0.00    +0.210 HD
ENDBRANCH  32  41
ENDBRANCH  26  27
ENDBRANCH  11  26
TORSDOF 12
ENDMDL
MODEL 2
REMARK VINA RESULT:      -7.1      1.793      4.326
REMARK  Name = 
REMARK  12 active torsions:
REMARK  status: ('A' for Active; 'I' for Inactive)
REMARK    1  A    between atoms: C_3  and  O_38
REMARK    2  A    between atoms: C_4  and  O_37
REMARK    3  A    between atoms: C_6  and  C_7
REMARK    4  A    between atoms: C_8  and  O_20
REMARK    5  A    between atoms: C_12  and  O_19
REMARK    6  A    between atoms: C_14  and  O_18
REMARK    7  A    between atoms: O_20  and  C_21
REMARK    8  A    between atoms: C_22  and  O_36
REMARK    9  A    between atoms: C_24  and  O_35
REMARK   10  A    between atoms: C_26  and  O_34
REMARK   11  A    between atoms: C_28  and  C_31
REMARK   12  A    between atoms: C_31  and  O_33
REMARK                            x       y       z     vdW  Elec       q    Type
REMARK                         _______ _______ _______ _____ _____    ______ ____
ROOT
ATOM      1  C   UNL     1       7.140  -1.325  22.978  0.00  0.00    +0.181 A 
ATOM      2  O   UNL     1       8.127  -0.549  22.389  0.00  0.00    -0.451 OA
ATOM      3  C   UNL     1       8.401   0.678  22.948  0.00  0.00    +0.147 A 
ATOM      4  C   UNL     1       7.590   1.254  23.924  0.00  0.00    +0.109 A 
ATOM      5  C   UNL     1       7.899   2.503  24.471  0.00  0.00    +0.135 A 
ATOM      6  C   UNL     1       9.028   3.191  24.043  0.00  0.00    +0.091 A 
ATOM      7  C   UNL     1       9.832   2.616  23.065  0.00  0.00    +0.124 A 
ATOM      8  C   UNL     1       6.404   0.511  24.357  0.00  0.00    +0.238 A 
ATOM      9  O   UNL     1       5.551   1.083  25.030  0.00  0.00    -0.283 OA
ATOM     10  C   UNL     1       9.533   1.366  22.517  0.00  0.00    +0.092 A 
ATOM     11  C   UNL     1       6.311  -0.915  23.961  0.00  0.00    +0.214 A 
ENDROOT
BRANCH   1  13
ATOM     12  C   UNL     1       6.068  -3.191  21.670  0.00  0.00    +0.015 A 
ATOM     13  C   UNL     1       7.095  -2.729  22.518  0.00  0.00    +0.025 A 
ATOM     14  C   UNL     1       7.979  -3.657  23.076  0.00  0.00    +0.060 A 
ATOM     15  C   UNL     1       7.751  -5.015  22.893  0.00  0.00    +0.159 A 
ATOM     16  C   UNL     1       6.674  -5.468  22.137  0.00  0.00    +0.158 A 
ATOM     17  C   UNL     1       5.846  -4.559  21.485  0.00  0.00    +0.050 A 
BRANCH  15  18
ATOM     18  O   UNL     1       8.568  -5.915  23.520  0.00  0.00    -0.503 OA
ATOM     19  H   UNL     1       8.084  -6.761  23.480  0.00  0.00    +0.292 HD
ENDBRANCH  15  18
BRANCH  16  20
ATOM     20  O   UNL     1       6.443  -6.815  22.102  0.00  0.00    -0.503 OA
ATOM     21  H   UNL     1       7.285  -7.274  22.280  0.00  0.00    +0.292 HD
ENDBRANCH  16  20
ENDBRANCH   1  13
BRANCH   5  22
ATOM     22  O   UNL     1       7.145   3.108  25.439  0.00  0.00    -0.506 OA
ATOM     23  H   UNL     1       6.202   3.074  25.166  0.00  0.00    +0.292 HD
ENDBRANCH   5  22
BRANCH   7  24
ATOM     24  O   UNL     1      10.943   3.263  22.610  0.00  0.00    -0.507 OA
ATOM     25  H   UNL     1      11.002   4.131  23.045  0.00  0.00    +0.292 HD
ENDBRANCH   7  24
BRANCH  11  26
ATOM     26  O   UNL     1       5.453  -1.794  24.594  0.00  0.00    -0.453 OA
BRANCH  26  27
ATOM     27  C   UNL     1       5.598  -2.062  25.995  0.00  0.00    +0.340 C 
ATOM     28  O   UNL     1       6.770  -2.889  26.067  0.00  0.00    -0.322 OA
ATOM     29  C   UNL     1       6.831  -3.882  27.115  0.00  0.00    +0.261 C 
ATOM     30  C   UNL     1       5.601  -4.810  27.178  0.00  0.00    +0.185 C 
ATOM     31  C   UNL     1       4.490  -4.290  26.258  0.00  0.00    +0.180 C 
ATOM     32  C   UNL     1       4.331  -2.779  26.508  0.00  0.00    +0.214 C 
BRANCH  29  33
ATOM     33  C   UNL     1       8.058  -4.717  26.735  0.00  0.00    +0.337 C 
ATOM     34  O   UNL     1       9.048  -4.300  26.155  0.00  0.00    -0.248 OA
BRANCH  33  35
ATOM     35  O   UNL     1       7.943  -6.017  27.126  0.00  0.00    -0.479 OA
ATOM     36  H   UNL     1       8.720  -6.243  27.688  0.00  0.00    +0.295 HD
ENDBRANCH  33  35
ENDBRANCH  29  33
BRANCH  30  37
ATOM     37  O   UNL     1       5.118  -4.878  28.536  0.00  0.00    -0.386 OA
ATOM     38  H   UNL     1       4.494  -5.633  28.589  0.00  0.00    +0.210 HD
ENDBRANCH  30  37
BRANCH  31  39
ATOM     39  O   UNL     1       4.771  -4.604  24.894  0.00  0.00    -0.386 OA
ATOM     40  H   UNL     1       4.303  -3.983  24.303  0.00  0.00    +0.210 HD
ENDBRANCH  31  39
BRANCH  32  41
ATOM     41  O   UNL     1       4.148  -2.550  27.918  0.00  0.00    -0.383 OA
ATOM     42  H   UNL     1       4.749  -3.150  28.402  0.00  0.00    +0.210 HD
ENDBRANCH  32  41
ENDBRANCH  26  27
ENDBRANCH  11  26
TORSDOF 12
ENDMDL
MODEL 3
REMARK VINA RESULT:      -7.1      2.351      7.571
REMARK  Name = 
REMARK  12 active torsions:
REMARK  status: ('A' for Active; 'I' for Inactive)
REMARK    1  A    between atoms: C_3  and  O_38
REMARK    2  A    between atoms: C_4  and  O_37
REMARK    3  A    between atoms: C_6  and  C_7
REMARK    4  A    between atoms: C_8  and  O_20
REMARK    5  A    between atoms: C_12  and  O_19
REMARK    6  A    between atoms: C_14  and  O_18
REMARK    7  A    between atoms: O_20  and  C_21
REMARK    8  A    between atoms: C_22  and  O_36
REMARK    9  A    between atoms: C_24  and  O_35
REMARK   10  A    between atoms: C_26  and  O_34
REMARK   11  A    between atoms: C_28  and  C_31
REMARK   12  A    between atoms: C_31  and  O_33
REMARK                            x       y       z     vdW  Elec       q    Type
REMARK                         _______ _______ _______ _____ _____    ______ ____
ROOT
ATOM      1  C   UNL     1       7.791  -1.501  23.866  0.00  0.00    +0.181 A 
ATOM      2  O   UNL     1       7.933  -2.688  23.163  0.00  0.00    -0.451 OA
ATOM      3  C   UNL     1       6.835  -3.512  23.062  0.00  0.00    +0.147 A 
ATOM      4  C   UNL     1       5.677  -3.311  23.810  0.00  0.00    +0.109 A 
ATOM      5  C   UNL     1       4.580  -4.169  23.682  0.00  0.00    +0.135 A 
ATOM      6  C   UNL     1       4.632  -5.241  22.799  0.00  0.00    +0.091 A 
ATOM      7  C   UNL     1       5.792  -5.442  22.058  0.00  0.00    +0.124 A 
ATOM      8  C   UNL     1       5.645  -2.177  24.736  0.00  0.00    +0.238 A 
ATOM      9  O   UNL     1       4.748  -2.109  25.572  0.00  0.00    -0.283 OA
ATOM     10  C   UNL     1       6.891  -4.587  22.177  0.00  0.00    +0.092 A 
ATOM     11  C   UNL     1       6.710  -1.154  24.596  0.00  0.00    +0.214 A 
ENDROOT
BRANCH   1  13
ATOM     12  C   UNL     1       9.786  -0.245  24.750  0.00  0.00    +0.015 A 
ATOM     13  C   UNL     1       8.900  -0.539  23.694  0.00  0.00    +0.025 A 
ATOM     14  C   UNL     1       8.965   0.224  22.525  0.00  0.00    +0.060 A 
ATOM     15  C   UNL     1       9.800   1.332  22.477  0.00  0.00    +0.159 A 
ATOM     16  C   UNL     1      10.599   1.679  23.563  0.00  0.00    +0.158 A 
ATOM     17  C   UNL     1      10.629   0.869  24.695  0.00  0.00    +0.050 A 
BRANCH  15  18
ATOM     18  O   UNL     1       9.786   2.127  21.363  0.00  0.00    -0.503 OA
ATOM     19  H   UNL     1       9.911   1.512  20.617  0.00  0.00    +0.292 HD
ENDBRANCH  15  18
BRANCH  16  20
ATOM     20  O   UNL     1      11.302   2.849  23.489  0.00  0.00    -0.503 OA
ATOM     21  H   UNL     1      11.668   3.041  24.372  0.00  0.00    +0.292 HD
ENDBRANCH  16  20
ENDBRANCH   1  13
BRANCH   5  22
ATOM     22  O   UNL     1       3.415  -4.010  24.382  0.00  0.00    -0.506 OA
ATOM     23  H   UNL     1       3.129  -4.889  24.713  0.00  0.00    +0.292 HD
ENDBRANCH   5  22
BRANCH   7  24
ATOM     24  O   UNL     1       5.888  -6.488  21.188  0.00  0.00    -0.507 OA
ATOM     25  H   UNL     1       5.225  -7.157  21.427  0.00  0.00    +0.292 HD
ENDBRANCH   7  24
BRANCH  11  26
ATOM     26  O   UNL     1       6.587   0.108  25.146  0.00  0.00    -0.453 OA
BRANCH  26  27
ATOM     27  C   UNL     1       5.778   1.101  24.501  0.00  0.00    +0.340 C 
ATOM     28  O   UNL     1       6.736   2.011  23.936  0.00  0.00    -0.322 OA
ATOM     29  C   UNL     1       6.368   3.405  23.842  0.00  0.00    +0.261 C 
ATOM     30  C   UNL     1       5.867   4.016  25.165  0.00  0.00    +0.185 C 
ATOM     31  C   UNL     1       5.648   2.920  26.214  0.00  0.00    +0.180 C 
ATOM     32  C   UNL     1       4.866   1.772  25.549  0.00  0.00    +0.214 C 
BRANCH  29  33
ATOM     33  C   UNL     1       7.681   4.088  23.449  0.00  0.00    +0.337 C 
ATOM     34  O   UNL     1       8.565   4.424  24.221  0.00  0.00    -0.248 OA
BRANCH  33  35
ATOM     35  O   UNL     1       7.780   4.289  22.105  0.00  0.00    -0.479 OA
ATOM     36  H   UNL     1       6.962   3.945  21.678  0.00  0.00    +0.295 HD
ENDBRANCH  33  35
ENDBRANCH  29  33
BRANCH  30  37
ATOM     37  O   UNL     1       4.630   4.722  24.932  0.00  0.00    -0.386 OA
ATOM     38  H   UNL     1       3.928   4.050  24.800  0.00  0.00    +0.210 HD
ENDBRANCH  30  37
BRANCH  31  39
ATOM     39  O   UNL     1       6.893   2.497  26.774  0.00  0.00    -0.386 OA
ATOM     40  H   UNL     1       7.580   2.466  26.079  0.00  0.00    +0.210 HD
ENDBRANCH  31  39
BRANCH  32  41
ATOM     41  O   UNL     1       3.680   2.305  24.931  0.00  0.00    -0.383 OA
ATOM     42  H   UNL     1       3.664   2.007  24.000  0.00  0.00    +0.210 HD
ENDBRANCH  32  41
ENDBRANCH  26  27
ENDBRANCH  11  26
TORSDOF 12
ENDMDL
MODEL 4
REMARK VINA RESULT:      -6.8      2.563      7.350
REMARK  Name = 
REMARK  12 active torsions:
REMARK  status: ('A' for Active; 'I' for Inactive)
REMARK    1  A    between atoms: C_3  and  O_38
REMARK    2  A    between atoms: C_4  and  O_37
REMARK    3  A    between atoms: C_6  and  C_7
REMARK    4  A    between atoms: C_8  and  O_20
REMARK    5  A    between atoms: C_12  and  O_19
REMARK    6  A    between atoms: C_14  and  O_18
REMARK    7  A    between atoms: O_20  and  C_21
REMARK    8  A    between atoms: C_22  and  O_36
REMARK    9  A    between atoms: C_24  and  O_35
REMARK   10  A    between atoms: C_26  and  O_34
REMARK   11  A    between atoms: C_28  and  C_31
REMARK   12  A    between atoms: C_31  and  O_33
REMARK                            x       y       z     vdW  Elec       q    Type
REMARK                         _______ _______ _______ _____ _____    ______ ____
ROOT
ATOM      1  C   UNL     1       8.388  -1.572  23.984  0.00  0.00    +0.181 A 
ATOM      2  O   UNL     1       8.341  -2.609  23.064  0.00  0.00    -0.451 OA
ATOM      3  C   UNL     1       7.414  -3.606  23.265  0.00  0.00    +0.147 A 
ATOM      4  C   UNL     1       6.689  -3.727  24.450  0.00  0.00    +0.109 A 
ATOM      5  C   UNL     1       5.755  -4.754  24.619  0.00  0.00    +0.135 A 
ATOM      6  C   UNL     1       5.535  -5.672  23.599  0.00  0.00    +0.091 A 
ATOM      7  C   UNL     1       6.264  -5.551  22.421  0.00  0.00    +0.124 A 
ATOM      8  C   UNL     1       6.939  -2.750  25.511  0.00  0.00    +0.238 A 
ATOM      9  O   UNL     1       6.501  -2.962  26.638  0.00  0.00    -0.283 OA
ATOM     10  C   UNL     1       7.197  -4.527  22.241  0.00  0.00    +0.092 A 
ATOM     11  C   UNL     1       7.708  -1.534  25.150  0.00  0.00    +0.214 A 
ENDROOT
BRANCH   1  13
ATOM     12  C   UNL     1      10.363  -0.033  24.251  0.00  0.00    +0.015 A 
ATOM     13  C   UNL     1       9.189  -0.403  23.564  0.00  0.00    +0.025 A 
ATOM     14  C   UNL     1       8.682   0.453  22.583  0.00  0.00    +0.060 A 
ATOM     15  C   UNL     1       9.261   1.702  22.400  0.00  0.00    +0.159 A 
ATOM     16  C   UNL     1      10.359   2.104  23.154  0.00  0.00    +0.158 A 
ATOM     17  C   UNL     1      10.945   1.224  24.059  0.00  0.00    +0.050 A 
BRANCH  15  18
ATOM     18  O   UNL     1       8.698   2.570  21.503  0.00  0.00    -0.503 OA
ATOM     19  H   UNL     1       8.586   2.047  20.688  0.00  0.00    +0.292 HD
ENDBRANCH  15  18
BRANCH  16  20
ATOM     20  O   UNL     1      10.798   3.390  23.004  0.00  0.00    -0.503 OA
ATOM     21  H   UNL     1      11.300   3.635  23.804  0.00  0.00    +0.292 HD
ENDBRANCH  16  20
ENDBRANCH   1  13
BRANCH   5  22
ATOM     22  O   UNL     1       5.008  -4.911  25.754  0.00  0.00    -0.506 OA
ATOM     23  H   UNL     1       4.142  -5.303  25.506  0.00  0.00    +0.292 HD
ENDBRANCH   5  22
BRANCH   7  24
ATOM     24  O   UNL     1       6.086  -6.438  21.400  0.00  0.00    -0.507 OA
ATOM     25  H   UNL     1       5.880  -5.945  20.588  0.00  0.00    +0.292 HD
ENDBRANCH   7  24
BRANCH  11  26
ATOM     26  O   UNL     1       7.696  -0.401  25.940  0.00  0.00    -0.453 OA
BRANCH  26  27
ATOM     27  C   UNL     1       6.451   0.202  26.319  0.00  0.00    +0.340 C 
ATOM     28  O   UNL     1       5.975   0.800  25.103  0.00  0.00    -0.322 OA
ATOM     29  C   UNL     1       5.193   2.011  25.208  0.00  0.00    +0.261 C 
ATOM     30  C   UNL     1       5.859   3.121  26.046  0.00  0.00    +0.185 C 
ATOM     31  C   UNL     1       7.093   2.577  26.773  0.00  0.00    +0.180 C 
ATOM     32  C   UNL     1       6.709   1.240  27.432  0.00  0.00    +0.214 C 
BRANCH  29  33
ATOM     33  C   UNL     1       5.086   2.486  23.756  0.00  0.00    +0.337 C 
ATOM     34  O   UNL     1       6.027   2.746  23.023  0.00  0.00    -0.248 OA
BRANCH  33  35
ATOM     35  O   UNL     1       3.793   2.588  23.338  0.00  0.00    -0.479 OA
ATOM     36  H   UNL     1       3.784   3.039  22.462  0.00  0.00    +0.295 HD
ENDBRANCH  33  35
ENDBRANCH  29  33
BRANCH  30  37
ATOM     37  O   UNL     1       4.912   3.634  27.006  0.00  0.00    -0.386 OA
ATOM     38  H   UNL     1       4.550   2.868  27.500  0.00  0.00    +0.210 HD
ENDBRANCH  30  37
BRANCH  31  39
ATOM     39  O   UNL     1       8.200   2.462  25.878  0.00  0.00    -0.386 OA
ATOM     40  H   UNL     1       8.239   3.241  25.290  0.00  0.00    +0.210 HD
ENDBRANCH  31  39
BRANCH  32  41
ATOM     41  O   UNL     1       5.530   1.432  28.237  0.00  0.00    -0.383 OA
ATOM     42  H   UNL     1       5.394   0.624  28.771  0.00  0.00    +0.210 HD
ENDBRANCH  32  41
ENDBRANCH  26  27
ENDBRANCH  11  26
TORSDOF 12
ENDMDL
MODEL 5
REMARK VINA RESULT:      -6.8      1.954      4.510
REMARK  Name = 
REMARK  12 active torsions:
REMARK  status: ('A' for Active; 'I' for Inactive)
REMARK    1  A    between atoms: C_3  and  O_38
REMARK    2  A    between atoms: C_4  and  O_37
REMARK    3  A    between atoms: C_6  and  C_7
REMARK    4  A    between atoms: C_8  and  O_20
REMARK    5  A    between atoms: C_12  and  O_19
REMARK    6  A    between atoms: C_14  and  O_18
REMARK    7  A    between atoms: O_20  and  C_21
REMARK    8  A    between atoms: C_22  and  O_36
REMARK    9  A    between atoms: C_24  and  O_35
REMARK   10  A    between atoms: C_26  and  O_34
REMARK   11  A    between atoms: C_28  and  C_31
REMARK   12  A    between atoms: C_31  and  O_33
REMARK                            x       y       z     vdW  Elec       q    Type
REMARK                         _______ _______ _______ _____ _____    ______ ____
ROOT
ATOM      1  C   UNL     1       6.607  -1.742  23.429  0.00  0.00    +0.181 A 
ATOM      2  O   UNL     1       7.569  -1.165  22.614  0.00  0.00    -0.451 OA
ATOM      3  C   UNL     1       7.886   0.157  22.828  0.00  0.00    +0.147 A 
ATOM      4  C   UNL     1       7.134   0.981  23.664  0.00  0.00    +0.109 A 
ATOM      5  C   UNL     1       7.485   2.321  23.858  0.00  0.00    +0.135 A 
ATOM      6  C   UNL     1       8.597   2.850  23.214  0.00  0.00    +0.091 A 
ATOM      7  C   UNL     1       9.341   2.027  22.376  0.00  0.00    +0.124 A 
ATOM      8  C   UNL     1       5.965   0.401  24.329  0.00  0.00    +0.238 A 
ATOM      9  O   UNL     1       5.155   1.145  24.876  0.00  0.00    -0.283 OA
ATOM     10  C   UNL     1       9.000   0.686  22.180  0.00  0.00    +0.092 A 
ATOM     11  C   UNL     1       5.836  -1.076  24.314  0.00  0.00    +0.214 A 
ENDROOT
BRANCH   1  13
ATOM     12  C   UNL     1       7.681  -4.017  23.335  0.00  0.00    +0.015 A 
ATOM     13  C   UNL     1       6.522  -3.216  23.345  0.00  0.00    +0.025 A 
ATOM     14  C   UNL     1       5.284  -3.813  23.089  0.00  0.00    +0.060 A 
ATOM     15  C   UNL     1       5.235  -5.146  22.702  0.00  0.00    +0.159 A 
ATOM     16  C   UNL     1       6.395  -5.908  22.596  0.00  0.00    +0.158 A 
ATOM     17  C   UNL     1       7.625  -5.361  22.951  0.00  0.00    +0.050 A 
BRANCH  15  18
ATOM     18  O   UNL     1       4.029  -5.695  22.363  0.00  0.00    -0.503 OA
ATOM     19  H   UNL     1       3.838  -5.345  21.473  0.00  0.00    +0.292 HD
ENDBRANCH  15  18
BRANCH  16  20
ATOM     20  O   UNL     1       6.282  -7.174  22.093  0.00  0.00    -0.503 OA
ATOM     21  H   UNL     1       6.611  -7.799  22.765  0.00  0.00    +0.292 HD
ENDBRANCH  16  20
ENDBRANCH   1  13
BRANCH   5  22
ATOM     22  O   UNL     1       6.791   3.169  24.676  0.00  0.00    -0.506 OA
ATOM     23  H   UNL     1       7.430   3.773  25.113  0.00  0.00    +0.292 HD
ENDBRANCH   5  22
BRANCH   7  24
ATOM     24  O   UNL     1      10.433   2.511  21.718  0.00  0.00    -0.507 OA
ATOM     25  H   UNL     1      10.750   3.307  22.177  0.00  0.00    +0.292 HD
ENDBRANCH   7  24
BRANCH  11  26
ATOM     26  O   UNL     1       5.004  -1.745  25.192  0.00  0.00    -0.453 OA
BRANCH  26  27
ATOM     27  C   UNL     1       5.432  -2.009  26.534  0.00  0.00    +0.340 C 
ATOM     28  O   UNL     1       6.121  -3.266  26.435  0.00  0.00    -0.322 OA
ATOM     29  C   UNL     1       6.071  -4.153  27.574  0.00  0.00    +0.261 C 
ATOM     30  C   UNL     1       4.647  -4.440  28.091  0.00  0.00    +0.185 C 
ATOM     31  C   UNL     1       3.634  -3.510  27.413  0.00  0.00    +0.180 C 
ATOM     32  C   UNL     1       4.197  -2.077  27.457  0.00  0.00    +0.214 C 
BRANCH  29  33
ATOM     33  C   UNL     1       6.670  -5.454  27.031  0.00  0.00    +0.337 C 
ATOM     34  O   UNL     1       6.106  -6.238  26.285  0.00  0.00    -0.248 OA
BRANCH  33  35
ATOM     35  O   UNL     1       7.944  -5.661  27.469  0.00  0.00    -0.479 OA
ATOM     36  H   UNL     1       8.432  -4.807  27.421  0.00  0.00    +0.295 HD
ENDBRANCH  33  35
ENDBRANCH  29  33
BRANCH  30  37
ATOM     37  O   UNL     1       4.605  -4.248  29.520  0.00  0.00    -0.386 OA
ATOM     38  H   UNL     1       4.732  -5.126  29.938  0.00  0.00    +0.210 HD
ENDBRANCH  30  37
BRANCH  31  39
ATOM     39  O   UNL     1       3.343  -3.956  26.088  0.00  0.00    -0.386 OA
ATOM     40  H   UNL     1       3.469  -4.923  26.024  0.00  0.00    +0.210 HD
ENDBRANCH  31  39
BRANCH  32  41
ATOM     41  O   UNL     1       4.550  -1.750  28.814  0.00  0.00    -0.383 OA
ATOM     42  H   UNL     1       5.514  -1.880  28.914  0.00  0.00    +0.210 HD
ENDBRANCH  32  41
ENDBRANCH  26  27
ENDBRANCH  11  26
TORSDOF 12
ENDMDL
MODEL 6
REMARK VINA RESULT:      -6.5      1.832      2.718
REMARK  Name = 
REMARK  12 active torsions:
REMARK  status: ('A' for Active; 'I' for Inactive)
REMARK    1  A    between atoms: C_3  and  O_38
REMARK    2  A    between atoms: C_4  and  O_37
REMARK    3  A    between atoms: C_6  and  C_7
REMARK    4  A    between atoms: C_8  and  O_20
REMARK    5  A    between atoms: C_12  and  O_19
REMARK    6  A    between atoms: C_14  and  O_18
REMARK    7  A    between atoms: O_20  and  C_21
REMARK    8  A    between atoms: C_22  and  O_36
REMARK    9  A    between atoms: C_24  and  O_35
REMARK   10  A    between atoms: C_26  and  O_34
REMARK   11  A    between atoms: C_28  and  C_31
REMARK   12  A    between atoms: C_31  and  O_33
REMARK                            x       y       z     vdW  Elec       q    Type
REMARK                         _______ _______ _______ _____ _____    ______ ____
ROOT
ATOM      1  C   UNL     1       6.928  -1.741  25.248  0.00  0.00    +0.181 A 
ATOM      2  O   UNL     1       7.426  -0.447  25.193  0.00  0.00    -0.451 OA
ATOM      3  C   UNL     1       8.202  -0.101  24.111  0.00  0.00    +0.147 A 
ATOM      4  C   UNL     1       8.681  -1.043  23.201  0.00  0.00    +0.109 A 
ATOM      5  C   UNL     1       9.467  -0.655  22.111  0.00  0.00    +0.135 A 
ATOM      6  C   UNL     1       9.783   0.685  21.921  0.00  0.00    +0.091 A 
ATOM      7  C   UNL     1       9.308   1.621  22.834  0.00  0.00    +0.124 A 
ATOM      8  C   UNL     1       8.337  -2.449  23.423  0.00  0.00    +0.238 A 
ATOM      9  O   UNL     1       8.928  -3.319  22.789  0.00  0.00    -0.283 OA
ATOM     10  C   UNL     1       8.519   1.243  23.923  0.00  0.00    +0.092 A 
ATOM     11  C   UNL     1       7.267  -2.741  24.408  0.00  0.00    +0.214 A 
ENDROOT
BRANCH   1  13
ATOM     12  C   UNL     1       5.988  -2.996  27.217  0.00  0.00    +0.015 A 
ATOM     13  C   UNL     1       5.880  -1.961  26.267  0.00  0.00    +0.025 A 
ATOM     14  C   UNL     1       4.681  -1.249  26.176  0.00  0.00    +0.060 A 
ATOM     15  C   UNL     1       3.584  -1.659  26.923  0.00  0.00    +0.159 A 
ATOM     16  C   UNL     1       3.667  -2.747  27.786  0.00  0.00    +0.158 A 
ATOM     17  C   UNL     1       4.882  -3.401  27.971  0.00  0.00    +0.050 A 
BRANCH  15  18
ATOM     18  O   UNL     1       2.389  -1.014  26.756  0.00  0.00    -0.503 OA
ATOM     19  H   UNL     1       2.504  -0.482  25.946  0.00  0.00    +0.292 HD
ENDBRANCH  15  18
BRANCH  16  20
ATOM     20  O   UNL     1       2.517  -3.167  28.395  0.00  0.00    -0.503 OA
ATOM     21  H   UNL     1       2.088  -3.823  27.815  0.00  0.00    +0.292 HD
ENDBRANCH  16  20
ENDBRANCH   1  13
BRANCH   5  22
ATOM     22  O   UNL     1       9.952  -1.535  21.183  0.00  0.00    -0.506 OA
ATOM     23  H   UNL     1      10.179  -1.035  20.369  0.00  0.00    +0.292 HD
ENDBRANCH   5  22
BRANCH   7  24
ATOM     24  O   UNL     1       9.605   2.944  22.690  0.00  0.00    -0.507 OA
ATOM     25  H   UNL     1       8.882   3.377  22.204  0.00  0.00    +0.292 HD
ENDBRANCH   7  24
BRANCH  11  26
ATOM     26  O   UNL     1       6.616  -3.960  24.439  0.00  0.00    -0.453 OA
BRANCH  26  27
ATOM     27  C   UNL     1       5.607  -4.265  23.467  0.00  0.00    +0.340 C 
ATOM     28  O   UNL     1       4.378  -3.937  24.133  0.00  0.00    -0.322 OA
ATOM     29  C   UNL     1       3.204  -4.712  23.802  0.00  0.00    +0.261 C 
ATOM     30  C   UNL     1       3.403  -6.237  23.911  0.00  0.00    +0.185 C 
ATOM     31  C   UNL     1       4.885  -6.572  24.111  0.00  0.00    +0.180 C 
ATOM     32  C   UNL     1       5.701  -5.758  23.090  0.00  0.00    +0.214 C 
BRANCH  29  33
ATOM     33  C   UNL     1       2.184  -4.271  24.856  0.00  0.00    +0.337 C 
ATOM     34  O   UNL     1       1.449  -3.300  24.770  0.00  0.00    -0.248 OA
BRANCH  33  35
ATOM     35  O   UNL     1       2.166  -5.098  25.939  0.00  0.00    -0.479 OA
ATOM     36  H   UNL     1       1.878  -4.577  26.724  0.00  0.00    +0.295 HD
ENDBRANCH  33  35
ENDBRANCH  29  33
BRANCH  30  37
ATOM     37  O   UNL     1       2.917  -6.873  22.710  0.00  0.00    -0.386 OA
ATOM     38  H   UNL     1       2.769  -7.820  22.918  0.00  0.00    +0.210 HD
ENDBRANCH  30  37
BRANCH  31  39
ATOM     39  O   UNL     1       5.282  -6.331  25.462  0.00  0.00    -0.386 OA
ATOM     40  H   UNL     1       5.982  -5.651  25.490  0.00  0.00    +0.210 HD
ENDBRANCH  31  39
BRANCH  32  41
ATOM     41  O   UNL     1       5.171  -5.988  21.771  0.00  0.00    -0.383 OA
ATOM     42  H   UNL     1       5.738  -6.652  21.329  0.00  0.00    +0.210 HD
ENDBRANCH  32  41
ENDBRANCH  26  27
ENDBRANCH  11  26
TORSDOF 12
ENDMDL
MODEL 7
REMARK VINA RESULT:      -6.4      2.422      7.547
REMARK  Name = 
REMARK  12 active torsions:
REMARK  status: ('A' for Active; 'I' for Inactive)
REMARK    1  A    between atoms: C_3  and  O_38
REMARK    2  A    between atoms: C_4  and  O_37
REMARK    3  A    between atoms: C_6  and  C_7
REMARK    4  A    between atoms: C_8  and  O_20
REMARK    5  A    between atoms: C_12  and  O_19
REMARK    6  A    between atoms: C_14  and  O_18
REMARK    7  A    between atoms: O_20  and  C_21
REMARK    8  A    between atoms: C_22  and  O_36
REMARK    9  A    between atoms: C_24  and  O_35
REMARK   10  A    between atoms: C_26  and  O_34
REMARK   11  A    between atoms: C_28  and  C_31
REMARK   12  A    between atoms: C_31  and  O_33
REMARK                            x       y       z     vdW  Elec       q    Type
REMARK                         _______ _______ _______ _____ _____    ______ ____
ROOT
ATOM      1  C   UNL     1       6.663  -0.780  25.666  0.00  0.00    +0.181 A 
ATOM      2  O   UNL     1       6.272  -1.808  26.512  0.00  0.00    -0.451 OA
ATOM      3  C   UNL     1       6.871  -3.036  26.352  0.00  0.00    +0.147 A 
ATOM      4  C   UNL     1       7.674  -3.341  25.254  0.00  0.00    +0.109 A 
ATOM      5  C   UNL     1       8.267  -4.601  25.124  0.00  0.00    +0.135 A 
ATOM      6  C   UNL     1       8.062  -5.571  26.097  0.00  0.00    +0.091 A 
ATOM      7  C   UNL     1       7.257  -5.266  27.189  0.00  0.00    +0.124 A 
ATOM      8  C   UNL     1       7.873  -2.303  24.240  0.00  0.00    +0.238 A 
ATOM      9  O   UNL     1       8.369  -2.608  23.159  0.00  0.00    -0.283 OA
ATOM     10  C   UNL     1       6.663  -4.008  27.329  0.00  0.00    +0.092 A 
ATOM     11  C   UNL     1       7.468  -0.921  24.592  0.00  0.00    +0.214 A 
ENDROOT
BRANCH   1  13
ATOM     12  C   UNL     1       5.254   1.276  25.309  0.00  0.00    +0.015 A 
ATOM     13  C   UNL     1       6.205   0.566  26.069  0.00  0.00    +0.025 A 
ATOM     14  C   UNL     1       6.856   1.220  27.119  0.00  0.00    +0.060 A 
ATOM     15  C   UNL     1       6.654   2.581  27.307  0.00  0.00    +0.159 A 
ATOM     16  C   UNL     1       5.790   3.300  26.487  0.00  0.00    +0.158 A 
ATOM     17  C   UNL     1       5.051   2.646  25.505  0.00  0.00    +0.050 A 
BRANCH  15  18
ATOM     18  O   UNL     1       7.367   3.230  28.278  0.00  0.00    -0.503 OA
ATOM     19  H   UNL     1       6.762   3.277  29.041  0.00  0.00    +0.292 HD
ENDBRANCH  15  18
BRANCH  16  20
ATOM     20  O   UNL     1       5.735   4.656  26.653  0.00  0.00    -0.503 OA
ATOM     21  H   UNL     1       6.171   4.878  27.497  0.00  0.00    +0.292 HD
ENDBRANCH  16  20
ENDBRANCH   1  13
BRANCH   5  22
ATOM     22  O   UNL     1       9.072  -4.948  24.074  0.00  0.00    -0.506 OA
ATOM     23  H   UNL     1       9.143  -4.179  23.468  0.00  0.00    +0.292 HD
ENDBRANCH   5  22
BRANCH   7  24
ATOM     24  O   UNL     1       7.022  -6.193  28.161  0.00  0.00    -0.507 OA
ATOM     25  H   UNL     1       7.855  -6.651  28.367  0.00  0.00    +0.292 HD
ENDBRANCH   7  24
BRANCH  11  26
ATOM     26  O   UNL     1       7.927   0.176  23.887  0.00  0.00    -0.453 OA
BRANCH  26  27
ATOM     27  C   UNL     1       8.964   1.003  24.432  0.00  0.00    +0.340 C 
ATOM     28  O   UNL     1       8.429   2.332  24.340  0.00  0.00    -0.322 OA
ATOM     29  C   UNL     1       9.356   3.419  24.124  0.00  0.00    +0.261 C 
ATOM     30  C   UNL     1      10.303   3.212  22.925  0.00  0.00    +0.185 C 
ATOM     31  C   UNL     1      10.192   1.779  22.395  0.00  0.00    +0.180 C 
ATOM     32  C   UNL     1      10.249   0.819  23.598  0.00  0.00    +0.214 C 
BRANCH  29  33
ATOM     33  C   UNL     1       8.438   4.609  23.828  0.00  0.00    +0.337 C 
ATOM     34  O   UNL     1       7.985   5.380  24.659  0.00  0.00    -0.248 OA
BRANCH  33  35
ATOM     35  O   UNL     1       8.168   4.738  22.499  0.00  0.00    -0.479 OA
ATOM     36  H   UNL     1       9.002   4.976  22.033  0.00  0.00    +0.295 HD
ENDBRANCH  33  35
ENDBRANCH  29  33
BRANCH  30  37
ATOM     37  O   UNL     1      11.661   3.479  23.332  0.00  0.00    -0.386 OA
ATOM     38  H   UNL     1      11.744   3.214  24.272  0.00  0.00    +0.210 HD
ENDBRANCH  30  37
BRANCH  31  39
ATOM     39  O   UNL     1       9.011   1.618  21.608  0.00  0.00    -0.386 OA
ATOM     40  H   UNL     1       9.248   1.346  20.699  0.00  0.00    +0.210 HD
ENDBRANCH  31  39
BRANCH  32  41
ATOM     41  O   UNL     1      11.418   1.117  24.384  0.00  0.00    -0.383 OA
ATOM     42  H   UNL     1      12.204   0.997  23.814  0.00  0.00    +0.210 HD
ENDBRANCH  32  41
ENDBRANCH  26  27
ENDBRANCH  11  26
TORSDOF 12
ENDMDL
MODEL 8
REMARK VINA RESULT:      -6.3      2.911      7.444
REMARK  Name = 
REMARK  12 active torsions:
REMARK  status: ('A' for Active; 'I' for Inactive)
REMARK    1  A    between atoms: C_3  and  O_38
REMARK    2  A    between atoms: C_4  and  O_37
REMARK    3  A    between atoms: C_6  and  C_7
REMARK    4  A    between atoms: C_8  and  O_20
REMARK    5  A    between atoms: C_12  and  O_19
REMARK    6  A    between atoms: C_14  and  O_18
REMARK    7  A    between atoms: O_20  and  C_21
REMARK    8  A    between atoms: C_22  and  O_36
REMARK    9  A    between atoms: C_24  and  O_35
REMARK   10  A    between atoms: C_26  and  O_34
REMARK   11  A    between atoms: C_28  and  C_31
REMARK   12  A    between atoms: C_31  and  O_33
REMARK                            x       y       z     vdW  Elec       q    Type
REMARK                         _______ _______ _______ _____ _____    ______ ____
ROOT
ATOM      1  C   UNL     1       7.724  -1.529  23.829  0.00  0.00    +0.181 A 
ATOM      2  O   UNL     1       8.020  -2.817  23.407  0.00  0.00    -0.451 OA
ATOM      3  C   UNL     1       6.981  -3.711  23.290  0.00  0.00    +0.147 A 
ATOM      4  C   UNL     1       5.704  -3.444  23.782  0.00  0.00    +0.109 A 
ATOM      5  C   UNL     1       4.671  -4.377  23.645  0.00  0.00    +0.135 A 
ATOM      6  C   UNL     1       4.908  -5.591  23.012  0.00  0.00    +0.091 A 
ATOM      7  C   UNL     1       6.184  -5.857  22.527  0.00  0.00    +0.124 A 
ATOM      8  C   UNL     1       5.479  -2.159  24.447  0.00  0.00    +0.238 A 
ATOM      9  O   UNL     1       4.449  -1.990  25.093  0.00  0.00    -0.283 OA
ATOM     10  C   UNL     1       7.221  -4.928  22.656  0.00  0.00    +0.092 A 
ATOM     11  C   UNL     1       6.522  -1.117  24.287  0.00  0.00    +0.214 A 
ENDROOT
BRANCH   1  13
ATOM     12  C   UNL     1       9.740  -0.293  24.692  0.00  0.00    +0.015 A 
ATOM     13  C   UNL     1       8.818  -0.550  23.657  0.00  0.00    +0.025 A 
ATOM     14  C   UNL     1       8.833   0.262  22.520  0.00  0.00    +0.060 A 
ATOM     15  C   UNL     1       9.657   1.379  22.489  0.00  0.00    +0.159 A 
ATOM     16  C   UNL     1      10.493   1.688  23.558  0.00  0.00    +0.158 A 
ATOM     17  C   UNL     1      10.572   0.831  24.653  0.00  0.00    +0.050 A 
BRANCH  15  18
ATOM     18  O   UNL     1       9.595   2.220  21.411  0.00  0.00    -0.503 OA
ATOM     19  H   UNL     1      10.107   1.769  20.714  0.00  0.00    +0.292 HD
ENDBRANCH  15  18
BRANCH  16  20
ATOM     20  O   UNL     1      11.184   2.867  23.508  0.00  0.00    -0.503 OA
ATOM     21  H   UNL     1      11.217   3.160  22.579  0.00  0.00    +0.292 HD
ENDBRANCH  16  20
ENDBRANCH   1  13
BRANCH   5  22
ATOM     22  O   UNL     1       3.398  -4.161  24.097  0.00  0.00    -0.506 OA
ATOM     23  H   UNL     1       3.129  -4.929  24.647  0.00  0.00    +0.292 HD
ENDBRANCH   5  22
BRANCH   7  24
ATOM     24  O   UNL     1       6.461  -7.040  21.909  0.00  0.00    -0.507 OA
ATOM     25  H   UNL     1       6.921  -6.858  21.072  0.00  0.00    +0.292 HD
ENDBRANCH   7  24
BRANCH  11  26
ATOM     26  O   UNL     1       6.269   0.216  24.549  0.00  0.00    -0.453 OA
BRANCH  26  27
ATOM     27  C   UNL     1       6.115   0.669  25.901  0.00  0.00    +0.340 C 
ATOM     28  O   UNL     1       4.787   1.217  25.930  0.00  0.00    -0.322 OA
ATOM     29  C   UNL     1       4.536   2.329  26.817  0.00  0.00    +0.261 C 
ATOM     30  C   UNL     1       5.522   3.503  26.653  0.00  0.00    +0.185 C 
ATOM     31  C   UNL     1       6.690   3.099  25.747  0.00  0.00    +0.180 C 
ATOM     32  C   UNL     1       7.200   1.722  26.210  0.00  0.00    +0.214 C 
BRANCH  29  33
ATOM     33  C   UNL     1       3.138   2.798  26.404  0.00  0.00    +0.337 C 
ATOM     34  O   UNL     1       2.468   2.322  25.502  0.00  0.00    -0.248 OA
BRANCH  33  35
ATOM     35  O   UNL     1       2.690   3.832  27.170  0.00  0.00    -0.479 OA
ATOM     36  H   UNL     1       2.585   4.624  26.593  0.00  0.00    +0.295 HD
ENDBRANCH  33  35
ENDBRANCH  29  33
BRANCH  30  37
ATOM     37  O   UNL     1       6.023   3.896  27.948  0.00  0.00    -0.386 OA
ATOM     38  H   UNL     1       6.902   3.478  28.064  0.00  0.00    +0.210 HD
ENDBRANCH  30  37
BRANCH  31  39
ATOM     39  O   UNL     1       6.297   3.117  24.374  0.00  0.00    -0.386 OA
ATOM     40  H   UNL     1       6.295   2.209  24.014  0.00  0.00    +0.210 HD
ENDBRANCH  31  39
BRANCH  32  41
ATOM     41  O   UNL     1       7.480   1.772  27.621  0.00  0.00    -0.383 OA
ATOM     42  H   UNL     1       8.415   2.036  27.735  0.00  0.00    +0.210 HD
ENDBRANCH  32  41
ENDBRANCH  26  27
ENDBRANCH  11  26
TORSDOF 12
ENDMDL
MODEL 9
REMARK VINA RESULT:      -6.2      2.643      4.022
REMARK  Name = 
REMARK  12 active torsions:
REMARK  status: ('A' for Active; 'I' for Inactive)
REMARK    1  A    between atoms: C_3  and  O_38
REMARK    2  A    between atoms: C_4  and  O_37
REMARK    3  A    between atoms: C_6  and  C_7
REMARK    4  A    between atoms: C_8  and  O_20
REMARK    5  A    between atoms: C_12  and  O_19
REMARK    6  A    between atoms: C_14  and  O_18
REMARK    7  A    between atoms: O_20  and  C_21
REMARK    8  A    between atoms: C_22  and  O_36
REMARK    9  A    between atoms: C_24  and  O_35
REMARK   10  A    between atoms: C_26  and  O_34
REMARK   11  A    between atoms: C_28  and  C_31
REMARK   12  A    between atoms: C_31  and  O_33
REMARK                            x       y       z     vdW  Elec       q    Type
REMARK                         _______ _______ _______ _____ _____    ______ ____
ROOT
ATOM      1  C   UNL     1       6.698   0.330  25.320  0.00  0.00    +0.181 A 
ATOM      2  O   UNL     1       7.724   1.262  25.350  0.00  0.00    -0.451 OA
ATOM      3  C   UNL     1       8.541   1.356  24.247  0.00  0.00    +0.147 A 
ATOM      4  C   UNL     1       8.518   0.418  23.216  0.00  0.00    +0.109 A 
ATOM      5  C   UNL     1       9.363   0.545  22.109  0.00  0.00    +0.135 A 
ATOM      6  C   UNL     1      10.244   1.617  22.024  0.00  0.00    +0.091 A 
ATOM      7  C   UNL     1      10.269   2.548  23.057  0.00  0.00    +0.124 A 
ATOM      8  C   UNL     1       7.584  -0.704  23.329  0.00  0.00    +0.238 A 
ATOM      9  O   UNL     1       7.700  -1.661  22.569  0.00  0.00    -0.283 OA
ATOM     10  C   UNL     1       9.425   2.431  24.164  0.00  0.00    +0.092 A 
ATOM     11  C   UNL     1       6.526  -0.607  24.364  0.00  0.00    +0.214 A 
ENDROOT
BRANCH   1  13
ATOM     12  C   UNL     1       5.872  -0.131  27.654  0.00  0.00    +0.015 A 
ATOM     13  C   UNL     1       5.693   0.476  26.394  0.00  0.00    +0.025 A 
ATOM     14  C   UNL     1       4.464   1.073  26.100  0.00  0.00    +0.060 A 
ATOM     15  C   UNL     1       3.408   0.941  26.993  0.00  0.00    +0.159 A 
ATOM     16  C   UNL     1       3.562   0.252  28.193  0.00  0.00    +0.158 A 
ATOM     17  C   UNL     1       4.807  -0.256  28.552  0.00  0.00    +0.050 A 
BRANCH  15  18
ATOM     18  O   UNL     1       2.184   1.448  26.653  0.00  0.00    -0.503 OA
ATOM     19  H   UNL     1       2.336   1.925  25.816  0.00  0.00    +0.292 HD
ENDBRANCH  15  18
BRANCH  16  20
ATOM     20  O   UNL     1       2.450   0.059  28.963  0.00  0.00    -0.503 OA
ATOM     21  H   UNL     1       2.189   0.918  29.343  0.00  0.00    +0.292 HD
ENDBRANCH  16  20
ENDBRANCH   1  13
BRANCH   5  22
ATOM     22  O   UNL     1       9.372  -0.338  21.065  0.00  0.00    -0.506 OA
ATOM     23  H   UNL     1       9.073  -1.213  21.395  0.00  0.00    +0.292 HD
ENDBRANCH   5  22
BRANCH   7  24
ATOM     24  O   UNL     1      11.125   3.608  23.017  0.00  0.00    -0.507 OA
ATOM     25  H   UNL     1      10.630   4.420  23.217  0.00  0.00    +0.292 HD
ENDBRANCH   7  24
BRANCH  11  26
ATOM     26  O   UNL     1       5.396  -1.403  24.330  0.00  0.00    -0.453 OA
BRANCH  26  27
ATOM     27  C   UNL     1       5.321  -2.584  25.140  0.00  0.00    +0.340 C 
ATOM     28  O   UNL     1       6.630  -3.164  25.025  0.00  0.00    -0.322 OA
ATOM     29  C   UNL     1       6.737  -4.604  25.087  0.00  0.00    +0.261 C 
ATOM     30  C   UNL     1       5.807  -5.349  24.109  0.00  0.00    +0.185 C 
ATOM     31  C   UNL     1       4.808  -4.377  23.472  0.00  0.00    +0.180 C 
ATOM     32  C   UNL     1       4.210  -3.505  24.592  0.00  0.00    +0.214 C 
BRANCH  29  33
ATOM     33  C   UNL     1       8.191  -4.865  24.681  0.00  0.00    +0.337 C 
ATOM     34  O   UNL     1       9.012  -5.481  25.342  0.00  0.00    -0.248 OA
BRANCH  33  35
ATOM     35  O   UNL     1       8.494  -4.331  23.465  0.00  0.00    -0.479 OA
ATOM     36  H   UNL     1       8.700  -3.375  23.587  0.00  0.00    +0.295 HD
ENDBRANCH  33  35
ENDBRANCH  29  33
BRANCH  30  37
ATOM     37  O   UNL     1       5.096  -6.387  24.815  0.00  0.00    -0.386 OA
ATOM     38  H   UNL     1       5.370  -7.246  24.431  0.00  0.00    +0.210 HD
ENDBRANCH  30  37
BRANCH  31  39
ATOM     39  O   UNL     1       5.432  -3.611  22.440  0.00  0.00    -0.386 OA
ATOM     40  H   UNL     1       5.923  -2.861  22.829  0.00  0.00    +0.210 HD
ENDBRANCH  31  39
BRANCH  32  41
ATOM     41  O   UNL     1       3.692  -4.359  25.629  0.00  0.00    -0.383 OA
ATOM     42  H   UNL     1       4.287  -5.131  25.709  0.00  0.00    +0.210 HD
ENDBRANCH  32  41
ENDBRANCH  26  27
ENDBRANCH  11  26
TORSDOF 12
ENDMDL
