MODEL 1
REMARK VINA RESULT:      -6.8      0.000      0.000
REMARK  Name = 
REMARK  28 active torsions:
REMARK  status: ('A' for Active; 'I' for Inactive)
REMARK    1  A    between atoms: C_1  and  C_2
REMARK    2  A    between atoms: C_3  and  O_76
REMARK    3  A    between atoms: C_5  and  O_75
REMARK    4  A    between atoms: C_6  and  O_74
REMARK    5  A    between atoms: C_8  and  O_11
REMARK    6  A    between atoms: O_11  and  C_12
REMARK    7  A    between atoms: C_12  and  C_13
REMARK    8  A    between atoms: C_14  and  O_73
REMARK    9  A    between atoms: C_16  and  O_72
REMARK   10  A    between atoms: C_18  and  O_57
REMARK   11  A    between atoms: C_19  and  O_22
REMARK   12  A    between atoms: O_22  and  C_23
REMARK   13  A    between atoms: C_24  and  C_49
REMARK   14  A    between atoms: C_28  and  O_35
REMARK   15  A    between atoms: C_30  and  O_34
REMARK   16  A    between atoms: O_35  and  C_36
REMARK   17  A    between atoms: C_38  and  O_48
REMARK   18  A    between atoms: C_40  and  O_47
REMARK   19  A    between atoms: C_41  and  O_46
REMARK   20  A    between atoms: C_43  and  C_45
REMARK   21  A    between atoms: C_51  and  O_56
REMARK   22  A    between atoms: C_52  and  O_55
REMARK   23  A    between atoms: O_57  and  C_58
REMARK   24  A    between atoms: C_60  and  O_71
REMARK   25  A    between atoms: C_61  and  O_70
REMARK   26  A    between atoms: C_63  and  O_69
REMARK   27  A    between atoms: C_65  and  C_67
REMARK   28  A    between atoms: C_67  and  O_68
REMARK                            x       y       z     vdW  Elec       q    Type
REMARK                         _______ _______ _______ _____ _____    ______ ____
ROOT
ATOM      1  C   UNL     1       8.537  -3.552  23.912  0.00  0.00    +0.179 C 
ATOM      2  O   UNL     1       7.310  -2.831  24.184  0.00  0.00    -0.331 OA
ATOM      3  C   UNL     1       6.705  -2.851  25.510  0.00  0.00    +0.340 C 
ATOM      4  C   UNL     1       6.669  -4.291  26.112  0.00  0.00    +0.221 C 
ATOM      5  C   UNL     1       8.102  -4.820  26.046  0.00  0.00    +0.180 C 
ATOM      6  C   UNL     1       8.540  -4.949  24.587  0.00  0.00    +0.177 C 
ENDROOT
BRANCH   6   7
ATOM      7  O   UNL     1       9.824  -5.596  24.589  0.00  0.00    -0.386 OA
ATOM      8  H   UNL     1      10.263  -5.379  25.431  0.00  0.00    +0.210 HD
ENDBRANCH   6   7
BRANCH   5   9
ATOM      9  O   UNL     1       8.268  -6.072  26.712  0.00  0.00    -0.386 OA
ATOM     10  H   UNL     1       7.843  -5.964  27.586  0.00  0.00    +0.210 HD
ENDBRANCH   5   9
BRANCH   4  11
ATOM     11  O   UNL     1       5.686  -5.146  25.446  0.00  0.00    -0.337 OA
BRANCH  11  12
ATOM     12  C   UNL     1       4.362  -4.585  25.244  0.00  0.00    +0.282 C 
ATOM     13  O   UNL     1       3.397  -5.299  26.060  0.00  0.00    -0.341 OA
ATOM     14  C   UNL     1       3.153  -6.667  25.675  0.00  0.00    +0.178 C 
ATOM     15  C   UNL     1       2.800  -6.829  24.177  0.00  0.00    +0.177 C 
ATOM     16  C   UNL     1       3.785  -6.057  23.298  0.00  0.00    +0.179 C 
ATOM     17  C   UNL     1       3.855  -4.602  23.779  0.00  0.00    +0.201 C 
BRANCH  17  18
ATOM     18  O   UNL     1       4.603  -3.811  22.851  0.00  0.00    -0.384 OA
ATOM     19  H   UNL     1       4.571  -4.249  21.981  0.00  0.00    +0.210 HD
ENDBRANCH  17  18
BRANCH  16  20
ATOM     20  O   UNL     1       5.073  -6.675  23.305  0.00  0.00    -0.386 OA
ATOM     21  H   UNL     1       5.749  -5.972  23.405  0.00  0.00    +0.210 HD
ENDBRANCH  16  20
BRANCH  15  22
ATOM     22  O   UNL     1       1.471  -6.360  23.913  0.00  0.00    -0.386 OA
ATOM     23  H   UNL     1       1.346  -5.502  24.357  0.00  0.00    +0.210 HD
ENDBRANCH  15  22
BRANCH  14  24
ATOM     24  C   UNL     1       2.014  -7.250  26.540  0.00  0.00    +0.190 C 
BRANCH  24  25
ATOM     25  O   UNL     1       1.014  -6.289  26.878  0.00  0.00    -0.392 OA
ATOM     26  H   UNL     1       0.743  -6.453  27.796  0.00  0.00    +0.210 HD
ENDBRANCH  24  25
ENDBRANCH  14  24
ENDBRANCH  11  12
ENDBRANCH   4  11
BRANCH   3  27
ATOM     27  O   UNL     1       5.365  -2.297  25.421  0.00  0.00    -0.453 OA
BRANCH  27  28
ATOM     28  C   UNL     1       4.963  -0.986  25.714  0.00  0.00    +0.214 A 
ATOM     29  C   UNL     1       5.361   0.245  24.949  0.00  0.00    +0.238 A 
ATOM     30  O   UNL     1       6.133   0.149  24.009  0.00  0.00    -0.283 OA
ATOM     31  C   UNL     1       4.818   1.567  25.427  0.00  0.00    +0.109 A 
ATOM     32  C   UNL     1       3.980   1.579  26.538  0.00  0.00    +0.147 A 
ATOM     33  C   UNL     1       3.466   2.777  27.083  0.00  0.00    +0.093 A 
ATOM     34  C   UNL     1       3.861   4.012  26.577  0.00  0.00    +0.131 A 
ATOM     35  C   UNL     1       4.639   4.022  25.420  0.00  0.00    +0.092 A 
ATOM     36  O   UNL     1       3.627   0.438  27.199  0.00  0.00    -0.451 OA
ATOM     37  C   UNL     1       5.097   2.810  24.840  0.00  0.00    +0.135 A 
ATOM     38  C   UNL     1       4.138  -0.763  26.763  0.00  0.00    +0.181 A 
BRANCH  38  39
ATOM     39  C   UNL     1       3.614  -1.861  27.562  0.00  0.00    +0.025 A 
ATOM     40  C   UNL     1       2.260  -2.173  27.386  0.00  0.00    +0.015 A 
ATOM     41  C   UNL     1       1.674  -3.164  28.154  0.00  0.00    +0.050 A 
ATOM     42  C   UNL     1       2.479  -3.915  29.001  0.00  0.00    +0.158 A 
ATOM     43  C   UNL     1       3.841  -3.640  29.138  0.00  0.00    +0.159 A 
ATOM     44  C   UNL     1       4.404  -2.557  28.481  0.00  0.00    +0.060 A 
BRANCH  42  45
ATOM     45  O   UNL     1       1.905  -4.985  29.620  0.00  0.00    -0.503 OA
ATOM     46  H   UNL     1       2.533  -5.713  29.457  0.00  0.00    +0.292 HD
ENDBRANCH  42  45
BRANCH  43  47
ATOM     47  O   UNL     1       4.667  -4.468  29.844  0.00  0.00    -0.503 OA
ATOM     48  H   UNL     1       4.150  -4.831  30.585  0.00  0.00    +0.292 HD
ENDBRANCH  43  47
ENDBRANCH  38  39
BRANCH  37  49
ATOM     49  O   UNL     1       5.829   2.878  23.687  0.00  0.00    -0.506 OA
ATOM     50  H   UNL     1       6.157   3.781  23.551  0.00  0.00    +0.292 HD
ENDBRANCH  37  49
BRANCH  34  51
ATOM     51  O   UNL     1       3.462   5.114  27.306  0.00  0.00    -0.461 OA
BRANCH  51  52
ATOM     52  C   UNL     1       4.398   5.606  28.286  0.00  0.00    +0.339 C 
ATOM     53  O   UNL     1       5.680   5.910  27.726  0.00  0.00    -0.334 OA
ATOM     54  C   UNL     1       6.401   4.745  27.298  0.00  0.00    +0.150 C 
ATOM     55  C   UNL     1       7.658   5.233  26.588  0.00  0.00    +0.041 C 
ATOM     56  C   UNL     1       6.750   3.863  28.502  0.00  0.00    +0.174 C 
ATOM     57  C   UNL     1       5.462   3.449  29.233  0.00  0.00    +0.180 C 
ATOM     58  C   UNL     1       4.572   4.671  29.520  0.00  0.00    +0.214 C 
BRANCH  58  59
ATOM     59  O   UNL     1       3.322   4.243  30.070  0.00  0.00    -0.383 OA
ATOM     60  H   UNL     1       2.758   3.930  29.344  0.00  0.00    +0.210 HD
ENDBRANCH  58  59
BRANCH  57  61
ATOM     61  O   UNL     1       5.813   2.782  30.463  0.00  0.00    -0.386 OA
ATOM     62  H   UNL     1       6.091   3.446  31.117  0.00  0.00    +0.210 HD
ENDBRANCH  57  61
BRANCH  56  63
ATOM     63  O   UNL     1       7.518   2.726  28.099  0.00  0.00    -0.387 OA
ATOM     64  H   UNL     1       8.434   3.007  27.932  0.00  0.00    +0.210 HD
ENDBRANCH  56  63
ENDBRANCH  51  52
ENDBRANCH  34  51
ENDBRANCH  27  28
ENDBRANCH   3  27
BRANCH   1  65
ATOM     65  C   UNL     1       9.904  -2.814  24.167  0.00  0.00    +0.197 C 
BRANCH  65  66
ATOM     66  O   UNL     1      10.396  -1.874  23.195  0.00  0.00    -0.346 OA
BRANCH  66  70
ATOM     67  C   UNL     1       8.393   1.329  21.179  0.00  0.00    +0.041 C 
ATOM     68  C   UNL     1       9.718   1.446  21.925  0.00  0.00    +0.149 C 
ATOM     69  O   UNL     1      10.294   0.160  22.144  0.00  0.00    -0.343 OA
ATOM     70  C   UNL     1       9.654  -0.659  23.109  0.00  0.00    +0.282 C 
ATOM     71  C   UNL     1       9.591   0.057  24.497  0.00  0.00    +0.201 C 
ATOM     72  C   UNL     1       8.899   1.421  24.320  0.00  0.00    +0.179 C 
ATOM     73  C   UNL     1       9.604   2.245  23.232  0.00  0.00    +0.174 C 
BRANCH  73  74
ATOM     74  O   UNL     1      10.920   2.605  23.696  0.00  0.00    -0.387 OA
ATOM     75  H   UNL     1      11.282   3.242  23.037  0.00  0.00    +0.210 HD
ENDBRANCH  73  74
BRANCH  72  76
ATOM     76  O   UNL     1       8.910   2.151  25.556  0.00  0.00    -0.386 OA
ATOM     77  H   UNL     1       8.404   2.970  25.369  0.00  0.00    +0.210 HD
ENDBRANCH  72  76
BRANCH  71  78
ATOM     78  O   UNL     1      10.910   0.305  25.039  0.00  0.00    -0.384 OA
ATOM     79  H   UNL     1      10.915  -0.078  25.936  0.00  0.00    +0.210 HD
ENDBRANCH  71  78
ENDBRANCH  66  70
ENDBRANCH  65  66
ENDBRANCH   1  65
TORSDOF 26
ENDMDL
MODEL 2
REMARK VINA RESULT:      -6.8      1.839      3.521
REMARK  Name = 
REMARK  28 active torsions:
REMARK  status: ('A' for Active; 'I' for Inactive)
REMARK    1  A    between atoms: C_1  and  C_2
REMARK    2  A    between atoms: C_3  and  O_76
REMARK    3  A    between atoms: C_5  and  O_75
REMARK    4  A    between atoms: C_6  and  O_74
REMARK    5  A    between atoms: C_8  and  O_11
REMARK    6  A    between atoms: O_11  and  C_12
REMARK    7  A    between atoms: C_12  and  C_13
REMARK    8  A    between atoms: C_14  and  O_73
REMARK    9  A    between atoms: C_16  and  O_72
REMARK   10  A    between atoms: C_18  and  O_57
REMARK   11  A    between atoms: C_19  and  O_22
REMARK   12  A    between atoms: O_22  and  C_23
REMARK   13  A    between atoms: C_24  and  C_49
REMARK   14  A    between atoms: C_28  and  O_35
REMARK   15  A    between atoms: C_30  and  O_34
REMARK   16  A    between atoms: O_35  and  C_36
REMARK   17  A    between atoms: C_38  and  O_48
REMARK   18  A    between atoms: C_40  and  O_47
REMARK   19  A    between atoms: C_41  and  O_46
REMARK   20  A    between atoms: C_43  and  C_45
REMARK   21  A    between atoms: C_51  and  O_56
REMARK   22  A    between atoms: C_52  and  O_55
REMARK   23  A    between atoms: O_57  and  C_58
REMARK   24  A    between atoms: C_60  and  O_71
REMARK   25  A    between atoms: C_61  and  O_70
REMARK   26  A    between atoms: C_63  and  O_69
REMARK   27  A    between atoms: C_65  and  C_67
REMARK   28  A    between atoms: C_67  and  O_68
REMARK                            x       y       z     vdW  Elec       q    Type
REMARK                         _______ _______ _______ _____ _____    ______ ____
ROOT
ATOM      1  C   UNL     1       7.978  -3.503  24.270  0.00  0.00    +0.179 C 
ATOM      2  O   UNL     1       7.104  -2.732  25.131  0.00  0.00    -0.331 OA
ATOM      3  C   UNL     1       7.159  -2.877  26.580  0.00  0.00    +0.340 C 
ATOM      4  C   UNL     1       7.214  -4.376  27.014  0.00  0.00    +0.221 C 
ATOM      5  C   UNL     1       8.387  -4.999  26.256  0.00  0.00    +0.180 C 
ATOM      6  C   UNL     1       8.105  -4.972  24.754  0.00  0.00    +0.177 C 
ENDROOT
BRANCH   6   7
ATOM      7  O   UNL     1       9.161  -5.709  24.115  0.00  0.00    -0.386 OA
ATOM      8  H   UNL     1       8.912  -5.832  23.181  0.00  0.00    +0.210 HD
ENDBRANCH   6   7
BRANCH   5   9
ATOM      9  O   UNL     1       8.673  -6.336  26.669  0.00  0.00    -0.386 OA
ATOM     10  H   UNL     1       8.080  -6.908  26.140  0.00  0.00    +0.210 HD
ENDBRANCH   5   9
BRANCH   4  11
ATOM     11  O   UNL     1       5.937  -5.061  26.806  0.00  0.00    -0.337 OA
BRANCH  11  12
ATOM     12  C   UNL     1       5.799  -6.379  27.400  0.00  0.00    +0.282 C 
ATOM     13  O   UNL     1       4.784  -7.133  26.688  0.00  0.00    -0.341 OA
ATOM     14  C   UNL     1       3.435  -6.647  26.835  0.00  0.00    +0.178 C 
ATOM     15  C   UNL     1       3.011  -6.453  28.311  0.00  0.00    +0.177 C 
ATOM     16  C   UNL     1       4.081  -5.689  29.091  0.00  0.00    +0.179 C 
ATOM     17  C   UNL     1       5.434  -6.389  28.907  0.00  0.00    +0.201 C 
BRANCH  17  18
ATOM     18  O   UNL     1       6.407  -5.822  29.788  0.00  0.00    -0.384 OA
ATOM     19  H   UNL     1       7.219  -5.651  29.276  0.00  0.00    +0.210 HD
ENDBRANCH  17  18
BRANCH  16  20
ATOM     20  O   UNL     1       4.137  -4.321  28.680  0.00  0.00    -0.386 OA
ATOM     21  H   UNL     1       4.900  -3.899  29.128  0.00  0.00    +0.210 HD
ENDBRANCH  16  20
BRANCH  15  22
ATOM     22  O   UNL     1       2.783  -7.718  28.947  0.00  0.00    -0.386 OA
ATOM     23  H   UNL     1       3.428  -8.363  28.603  0.00  0.00    +0.210 HD
ENDBRANCH  15  22
BRANCH  14  24
ATOM     24  C   UNL     1       2.457  -7.620  26.141  0.00  0.00    +0.190 C 
BRANCH  24  25
ATOM     25  O   UNL     1       3.099  -8.506  25.224  0.00  0.00    -0.392 OA
ATOM     26  H   UNL     1       3.516  -7.968  24.532  0.00  0.00    +0.210 HD
ENDBRANCH  24  25
ENDBRANCH  14  24
ENDBRANCH  11  12
ENDBRANCH   4  11
BRANCH   3  27
ATOM     27  O   UNL     1       6.002  -2.216  27.160  0.00  0.00    -0.453 OA
BRANCH  27  28
ATOM     28  C   UNL     1       5.565  -0.904  26.929  0.00  0.00    +0.214 A 
ATOM     29  C   UNL     1       6.408   0.335  27.048  0.00  0.00    +0.238 A 
ATOM     30  O   UNL     1       7.568   0.244  27.416  0.00  0.00    -0.283 OA
ATOM     31  C   UNL     1       5.747   1.657  26.755  0.00  0.00    +0.109 A 
ATOM     32  C   UNL     1       4.404   1.662  26.387  0.00  0.00    +0.147 A 
ATOM     33  C   UNL     1       3.693   2.858  26.141  0.00  0.00    +0.093 A 
ATOM     34  C   UNL     1       4.293   4.095  26.353  0.00  0.00    +0.131 A 
ATOM     35  C   UNL     1       5.657   4.114  26.649  0.00  0.00    +0.092 A 
ATOM     36  O   UNL     1       3.674   0.514  26.273  0.00  0.00    -0.451 OA
ATOM     37  C   UNL     1       6.380   2.906  26.829  0.00  0.00    +0.135 A 
ATOM     38  C   UNL     1       4.283  -0.687  26.556  0.00  0.00    +0.181 A 
BRANCH  38  39
ATOM     39  C   UNL     1       3.361  -1.791  26.335  0.00  0.00    +0.025 A 
ATOM     40  C   UNL     1       2.217  -1.825  27.144  0.00  0.00    +0.015 A 
ATOM     41  C   UNL     1       1.325  -2.877  27.035  0.00  0.00    +0.050 A 
ATOM     42  C   UNL     1       1.522  -3.819  26.034  0.00  0.00    +0.158 A 
ATOM     43  C   UNL     1       2.634  -3.757  25.191  0.00  0.00    +0.159 A 
ATOM     44  C   UNL     1       3.607  -2.790  25.388  0.00  0.00    +0.060 A 
BRANCH  42  45
ATOM     45  O   UNL     1       0.543  -4.747  25.849  0.00  0.00    -0.503 OA
ATOM     46  H   UNL     1       0.919  -5.563  26.230  0.00  0.00    +0.292 HD
ENDBRANCH  42  45
BRANCH  43  47
ATOM     47  O   UNL     1       2.753  -4.582  24.109  0.00  0.00    -0.503 OA
ATOM     48  H   UNL     1       3.583  -4.349  23.656  0.00  0.00    +0.292 HD
ENDBRANCH  43  47
ENDBRANCH  38  39
BRANCH  37  49
ATOM     49  O   UNL     1       7.720   2.984  27.086  0.00  0.00    -0.506 OA
ATOM     50  H   UNL     1       8.227   2.683  26.314  0.00  0.00    +0.292 HD
ENDBRANCH  37  49
BRANCH  34  51
ATOM     51  O   UNL     1       3.456   5.189  26.280  0.00  0.00    -0.461 OA
BRANCH  51  52
ATOM     52  C   UNL     1       3.495   5.945  25.053  0.00  0.00    +0.339 C 
ATOM     53  O   UNL     1       2.936   5.232  23.945  0.00  0.00    -0.334 OA
ATOM     54  C   UNL     1       3.729   4.108  23.536  0.00  0.00    +0.150 C 
ATOM     55  C   UNL     1       2.936   3.366  22.466  0.00  0.00    +0.041 C 
ATOM     56  C   UNL     1       5.083   4.580  22.996  0.00  0.00    +0.174 C 
ATOM     57  C   UNL     1       5.823   5.383  24.079  0.00  0.00    +0.180 C 
ATOM     58  C   UNL     1       4.913   6.471  24.678  0.00  0.00    +0.214 C 
BRANCH  58  59
ATOM     59  O   UNL     1       5.575   7.106  25.777  0.00  0.00    -0.383 OA
ATOM     60  H   UNL     1       5.047   7.874  26.051  0.00  0.00    +0.210 HD
ENDBRANCH  58  59
BRANCH  57  61
ATOM     61  O   UNL     1       7.003   5.978  23.500  0.00  0.00    -0.386 OA
ATOM     62  H   UNL     1       7.479   5.305  22.985  0.00  0.00    +0.210 HD
ENDBRANCH  57  61
BRANCH  56  63
ATOM     63  O   UNL     1       5.865   3.475  22.533  0.00  0.00    -0.387 OA
ATOM     64  H   UNL     1       5.271   2.814  22.136  0.00  0.00    +0.210 HD
ENDBRANCH  56  63
ENDBRANCH  51  52
ENDBRANCH  34  51
ENDBRANCH  27  28
ENDBRANCH   3  27
BRANCH   1  65
ATOM     65  C   UNL     1       9.396  -2.910  23.928  0.00  0.00    +0.197 C 
BRANCH  65  66
ATOM     66  O   UNL     1       9.589  -2.200  22.692  0.00  0.00    -0.346 OA
BRANCH  66  70
ATOM     67  C   UNL     1      11.671   1.069  24.514  0.00  0.00    +0.041 C 
ATOM     68  C   UNL     1      10.164   0.841  24.569  0.00  0.00    +0.149 C 
ATOM     69  O   UNL     1       9.839  -0.501  24.210  0.00  0.00    -0.343 OA
ATOM     70  C   UNL     1       9.989  -0.839  22.841  0.00  0.00    +0.282 C 
ATOM     71  C   UNL     1       9.126   0.099  21.936  0.00  0.00    +0.201 C 
ATOM     72  C   UNL     1       9.505   1.562  22.234  0.00  0.00    +0.179 C 
ATOM     73  C   UNL     1       9.370   1.857  23.736  0.00  0.00    +0.174 C 
BRANCH  73  74
ATOM     74  O   UNL     1       7.978   1.801  24.100  0.00  0.00    -0.387 OA
ATOM     75  H   UNL     1       7.642   0.933  23.777  0.00  0.00    +0.210 HD
ENDBRANCH  73  74
BRANCH  72  76
ATOM     76  O   UNL     1       8.665   2.457  21.492  0.00  0.00    -0.386 OA
ATOM     77  H   UNL     1       9.272   2.925  20.880  0.00  0.00    +0.210 HD
ENDBRANCH  72  76
BRANCH  71  78
ATOM     78  O   UNL     1       7.710  -0.046  22.200  0.00  0.00    -0.384 OA
ATOM     79  H   UNL     1       7.256   0.592  21.619  0.00  0.00    +0.210 HD
ENDBRANCH  71  78
ENDBRANCH  66  70
ENDBRANCH  65  66
ENDBRANCH   1  65
TORSDOF 26
ENDMDL
MODEL 3
REMARK VINA RESULT:      -6.7      2.229      6.468
REMARK  Name = 
REMARK  28 active torsions:
REMARK  status: ('A' for Active; 'I' for Inactive)
REMARK    1  A    between atoms: C_1  and  C_2
REMARK    2  A    between atoms: C_3  and  O_76
REMARK    3  A    between atoms: C_5  and  O_75
REMARK    4  A    between atoms: C_6  and  O_74
REMARK    5  A    between atoms: C_8  and  O_11
REMARK    6  A    between atoms: O_11  and  C_12
REMARK    7  A    between atoms: C_12  and  C_13
REMARK    8  A    between atoms: C_14  and  O_73
REMARK    9  A    between atoms: C_16  and  O_72
REMARK   10  A    between atoms: C_18  and  O_57
REMARK   11  A    between atoms: C_19  and  O_22
REMARK   12  A    between atoms: O_22  and  C_23
REMARK   13  A    between atoms: C_24  and  C_49
REMARK   14  A    between atoms: C_28  and  O_35
REMARK   15  A    between atoms: C_30  and  O_34
REMARK   16  A    between atoms: O_35  and  C_36
REMARK   17  A    between atoms: C_38  and  O_48
REMARK   18  A    between atoms: C_40  and  O_47
REMARK   19  A    between atoms: C_41  and  O_46
REMARK   20  A    between atoms: C_43  and  C_45
REMARK   21  A    between atoms: C_51  and  O_56
REMARK   22  A    between atoms: C_52  and  O_55
REMARK   23  A    between atoms: O_57  and  C_58
REMARK   24  A    between atoms: C_60  and  O_71
REMARK   25  A    between atoms: C_61  and  O_70
REMARK   26  A    between atoms: C_63  and  O_69
REMARK   27  A    between atoms: C_65  and  C_67
REMARK   28  A    between atoms: C_67  and  O_68
REMARK                            x       y       z     vdW  Elec       q    Type
REMARK                         _______ _______ _______ _____ _____    ______ ____
ROOT
ATOM      1  C   UNL     1       2.516  -2.492  29.792  0.00  0.00    +0.179 C 
ATOM      2  O   UNL     1       3.720  -2.045  29.123  0.00  0.00    -0.331 OA
ATOM      3  C   UNL     1       3.777  -1.938  27.670  0.00  0.00    +0.340 C 
ATOM      4  C   UNL     1       3.165  -3.192  26.970  0.00  0.00    +0.221 C 
ATOM      5  C   UNL     1       1.762  -3.367  27.552  0.00  0.00    +0.180 C 
ATOM      6  C   UNL     1       1.856  -3.682  29.044  0.00  0.00    +0.177 C 
ENDROOT
BRANCH   6   7
ATOM      7  O   UNL     1       0.526  -3.991  29.494  0.00  0.00    -0.386 OA
ATOM      8  H   UNL     1       0.444  -4.961  29.531  0.00  0.00    +0.210 HD
ENDBRANCH   6   7
BRANCH   5   9
ATOM      9  O   UNL     1       1.005  -4.381  26.892  0.00  0.00    -0.386 OA
ATOM     10  H   UNL     1       0.183  -4.479  27.414  0.00  0.00    +0.210 HD
ENDBRANCH   5   9
BRANCH   4  11
ATOM     11  O   UNL     1       4.018  -4.373  27.103  0.00  0.00    -0.337 OA
BRANCH  11  12
ATOM     12  C   UNL     1       4.883  -4.685  25.979  0.00  0.00    +0.282 C 
ATOM     13  O   UNL     1       4.109  -4.686  24.751  0.00  0.00    -0.341 OA
ATOM     14  C   UNL     1       3.143  -5.748  24.630  0.00  0.00    +0.178 C 
ATOM     15  C   UNL     1       3.742  -7.154  24.877  0.00  0.00    +0.177 C 
ATOM     16  C   UNL     1       4.589  -7.169  26.149  0.00  0.00    +0.179 C 
ATOM     17  C   UNL     1       5.627  -6.042  26.076  0.00  0.00    +0.201 C 
BRANCH  17  18
ATOM     18  O   UNL     1       6.564  -6.164  27.150  0.00  0.00    -0.384 OA
ATOM     19  H   UNL     1       7.408  -5.769  26.864  0.00  0.00    +0.210 HD
ENDBRANCH  17  18
BRANCH  16  20
ATOM     20  O   UNL     1       3.769  -7.055  27.313  0.00  0.00    -0.386 OA
ATOM     21  H   UNL     1       4.272  -7.409  28.077  0.00  0.00    +0.210 HD
ENDBRANCH  16  20
BRANCH  15  22
ATOM     22  O   UNL     1       4.554  -7.564  23.768  0.00  0.00    -0.386 OA
ATOM     23  H   UNL     1       4.016  -8.111  23.169  0.00  0.00    +0.210 HD
ENDBRANCH  15  22
BRANCH  14  24
ATOM     24  C   UNL     1       2.499  -5.701  23.226  0.00  0.00    +0.190 C 
BRANCH  24  25
ATOM     25  O   UNL     1       2.338  -6.990  22.635  0.00  0.00    -0.392 OA
ATOM     26  H   UNL     1       1.422  -7.062  22.322  0.00  0.00    +0.210 HD
ENDBRANCH  24  25
ENDBRANCH  14  24
ENDBRANCH  11  12
ENDBRANCH   4  11
BRANCH   3  27
ATOM     27  O   UNL     1       5.160  -1.748  27.269  0.00  0.00    -0.453 OA
BRANCH  27  28
ATOM     28  C   UNL     1       5.810  -0.537  26.991  0.00  0.00    +0.214 A 
ATOM     29  C   UNL     1       5.754   0.703  27.839  0.00  0.00    +0.238 A 
ATOM     30  O   UNL     1       5.062   0.716  28.845  0.00  0.00    -0.283 OA
ATOM     31  C   UNL     1       6.526   1.906  27.364  0.00  0.00    +0.109 A 
ATOM     32  C   UNL     1       7.249   1.807  26.179  0.00  0.00    +0.147 A 
ATOM     33  C   UNL     1       7.961   2.899  25.635  0.00  0.00    +0.093 A 
ATOM     34  C   UNL     1       7.887   4.157  26.225  0.00  0.00    +0.131 A 
ATOM     35  C   UNL     1       7.232   4.263  27.452  0.00  0.00    +0.092 A 
ATOM     36  O   UNL     1       7.289   0.659  25.442  0.00  0.00    -0.451 OA
ATOM     37  C   UNL     1       6.574   3.143  28.024  0.00  0.00    +0.135 A 
ATOM     38  C   UNL     1       6.570  -0.431  25.877  0.00  0.00    +0.181 A 
BRANCH  38  39
ATOM     39  C   UNL     1       6.774  -1.565  24.989  0.00  0.00    +0.025 A 
ATOM     40  C   UNL     1       7.818  -2.439  25.317  0.00  0.00    +0.015 A 
ATOM     41  C   UNL     1       8.113  -3.507  24.487  0.00  0.00    +0.050 A 
ATOM     42  C   UNL     1       7.282  -3.759  23.404  0.00  0.00    +0.158 A 
ATOM     43  C   UNL     1       6.208  -2.919  23.104  0.00  0.00    +0.159 A 
ATOM     44  C   UNL     1       5.994  -1.768  23.846  0.00  0.00    +0.060 A 
BRANCH  42  45
ATOM     45  O   UNL     1       7.502  -4.906  22.703  0.00  0.00    -0.503 OA
ATOM     46  H   UNL     1       7.713  -4.593  21.803  0.00  0.00    +0.292 HD
ENDBRANCH  42  45
BRANCH  43  47
ATOM     47  O   UNL     1       5.296  -3.245  22.141  0.00  0.00    -0.503 OA
ATOM     48  H   UNL     1       5.731  -3.862  21.526  0.00  0.00    +0.292 HD
ENDBRANCH  43  47
ENDBRANCH  38  39
BRANCH  37  49
ATOM     49  O   UNL     1       5.975   3.295  29.244  0.00  0.00    -0.506 OA
ATOM     50  H   UNL     1       6.561   3.781  29.847  0.00  0.00    +0.292 HD
ENDBRANCH  37  49
BRANCH  34  51
ATOM     51  O   UNL     1       8.451   5.192  25.505  0.00  0.00    -0.461 OA
BRANCH  51  52
ATOM     52  C   UNL     1       7.540   6.187  24.995  0.00  0.00    +0.339 C 
ATOM     53  O   UNL     1       6.169   5.788  25.097  0.00  0.00    -0.334 OA
ATOM     54  C   UNL     1       5.827   4.706  24.218  0.00  0.00    +0.150 C 
ATOM     55  C   UNL     1       4.398   4.294  24.551  0.00  0.00    +0.041 C 
ATOM     56  C   UNL     1       5.951   5.149  22.756  0.00  0.00    +0.174 C 
ATOM     57  C   UNL     1       7.388   5.623  22.478  0.00  0.00    +0.180 C 
ATOM     58  C   UNL     1       7.849   6.639  23.537  0.00  0.00    +0.214 C 
BRANCH  58  59
ATOM     59  O   UNL     1       9.231   6.956  23.337  0.00  0.00    -0.383 OA
ATOM     60  H   UNL     1       9.621   6.277  22.763  0.00  0.00    +0.210 HD
ENDBRANCH  58  59
BRANCH  57  61
ATOM     61  O   UNL     1       7.442   6.211  21.161  0.00  0.00    -0.386 OA
ATOM     62  H   UNL     1       6.647   6.754  21.022  0.00  0.00    +0.210 HD
ENDBRANCH  57  61
BRANCH  56  63
ATOM     63  O   UNL     1       5.561   4.099  21.867  0.00  0.00    -0.387 OA
ATOM     64  H   UNL     1       4.819   3.609  22.264  0.00  0.00    +0.210 HD
ENDBRANCH  56  63
ENDBRANCH  51  52
ENDBRANCH  34  51
ENDBRANCH  27  28
ENDBRANCH   3  27
BRANCH   1  65
ATOM     65  C   UNL     1       1.434  -1.415  30.175  0.00  0.00    +0.197 C 
BRANCH  65  66
ATOM     66  O   UNL     1       1.840  -0.056  30.417  0.00  0.00    -0.346 OA
BRANCH  66  70
ATOM     67  C   UNL     1       0.443   1.200  26.569  0.00  0.00    +0.041 C 
ATOM     68  C   UNL     1       1.819   1.505  27.152  0.00  0.00    +0.149 C 
ATOM     69  O   UNL     1       2.108   0.643  28.251  0.00  0.00    -0.343 OA
ATOM     70  C   UNL     1       1.385   0.886  29.447  0.00  0.00    +0.282 C 
ATOM     71  C   UNL     1       1.603   2.351  29.944  0.00  0.00    +0.201 C 
ATOM     72  C   UNL     1       1.222   3.321  28.811  0.00  0.00    +0.179 C 
ATOM     73  C   UNL     1       1.999   2.983  27.529  0.00  0.00    +0.174 C 
BRANCH  73  74
ATOM     74  O   UNL     1       3.396   3.262  27.742  0.00  0.00    -0.387 OA
ATOM     75  H   UNL     1       3.873   2.412  27.599  0.00  0.00    +0.210 HD
ENDBRANCH  73  74
BRANCH  72  76
ATOM     76  O   UNL     1       1.501   4.675  29.197  0.00  0.00    -0.386 OA
ATOM     77  H   UNL     1       0.904   5.223  28.644  0.00  0.00    +0.210 HD
ENDBRANCH  72  76
BRANCH  71  78
ATOM     78  O   UNL     1       2.985   2.606  30.290  0.00  0.00    -0.384 OA
ATOM     79  H   UNL     1       3.520   2.270  29.548  0.00  0.00    +0.210 HD
ENDBRANCH  71  78
ENDBRANCH  66  70
ENDBRANCH  65  66
ENDBRANCH   1  65
TORSDOF 26
ENDMDL
MODEL 4
REMARK VINA RESULT:      -6.7      1.936      8.563
REMARK  Name = 
REMARK  28 active torsions:
REMARK  status: ('A' for Active; 'I' for Inactive)
REMARK    1  A    between atoms: C_1  and  C_2
REMARK    2  A    between atoms: C_3  and  O_76
REMARK    3  A    between atoms: C_5  and  O_75
REMARK    4  A    between atoms: C_6  and  O_74
REMARK    5  A    between atoms: C_8  and  O_11
REMARK    6  A    between atoms: O_11  and  C_12
REMARK    7  A    between atoms: C_12  and  C_13
REMARK    8  A    between atoms: C_14  and  O_73
REMARK    9  A    between atoms: C_16  and  O_72
REMARK   10  A    between atoms: C_18  and  O_57
REMARK   11  A    between atoms: C_19  and  O_22
REMARK   12  A    between atoms: O_22  and  C_23
REMARK   13  A    between atoms: C_24  and  C_49
REMARK   14  A    between atoms: C_28  and  O_35
REMARK   15  A    between atoms: C_30  and  O_34
REMARK   16  A    between atoms: O_35  and  C_36
REMARK   17  A    between atoms: C_38  and  O_48
REMARK   18  A    between atoms: C_40  and  O_47
REMARK   19  A    between atoms: C_41  and  O_46
REMARK   20  A    between atoms: C_43  and  C_45
REMARK   21  A    between atoms: C_51  and  O_56
REMARK   22  A    between atoms: C_52  and  O_55
REMARK   23  A    between atoms: O_57  and  C_58
REMARK   24  A    between atoms: C_60  and  O_71
REMARK   25  A    between atoms: C_61  and  O_70
REMARK   26  A    between atoms: C_63  and  O_69
REMARK   27  A    between atoms: C_65  and  C_67
REMARK   28  A    between atoms: C_67  and  O_68
REMARK                            x       y       z     vdW  Elec       q    Type
REMARK                         _______ _______ _______ _____ _____    ______ ____
ROOT
ATOM      1  C   UNL     1       4.929   2.079  24.232  0.00  0.00    +0.179 C 
ATOM      2  O   UNL     1       5.302   1.323  25.410  0.00  0.00    -0.331 OA
ATOM      3  C   UNL     1       6.339   1.804  26.314  0.00  0.00    +0.340 C 
ATOM      4  C   UNL     1       7.595   2.315  25.540  0.00  0.00    +0.221 C 
ATOM      5  C   UNL     1       7.088   3.345  24.531  0.00  0.00    +0.180 C 
ATOM      6  C   UNL     1       6.174   2.665  23.512  0.00  0.00    +0.177 C 
ENDROOT
BRANCH   6   7
ATOM      7  O   UNL     1       5.862   3.644  22.507  0.00  0.00    -0.386 OA
ATOM      8  H   UNL     1       4.892   3.677  22.418  0.00  0.00    +0.210 HD
ENDBRANCH   6   7
BRANCH   5   9
ATOM      9  O   UNL     1       8.141   4.029  23.851  0.00  0.00    -0.386 OA
ATOM     10  H   UNL     1       7.729   4.826  23.459  0.00  0.00    +0.210 HD
ENDBRANCH   5   9
BRANCH   4  11
ATOM     11  O   UNL     1       8.362   1.221  24.943  0.00  0.00    -0.337 OA
BRANCH  11  12
ATOM     12  C   UNL     1       8.432   1.187  23.493  0.00  0.00    +0.282 C 
ATOM     13  O   UNL     1       7.761   0.000  22.997  0.00  0.00    -0.341 OA
ATOM     14  C   UNL     1       8.405  -1.251  23.310  0.00  0.00    +0.178 C 
ATOM     15  C   UNL     1       9.901  -1.286  22.915  0.00  0.00    +0.177 C 
ATOM     16  C   UNL     1      10.623  -0.028  23.399  0.00  0.00    +0.179 C 
ATOM     17  C   UNL     1       9.865   1.210  22.902  0.00  0.00    +0.201 C 
BRANCH  17  18
ATOM     18  O   UNL     1      10.628   2.391  23.159  0.00  0.00    -0.384 OA
ATOM     19  H   UNL     1      10.867   2.792  22.304  0.00  0.00    +0.210 HD
ENDBRANCH  17  18
BRANCH  16  20
ATOM     20  O   UNL     1      10.755  -0.027  24.822  0.00  0.00    -0.386 OA
ATOM     21  H   UNL     1       9.911  -0.349  25.207  0.00  0.00    +0.210 HD
ENDBRANCH  16  20
BRANCH  15  22
ATOM     22  O   UNL     1      10.051  -1.393  21.493  0.00  0.00    -0.386 OA
ATOM     23  H   UNL     1      10.443  -0.568  21.155  0.00  0.00    +0.210 HD
ENDBRANCH  15  22
BRANCH  14  24
ATOM     24  C   UNL     1       7.658  -2.405  22.606  0.00  0.00    +0.190 C 
BRANCH  24  25
ATOM     25  O   UNL     1       8.304  -3.669  22.755  0.00  0.00    -0.392 OA
ATOM     26  H   UNL     1       7.616  -4.352  22.798  0.00  0.00    +0.210 HD
ENDBRANCH  24  25
ENDBRANCH  14  24
ENDBRANCH  11  12
ENDBRANCH   4  11
BRANCH   3  27
ATOM     27  O   UNL     1       6.698   0.732  27.227  0.00  0.00    -0.453 OA
BRANCH  27  28
ATOM     28  C   UNL     1       6.376  -0.628  27.113  0.00  0.00    +0.214 A 
ATOM     29  C   UNL     1       7.288  -1.706  26.597  0.00  0.00    +0.238 A 
ATOM     30  O   UNL     1       8.401  -1.412  26.191  0.00  0.00    -0.283 OA
ATOM     31  C   UNL     1       6.750  -3.112  26.555  0.00  0.00    +0.109 A 
ATOM     32  C   UNL     1       5.450  -3.340  26.997  0.00  0.00    +0.147 A 
ATOM     33  C   UNL     1       4.848  -4.618  26.948  0.00  0.00    +0.093 A 
ATOM     34  C   UNL     1       5.511  -5.690  26.360  0.00  0.00    +0.131 A 
ATOM     35  C   UNL     1       6.840  -5.503  25.979  0.00  0.00    +0.092 A 
ATOM     36  O   UNL     1       4.655  -2.338  27.475  0.00  0.00    -0.451 OA
ATOM     37  C   UNL     1       7.459  -4.231  26.094  0.00  0.00    +0.135 A 
ATOM     38  C   UNL     1       5.150  -1.055  27.497  0.00  0.00    +0.181 A 
BRANCH  38  39
ATOM     39  C   UNL     1       4.178  -0.142  28.078  0.00  0.00    +0.025 A 
ATOM     40  C   UNL     1       4.476   0.367  29.349  0.00  0.00    +0.015 A 
ATOM     41  C   UNL     1       3.571   1.193  29.992  0.00  0.00    +0.050 A 
ATOM     42  C   UNL     1       2.434   1.600  29.306  0.00  0.00    +0.158 A 
ATOM     43  C   UNL     1       2.161   1.136  28.018  0.00  0.00    +0.159 A 
ATOM     44  C   UNL     1       2.989   0.196  27.424  0.00  0.00    +0.060 A 
BRANCH  42  45
ATOM     45  O   UNL     1       1.647   2.538  29.904  0.00  0.00    -0.503 OA
ATOM     46  H   UNL     1       1.806   3.345  29.379  0.00  0.00    +0.292 HD
ENDBRANCH  42  45
BRANCH  43  47
ATOM     47  O   UNL     1       1.134   1.651  27.279  0.00  0.00    -0.503 OA
ATOM     48  H   UNL     1       0.426   1.900  27.899  0.00  0.00    +0.292 HD
ENDBRANCH  43  47
ENDBRANCH  38  39
BRANCH  37  49
ATOM     49  O   UNL     1       8.773  -4.113  25.735  0.00  0.00    -0.506 OA
ATOM     50  H   UNL     1       9.301  -3.815  26.493  0.00  0.00    +0.292 HD
ENDBRANCH  37  49
BRANCH  34  51
ATOM     51  O   UNL     1       4.762  -6.835  26.182  0.00  0.00    -0.461 OA
BRANCH  51  52
ATOM     52  C   UNL     1       4.536  -7.247  24.819  0.00  0.00    +0.339 C 
ATOM     53  O   UNL     1       4.818  -6.210  23.873  0.00  0.00    -0.334 OA
ATOM     54  C   UNL     1       3.885  -5.121  23.930  0.00  0.00    +0.150 C 
ATOM     55  C   UNL     1       4.402  -4.040  22.989  0.00  0.00    +0.041 C 
ATOM     56  C   UNL     1       2.487  -5.595  23.518  0.00  0.00    +0.174 C 
ATOM     57  C   UNL     1       2.030  -6.733  24.446  0.00  0.00    +0.180 C 
ATOM     58  C   UNL     1       3.112  -7.822  24.559  0.00  0.00    +0.214 C 
BRANCH  58  59
ATOM     59  O   UNL     1       2.721  -8.795  25.534  0.00  0.00    -0.383 OA
ATOM     60  H   UNL     1       1.770  -8.962  25.438  0.00  0.00    +0.210 HD
ENDBRANCH  58  59
BRANCH  57  61
ATOM     61  O   UNL     1       0.804  -7.294  23.933  0.00  0.00    -0.386 OA
ATOM     62  H   UNL     1       0.070  -7.047  24.522  0.00  0.00    +0.210 HD
ENDBRANCH  57  61
BRANCH  56  63
ATOM     63  O   UNL     1       1.557  -4.509  23.517  0.00  0.00    -0.387 OA
ATOM     64  H   UNL     1       0.769  -4.770  23.008  0.00  0.00    +0.210 HD
ENDBRANCH  56  63
ENDBRANCH  51  52
ENDBRANCH  34  51
ENDBRANCH  27  28
ENDBRANCH   3  27
BRANCH   1  65
ATOM     65  C   UNL     1       3.809   3.176  24.376  0.00  0.00    +0.197 C 
BRANCH  65  66
ATOM     66  O   UNL     1       3.119   3.325  25.629  0.00  0.00    -0.346 OA
BRANCH  66  70
ATOM     67  C   UNL     1       5.899   5.723  27.832  0.00  0.00    +0.041 C 
ATOM     68  C   UNL     1       4.756   4.915  28.437  0.00  0.00    +0.149 C 
ATOM     69  O   UNL     1       4.271   3.945  27.510  0.00  0.00    -0.343 OA
ATOM     70  C   UNL     1       3.530   4.446  26.409  0.00  0.00    +0.282 C 
ATOM     71  C   UNL     1       2.296   5.273  26.894  0.00  0.00    +0.201 C 
ATOM     72  C   UNL     1       2.786   6.386  27.838  0.00  0.00    +0.179 C 
ATOM     73  C   UNL     1       3.620   5.793  28.983  0.00  0.00    +0.174 C 
BRANCH  73  74
ATOM     74  O   UNL     1       2.762   5.004  29.829  0.00  0.00    -0.387 OA
ATOM     75  H   UNL     1       3.132   5.070  30.739  0.00  0.00    +0.210 HD
ENDBRANCH  73  74
BRANCH  72  76
ATOM     76  O   UNL     1       1.670   7.107  28.382  0.00  0.00    -0.386 OA
ATOM     77  H   UNL     1       2.010   7.511  29.209  0.00  0.00    +0.210 HD
ENDBRANCH  72  76
BRANCH  71  78
ATOM     78  O   UNL     1       1.355   4.458  27.633  0.00  0.00    -0.384 OA
ATOM     79  H   UNL     1       1.040   5.006  28.375  0.00  0.00    +0.210 HD
ENDBRANCH  71  78
ENDBRANCH  66  70
ENDBRANCH  65  66
ENDBRANCH   1  65
TORSDOF 26
ENDMDL
MODEL 5
REMARK VINA RESULT:      -6.6      2.118      8.742
REMARK  Name = 
REMARK  28 active torsions:
REMARK  status: ('A' for Active; 'I' for Inactive)
REMARK    1  A    between atoms: C_1  and  C_2
REMARK    2  A    between atoms: C_3  and  O_76
REMARK    3  A    between atoms: C_5  and  O_75
REMARK    4  A    between atoms: C_6  and  O_74
REMARK    5  A    between atoms: C_8  and  O_11
REMARK    6  A    between atoms: O_11  and  C_12
REMARK    7  A    between atoms: C_12  and  C_13
REMARK    8  A    between atoms: C_14  and  O_73
REMARK    9  A    between atoms: C_16  and  O_72
REMARK   10  A    between atoms: C_18  and  O_57
REMARK   11  A    between atoms: C_19  and  O_22
REMARK   12  A    between atoms: O_22  and  C_23
REMARK   13  A    between atoms: C_24  and  C_49
REMARK   14  A    between atoms: C_28  and  O_35
REMARK   15  A    between atoms: C_30  and  O_34
REMARK   16  A    between atoms: O_35  and  C_36
REMARK   17  A    between atoms: C_38  and  O_48
REMARK   18  A    between atoms: C_40  and  O_47
REMARK   19  A    between atoms: C_41  and  O_46
REMARK   20  A    between atoms: C_43  and  C_45
REMARK   21  A    between atoms: C_51  and  O_56
REMARK   22  A    between atoms: C_52  and  O_55
REMARK   23  A    between atoms: O_57  and  C_58
REMARK   24  A    between atoms: C_60  and  O_71
REMARK   25  A    between atoms: C_61  and  O_70
REMARK   26  A    between atoms: C_63  and  O_69
REMARK   27  A    between atoms: C_65  and  C_67
REMARK   28  A    between atoms: C_67  and  O_68
REMARK                            x       y       z     vdW  Elec       q    Type
REMARK                         _______ _______ _______ _____ _____    ______ ____
ROOT
ATOM      1  C   UNL     1       9.358   0.318  23.689  0.00  0.00    +0.179 C 
ATOM      2  O   UNL     1       8.311   0.359  24.690  0.00  0.00    -0.331 OA
ATOM      3  C   UNL     1       6.983   0.867  24.367  0.00  0.00    +0.340 C 
ATOM      4  C   UNL     1       7.050   2.198  23.554  0.00  0.00    +0.221 C 
ATOM      5  C   UNL     1       7.947   1.919  22.347  0.00  0.00    +0.180 C 
ATOM      6  C   UNL     1       9.366   1.604  22.819  0.00  0.00    +0.177 C 
ENDROOT
BRANCH   6   7
ATOM      7  O   UNL     1      10.188   1.510  21.643  0.00  0.00    -0.386 OA
ATOM      8  H   UNL     1      11.104   1.349  21.936  0.00  0.00    +0.210 HD
ENDBRANCH   6   7
BRANCH   5   9
ATOM      9  O   UNL     1       7.978   2.997  21.411  0.00  0.00    -0.386 OA
ATOM     10  H   UNL     1       8.263   3.782  21.923  0.00  0.00    +0.210 HD
ENDBRANCH   5   9
BRANCH   4  11
ATOM     11  O   UNL     1       7.488   3.328  24.374  0.00  0.00    -0.337 OA
BRANCH  11  12
ATOM     12  C   UNL     1       7.723   4.584  23.684  0.00  0.00    +0.282 C 
ATOM     13  O   UNL     1       9.084   4.622  23.184  0.00  0.00    -0.341 OA
ATOM     14  C   UNL     1      10.112   4.691  24.192  0.00  0.00    +0.178 C 
ATOM     15  C   UNL     1       9.894   5.833  25.214  0.00  0.00    +0.177 C 
ATOM     16  C   UNL     1       8.455   5.835  25.730  0.00  0.00    +0.179 C 
ATOM     17  C   UNL     1       7.491   5.858  24.537  0.00  0.00    +0.201 C 
BRANCH  17  18
ATOM     18  O   UNL     1       6.151   6.071  24.989  0.00  0.00    -0.384 OA
ATOM     19  H   UNL     1       5.625   5.281  24.766  0.00  0.00    +0.210 HD
ENDBRANCH  17  18
BRANCH  16  20
ATOM     20  O   UNL     1       8.214   4.710  26.579  0.00  0.00    -0.386 OA
ATOM     21  H   UNL     1       8.699   3.941  26.212  0.00  0.00    +0.210 HD
ENDBRANCH  16  20
BRANCH  15  22
ATOM     22  O   UNL     1      10.179   7.108  24.621  0.00  0.00    -0.386 OA
ATOM     23  H   UNL     1      10.606   6.965  23.758  0.00  0.00    +0.210 HD
ENDBRANCH  15  22
BRANCH  14  24
ATOM     24  C   UNL     1      11.489   4.862  23.513  0.00  0.00    +0.190 C 
BRANCH  24  25
ATOM     25  O   UNL     1      12.404   5.643  24.282  0.00  0.00    -0.392 OA
ATOM     26  H   UNL     1      13.263   5.190  24.271  0.00  0.00    +0.210 HD
ENDBRANCH  24  25
ENDBRANCH  14  24
ENDBRANCH  11  12
ENDBRANCH   4  11
BRANCH   3  27
ATOM     27  O   UNL     1       6.242   1.056  25.603  0.00  0.00    -0.453 OA
BRANCH  27  28
ATOM     28  C   UNL     1       5.498   0.098  26.307  0.00  0.00    +0.214 A 
ATOM     29  C   UNL     1       4.962  -1.186  25.739  0.00  0.00    +0.238 A 
ATOM     30  O   UNL     1       5.127  -1.439  24.556  0.00  0.00    -0.283 OA
ATOM     31  C   UNL     1       4.184  -2.085  26.664  0.00  0.00    +0.109 A 
ATOM     32  C   UNL     1       4.009  -1.687  27.986  0.00  0.00    +0.147 A 
ATOM     33  C   UNL     1       3.253  -2.443  28.909  0.00  0.00    +0.093 A 
ATOM     34  C   UNL     1       2.568  -3.583  28.498  0.00  0.00    +0.131 A 
ATOM     35  C   UNL     1       2.790  -4.041  27.199  0.00  0.00    +0.092 A 
ATOM     36  O   UNL     1       4.525  -0.520  28.472  0.00  0.00    -0.451 OA
ATOM     37  C   UNL     1       3.605  -3.309  26.298  0.00  0.00    +0.135 A 
ATOM     38  C   UNL     1       5.222   0.301  27.615  0.00  0.00    +0.181 A 
BRANCH  38  39
ATOM     39  C   UNL     1       5.729   1.467  28.325  0.00  0.00    +0.025 A 
ATOM     40  C   UNL     1       4.872   2.572  28.406  0.00  0.00    +0.015 A 
ATOM     41  C   UNL     1       5.306   3.739  29.011  0.00  0.00    +0.050 A 
ATOM     42  C   UNL     1       6.546   3.746  29.636  0.00  0.00    +0.158 A 
ATOM     43  C   UNL     1       7.380   2.626  29.602  0.00  0.00    +0.159 A 
ATOM     44  C   UNL     1       7.013   1.505  28.875  0.00  0.00    +0.060 A 
BRANCH  42  45
ATOM     45  O   UNL     1       6.874   4.853  30.359  0.00  0.00    -0.503 OA
ATOM     46  H   UNL     1       6.013   5.264  30.561  0.00  0.00    +0.292 HD
ENDBRANCH  42  45
BRANCH  43  47
ATOM     47  O   UNL     1       8.526   2.570  30.343  0.00  0.00    -0.503 OA
ATOM     48  H   UNL     1       8.267   2.613  31.281  0.00  0.00    +0.292 HD
ENDBRANCH  43  47
ENDBRANCH  38  39
BRANCH  37  49
ATOM     49  O   UNL     1       3.813  -3.821  25.047  0.00  0.00    -0.506 OA
ATOM     50  H   UNL     1       4.594  -3.410  24.642  0.00  0.00    +0.292 HD
ENDBRANCH  37  49
BRANCH  34  51
ATOM     51  O   UNL     1       1.703  -4.130  29.424  0.00  0.00    -0.461 OA
BRANCH  51  52
ATOM     52  C   UNL     1       2.302  -4.912  30.476  0.00  0.00    +0.339 C 
ATOM     53  O   UNL     1       3.731  -4.829  30.484  0.00  0.00    -0.334 OA
ATOM     54  C   UNL     1       4.343  -5.473  29.357  0.00  0.00    +0.150 C 
ATOM     55  C   UNL     1       5.834  -5.166  29.421  0.00  0.00    +0.041 C 
ATOM     56  C   UNL     1       4.083  -6.983  29.401  0.00  0.00    +0.174 C 
ATOM     57  C   UNL     1       2.569  -7.250  29.406  0.00  0.00    +0.180 C 
ATOM     58  C   UNL     1       1.862  -6.407  30.483  0.00  0.00    +0.214 C 
BRANCH  58  59
ATOM     59  O   UNL     1       0.444  -6.567  30.371  0.00  0.00    -0.383 OA
ATOM     60  H   UNL     1       0.251  -7.508  30.231  0.00  0.00    +0.210 HD
ENDBRANCH  58  59
BRANCH  57  61
ATOM     61  O   UNL     1       2.340  -8.655  29.638  0.00  0.00    -0.386 OA
ATOM     62  H   UNL     1       2.059  -8.784  30.560  0.00  0.00    +0.210 HD
ENDBRANCH  57  61
BRANCH  56  63
ATOM     63  O   UNL     1       4.733  -7.647  28.314  0.00  0.00    -0.387 OA
ATOM     64  H   UNL     1       4.384  -8.553  28.245  0.00  0.00    +0.210 HD
ENDBRANCH  56  63
ENDBRANCH  51  52
ENDBRANCH  34  51
ENDBRANCH  27  28
ENDBRANCH   3  27
BRANCH   1  65
ATOM     65  C   UNL     1       9.467  -0.963  22.780  0.00  0.00    +0.197 C 
BRANCH  65  66
ATOM     66  O   UNL     1       8.281  -1.715  22.468  0.00  0.00    -0.346 OA
BRANCH  66  70
ATOM     67  C   UNL     1       7.327  -5.880  22.189  0.00  0.00    +0.041 C 
ATOM     68  C   UNL     1       6.796  -4.921  23.250  0.00  0.00    +0.149 C 
ATOM     69  O   UNL     1       6.984  -3.565  22.849  0.00  0.00    -0.343 OA
ATOM     70  C   UNL     1       8.317  -3.083  22.870  0.00  0.00    +0.282 C 
ATOM     71  C   UNL     1       8.943  -3.231  24.294  0.00  0.00    +0.201 C 
ATOM     72  C   UNL     1       8.835  -4.703  24.733  0.00  0.00    +0.179 C 
ATOM     73  C   UNL     1       7.379  -5.185  24.646  0.00  0.00    +0.174 C 
BRANCH  73  74
ATOM     74  O   UNL     1       6.597  -4.491  25.636  0.00  0.00    -0.387 OA
ATOM     75  H   UNL     1       6.989  -4.721  26.510  0.00  0.00    +0.210 HD
ENDBRANCH  73  74
BRANCH  72  76
ATOM     76  O   UNL     1       9.312  -4.860  26.077  0.00  0.00    -0.386 OA
ATOM     77  H   UNL     1      10.244  -5.151  25.982  0.00  0.00    +0.210 HD
ENDBRANCH  72  76
BRANCH  71  78
ATOM     78  O   UNL     1       8.246  -2.431  25.278  0.00  0.00    -0.384 OA
ATOM     79  H   UNL     1       8.779  -1.624  25.404  0.00  0.00    +0.210 HD
ENDBRANCH  71  78
ENDBRANCH  66  70
ENDBRANCH  65  66
ENDBRANCH   1  65
TORSDOF 26
ENDMDL
MODEL 6
REMARK VINA RESULT:      -6.1      1.954      8.107
REMARK  Name = 
REMARK  28 active torsions:
REMARK  status: ('A' for Active; 'I' for Inactive)
REMARK    1  A    between atoms: C_1  and  C_2
REMARK    2  A    between atoms: C_3  and  O_76
REMARK    3  A    between atoms: C_5  and  O_75
REMARK    4  A    between atoms: C_6  and  O_74
REMARK    5  A    between atoms: C_8  and  O_11
REMARK    6  A    between atoms: O_11  and  C_12
REMARK    7  A    between atoms: C_12  and  C_13
REMARK    8  A    between atoms: C_14  and  O_73
REMARK    9  A    between atoms: C_16  and  O_72
REMARK   10  A    between atoms: C_18  and  O_57
REMARK   11  A    between atoms: C_19  and  O_22
REMARK   12  A    between atoms: O_22  and  C_23
REMARK   13  A    between atoms: C_24  and  C_49
REMARK   14  A    between atoms: C_28  and  O_35
REMARK   15  A    between atoms: C_30  and  O_34
REMARK   16  A    between atoms: O_35  and  C_36
REMARK   17  A    between atoms: C_38  and  O_48
REMARK   18  A    between atoms: C_40  and  O_47
REMARK   19  A    between atoms: C_41  and  O_46
REMARK   20  A    between atoms: C_43  and  C_45
REMARK   21  A    between atoms: C_51  and  O_56
REMARK   22  A    between atoms: C_52  and  O_55
REMARK   23  A    between atoms: O_57  and  C_58
REMARK   24  A    between atoms: C_60  and  O_71
REMARK   25  A    between atoms: C_61  and  O_70
REMARK   26  A    between atoms: C_63  and  O_69
REMARK   27  A    between atoms: C_65  and  C_67
REMARK   28  A    between atoms: C_67  and  O_68
REMARK                            x       y       z     vdW  Elec       q    Type
REMARK                         _______ _______ _______ _____ _____    ______ ____
ROOT
ATOM      1  C   UNL     1       7.527   3.134  23.347  0.00  0.00    +0.179 C 
ATOM      2  O   UNL     1       6.839   2.146  24.153  0.00  0.00    -0.331 OA
ATOM      3  C   UNL     1       5.472   1.744  23.845  0.00  0.00    +0.340 C 
ATOM      4  C   UNL     1       4.558   2.974  23.544  0.00  0.00    +0.221 C 
ATOM      5  C   UNL     1       5.261   3.773  22.446  0.00  0.00    +0.180 C 
ATOM      6  C   UNL     1       6.590   4.314  22.971  0.00  0.00    +0.177 C 
ENDROOT
BRANCH   6   7
ATOM      7  O   UNL     1       7.122   5.181  21.955  0.00  0.00    -0.386 OA
ATOM      8  H   UNL     1       6.443   5.851  21.753  0.00  0.00    +0.210 HD
ENDBRANCH   6   7
BRANCH   5   9
ATOM      9  O   UNL     1       4.468   4.848  21.942  0.00  0.00    -0.386 OA
ATOM     10  H   UNL     1       3.886   5.117  22.682  0.00  0.00    +0.210 HD
ENDBRANCH   5   9
BRANCH   4  11
ATOM     11  O   UNL     1       4.258   3.749  24.748  0.00  0.00    -0.337 OA
BRANCH  11  12
ATOM     12  C   UNL     1       3.055   4.563  24.719  0.00  0.00    +0.282 C 
ATOM     13  O   UNL     1       3.044   5.464  25.856  0.00  0.00    -0.341 OA
ATOM     14  C   UNL     1       2.890   4.832  27.143  0.00  0.00    +0.178 C 
ATOM     15  C   UNL     1       1.677   3.874  27.216  0.00  0.00    +0.177 C 
ATOM     16  C   UNL     1       1.648   2.937  26.009  0.00  0.00    +0.179 C 
ATOM     17  C   UNL     1       1.723   3.770  24.723  0.00  0.00    +0.201 C 
BRANCH  17  18
ATOM     18  O   UNL     1       1.488   2.939  23.583  0.00  0.00    -0.384 OA
ATOM     19  H   UNL     1       0.898   3.418  22.972  0.00  0.00    +0.210 HD
ENDBRANCH  17  18
BRANCH  16  20
ATOM     20  O   UNL     1       2.708   1.980  26.077  0.00  0.00    -0.386 OA
ATOM     21  H   UNL     1       2.333   1.095  25.882  0.00  0.00    +0.210 HD
ENDBRANCH  16  20
BRANCH  15  22
ATOM     22  O   UNL     1       0.448   4.612  27.264  0.00  0.00    -0.386 OA
ATOM     23  H   UNL     1      -0.237   4.113  26.784  0.00  0.00    +0.210 HD
ENDBRANCH  15  22
BRANCH  14  24
ATOM     24  C   UNL     1       2.759   5.916  28.236  0.00  0.00    +0.190 C 
BRANCH  24  25
ATOM     25  O   UNL     1       4.005   6.261  28.842  0.00  0.00    -0.392 OA
ATOM     26  H   UNL     1       3.993   7.214  29.023  0.00  0.00    +0.210 HD
ENDBRANCH  24  25
ENDBRANCH  14  24
ENDBRANCH  11  12
ENDBRANCH   4  11
BRANCH   3  27
ATOM     27  O   UNL     1       4.948   0.975  24.961  0.00  0.00    -0.453 OA
BRANCH  27  28
ATOM     28  C   UNL     1       5.432  -0.244  25.458  0.00  0.00    +0.214 A 
ATOM     29  C   UNL     1       5.626  -1.502  24.659  0.00  0.00    +0.238 A 
ATOM     30  O   UNL     1       5.308  -1.525  23.480  0.00  0.00    -0.283 OA
ATOM     31  C   UNL     1       6.161  -2.711  25.382  0.00  0.00    +0.109 A 
ATOM     32  C   UNL     1       6.451  -2.599  26.739  0.00  0.00    +0.147 A 
ATOM     33  C   UNL     1       6.909  -3.693  27.506  0.00  0.00    +0.093 A 
ATOM     34  C   UNL     1       6.999  -4.963  26.944  0.00  0.00    +0.131 A 
ATOM     35  C   UNL     1       6.786  -5.084  25.571  0.00  0.00    +0.092 A 
ATOM     36  O   UNL     1       6.277  -1.434  27.429  0.00  0.00    -0.451 OA
ATOM     37  C   UNL     1       6.390  -3.964  24.795  0.00  0.00    +0.135 A 
ATOM     38  C   UNL     1       5.775  -0.340  26.763  0.00  0.00    +0.181 A 
BRANCH  38  39
ATOM     39  C   UNL     1       5.706   0.811  27.651  0.00  0.00    +0.025 A 
ATOM     40  C   UNL     1       4.638   0.840  28.557  0.00  0.00    +0.015 A 
ATOM     41  C   UNL     1       4.470   1.931  29.392  0.00  0.00    +0.050 A 
ATOM     42  C   UNL     1       5.441   2.924  29.397  0.00  0.00    +0.158 A 
ATOM     43  C   UNL     1       6.535   2.870  28.531  0.00  0.00    +0.159 A 
ATOM     44  C   UNL     1       6.634   1.855  27.593  0.00  0.00    +0.060 A 
BRANCH  42  45
ATOM     45  O   UNL     1       5.331   3.899  30.341  0.00  0.00    -0.503 OA
ATOM     46  H   UNL     1       4.477   4.326  30.138  0.00  0.00    +0.292 HD
ENDBRANCH  42  45
BRANCH  43  47
ATOM     47  O   UNL     1       7.571   3.754  28.638  0.00  0.00    -0.503 OA
ATOM     48  H   UNL     1       8.259   3.330  29.181  0.00  0.00    +0.292 HD
ENDBRANCH  43  47
ENDBRANCH  38  39
BRANCH  37  49
ATOM     49  O   UNL     1       6.226  -4.132  23.448  0.00  0.00    -0.506 OA
ATOM     50  H   UNL     1       6.025  -5.060  23.248  0.00  0.00    +0.292 HD
ENDBRANCH  37  49
BRANCH  34  51
ATOM     51  O   UNL     1       7.261  -5.993  27.826  0.00  0.00    -0.461 OA
BRANCH  51  52
ATOM     52  C   UNL     1       6.115  -6.684  28.362  0.00  0.00    +0.339 C 
ATOM     53  O   UNL     1       5.246  -7.189  27.342  0.00  0.00    -0.334 OA
ATOM     54  C   UNL     1       4.561  -6.157  26.618  0.00  0.00    +0.150 C 
ATOM     55  C   UNL     1       3.808  -6.833  25.479  0.00  0.00    +0.041 C 
ATOM     56  C   UNL     1       3.603  -5.401  27.546  0.00  0.00    +0.174 C 
ATOM     57  C   UNL     1       4.389  -4.793  28.719  0.00  0.00    +0.180 C 
ATOM     58  C   UNL     1       5.292  -5.846  29.385  0.00  0.00    +0.214 C 
BRANCH  58  59
ATOM     59  O   UNL     1       6.114  -5.224  30.378  0.00  0.00    -0.383 OA
ATOM     60  H   UNL     1       6.742  -5.883  30.715  0.00  0.00    +0.210 HD
ENDBRANCH  58  59
BRANCH  57  61
ATOM     61  O   UNL     1       3.458  -4.250  29.678  0.00  0.00    -0.386 OA
ATOM     62  H   UNL     1       2.697  -3.873  29.204  0.00  0.00    +0.210 HD
ENDBRANCH  57  61
BRANCH  56  63
ATOM     63  O   UNL     1       2.872  -4.404  26.827  0.00  0.00    -0.387 OA
ATOM     64  H   UNL     1       3.070  -4.492  25.878  0.00  0.00    +0.210 HD
ENDBRANCH  56  63
ENDBRANCH  51  52
ENDBRANCH  34  51
ENDBRANCH  27  28
ENDBRANCH   3  27
BRANCH   1  65
ATOM     65  C   UNL     1       8.324   2.639  22.084  0.00  0.00    +0.197 C 
BRANCH  65  66
ATOM     66  O   UNL     1       9.435   1.740  22.253  0.00  0.00    -0.346 OA
BRANCH  66  70
ATOM     67  C   UNL     1       9.287  -0.625  25.819  0.00  0.00    +0.041 C 
ATOM     68  C   UNL     1      10.228  -0.859  24.642  0.00  0.00    +0.149 C 
ATOM     69  O   UNL     1      10.298   0.297  23.809  0.00  0.00    -0.343 OA
ATOM     70  C   UNL     1       9.150   0.575  23.025  0.00  0.00    +0.282 C 
ATOM     71  C   UNL     1       8.796  -0.635  22.102  0.00  0.00    +0.201 C 
ATOM     72  C   UNL     1       8.630  -1.892  22.975  0.00  0.00    +0.179 C 
ATOM     73  C   UNL     1       9.882  -2.119  23.836  0.00  0.00    +0.174 C 
BRANCH  73  74
ATOM     74  O   UNL     1      10.985  -2.462  22.976  0.00  0.00    -0.387 OA
ATOM     75  H   UNL     1      11.805  -2.269  23.487  0.00  0.00    +0.210 HD
ENDBRANCH  73  74
BRANCH  72  76
ATOM     76  O   UNL     1       8.400  -3.045  22.151  0.00  0.00    -0.386 OA
ATOM     77  H   UNL     1       9.115  -3.022  21.480  0.00  0.00    +0.210 HD
ENDBRANCH  72  76
BRANCH  71  78
ATOM     78  O   UNL     1       9.842  -0.907  21.140  0.00  0.00    -0.384 OA
ATOM     79  H   UNL     1       9.503  -0.615  20.274  0.00  0.00    +0.210 HD
ENDBRANCH  71  78
ENDBRANCH  66  70
ENDBRANCH  65  66
ENDBRANCH   1  65
TORSDOF 26
ENDMDL
MODEL 7
REMARK VINA RESULT:      -5.9      2.026      6.591
REMARK  Name = 
REMARK  28 active torsions:
REMARK  status: ('A' for Active; 'I' for Inactive)
REMARK    1  A    between atoms: C_1  and  C_2
REMARK    2  A    between atoms: C_3  and  O_76
REMARK    3  A    between atoms: C_5  and  O_75
REMARK    4  A    between atoms: C_6  and  O_74
REMARK    5  A    between atoms: C_8  and  O_11
REMARK    6  A    between atoms: O_11  and  C_12
REMARK    7  A    between atoms: C_12  and  C_13
REMARK    8  A    between atoms: C_14  and  O_73
REMARK    9  A    between atoms: C_16  and  O_72
REMARK   10  A    between atoms: C_18  and  O_57
REMARK   11  A    between atoms: C_19  and  O_22
REMARK   12  A    between atoms: O_22  and  C_23
REMARK   13  A    between atoms: C_24  and  C_49
REMARK   14  A    between atoms: C_28  and  O_35
REMARK   15  A    between atoms: C_30  and  O_34
REMARK   16  A    between atoms: O_35  and  C_36
REMARK   17  A    between atoms: C_38  and  O_48
REMARK   18  A    between atoms: C_40  and  O_47
REMARK   19  A    between atoms: C_41  and  O_46
REMARK   20  A    between atoms: C_43  and  C_45
REMARK   21  A    between atoms: C_51  and  O_56
REMARK   22  A    between atoms: C_52  and  O_55
REMARK   23  A    between atoms: O_57  and  C_58
REMARK   24  A    between atoms: C_60  and  O_71
REMARK   25  A    between atoms: C_61  and  O_70
REMARK   26  A    between atoms: C_63  and  O_69
REMARK   27  A    between atoms: C_65  and  C_67
REMARK   28  A    between atoms: C_67  and  O_68
REMARK                            x       y       z     vdW  Elec       q    Type
REMARK                         _______ _______ _______ _____ _____    ______ ____
ROOT
ATOM      1  C   UNL     1       6.350  -5.535  27.902  0.00  0.00    +0.179 C 
ATOM      2  O   UNL     1       6.985  -4.256  27.658  0.00  0.00    -0.331 OA
ATOM      3  C   UNL     1       6.216  -3.115  27.176  0.00  0.00    +0.340 C 
ATOM      4  C   UNL     1       5.257  -3.511  26.009  0.00  0.00    +0.221 C 
ATOM      5  C   UNL     1       4.422  -4.686  26.519  0.00  0.00    +0.180 C 
ATOM      6  C   UNL     1       5.328  -5.887  26.788  0.00  0.00    +0.177 C 
ENDROOT
BRANCH   6   7
ATOM      7  O   UNL     1       4.472  -6.996  27.108  0.00  0.00    -0.386 OA
ATOM      8  H   UNL     1       3.960  -7.216  26.308  0.00  0.00    +0.210 HD
ENDBRANCH   6   7
BRANCH   5   9
ATOM      9  O   UNL     1       3.377  -5.062  25.621  0.00  0.00    -0.386 OA
ATOM     10  H   UNL     1       3.819  -5.526  24.882  0.00  0.00    +0.210 HD
ENDBRANCH   5   9
BRANCH   4  11
ATOM     11  O   UNL     1       5.980  -3.787  24.767  0.00  0.00    -0.337 OA
BRANCH  11  12
ATOM     12  C   UNL     1       5.228  -3.659  23.531  0.00  0.00    +0.282 C 
ATOM     13  O   UNL     1       4.328  -4.788  23.384  0.00  0.00    -0.341 OA
ATOM     14  C   UNL     1       4.967  -6.062  23.161  0.00  0.00    +0.178 C 
ATOM     15  C   UNL     1       5.984  -6.042  21.995  0.00  0.00    +0.177 C 
ATOM     16  C   UNL     1       6.922  -4.840  22.109  0.00  0.00    +0.179 C 
ATOM     17  C   UNL     1       6.086  -3.560  22.244  0.00  0.00    +0.201 C 
BRANCH  17  18
ATOM     18  O   UNL     1       6.928  -2.409  22.142  0.00  0.00    -0.384 OA
ATOM     19  H   UNL     1       7.555  -2.422  22.888  0.00  0.00    +0.210 HD
ENDBRANCH  17  18
BRANCH  16  20
ATOM     20  O   UNL     1       7.824  -4.996  23.206  0.00  0.00    -0.386 OA
ATOM     21  H   UNL     1       8.336  -5.821  23.065  0.00  0.00    +0.210 HD
ENDBRANCH  16  20
BRANCH  15  22
ATOM     22  O   UNL     1       5.309  -5.989  20.730  0.00  0.00    -0.386 OA
ATOM     23  H   UNL     1       4.388  -5.707  20.877  0.00  0.00    +0.210 HD
ENDBRANCH  15  22
BRANCH  14  24
ATOM     24  C   UNL     1       3.891  -7.136  22.889  0.00  0.00    +0.190 C 
BRANCH  24  25
ATOM     25  O   UNL     1       3.483  -7.836  24.065  0.00  0.00    -0.392 OA
ATOM     26  H   UNL     1       3.124  -8.695  23.789  0.00  0.00    +0.210 HD
ENDBRANCH  24  25
ENDBRANCH  14  24
ENDBRANCH  11  12
ENDBRANCH   4  11
BRANCH   3  27
ATOM     27  O   UNL     1       7.138  -2.075  26.753  0.00  0.00    -0.453 OA
BRANCH  27  28
ATOM     28  C   UNL     1       6.923  -0.689  26.765  0.00  0.00    +0.214 A 
ATOM     29  C   UNL     1       6.083   0.060  27.761  0.00  0.00    +0.238 A 
ATOM     30  O   UNL     1       5.482  -0.554  28.628  0.00  0.00    -0.283 OA
ATOM     31  C   UNL     1       5.979   1.555  27.599  0.00  0.00    +0.109 A 
ATOM     32  C   UNL     1       6.665   2.159  26.550  0.00  0.00    +0.147 A 
ATOM     33  C   UNL     1       6.585   3.547  26.295  0.00  0.00    +0.093 A 
ATOM     34  C   UNL     1       5.731   4.355  27.039  0.00  0.00    +0.131 A 
ATOM     35  C   UNL     1       5.092   3.786  28.141  0.00  0.00    +0.092 A 
ATOM     36  O   UNL     1       7.432   1.448  25.673  0.00  0.00    -0.451 OA
ATOM     37  C   UNL     1       5.231   2.403  28.429  0.00  0.00    +0.135 A 
ATOM     38  C   UNL     1       7.510   0.082  25.820  0.00  0.00    +0.181 A 
BRANCH  38  39
ATOM     39  C   UNL     1       8.406  -0.489  24.825  0.00  0.00    +0.025 A 
ATOM     40  C   UNL     1       8.811   0.358  23.787  0.00  0.00    +0.015 A 
ATOM     41  C   UNL     1       9.613  -0.130  22.770  0.00  0.00    +0.050 A 
ATOM     42  C   UNL     1      10.101  -1.426  22.868  0.00  0.00    +0.158 A 
ATOM     43  C   UNL     1       9.740  -2.256  23.931  0.00  0.00    +0.159 A 
ATOM     44  C   UNL     1       8.823  -1.822  24.876  0.00  0.00    +0.060 A 
BRANCH  42  45
ATOM     45  O   UNL     1      11.014  -1.821  21.938  0.00  0.00    -0.503 OA
ATOM     46  H   UNL     1      10.474  -2.247  21.247  0.00  0.00    +0.292 HD
ENDBRANCH  42  45
BRANCH  43  47
ATOM     47  O   UNL     1      10.335  -3.471  24.119  0.00  0.00    -0.503 OA
ATOM     48  H   UNL     1      10.625  -3.512  25.048  0.00  0.00    +0.292 HD
ENDBRANCH  43  47
ENDBRANCH  38  39
BRANCH  37  49
ATOM     49  O   UNL     1       4.609   1.905  29.540  0.00  0.00    -0.506 OA
ATOM     50  H   UNL     1       5.254   1.767  30.252  0.00  0.00    +0.292 HD
ENDBRANCH  37  49
BRANCH  34  51
ATOM     51  O   UNL     1       5.576   5.648  26.580  0.00  0.00    -0.461 OA
BRANCH  51  52
ATOM     52  C   UNL     1       4.341   5.941  25.896  0.00  0.00    +0.339 C 
ATOM     53  O   UNL     1       3.337   4.944  26.113  0.00  0.00    -0.334 OA
ATOM     54  C   UNL     1       3.641   3.688  25.489  0.00  0.00    +0.150 C 
ATOM     55  C   UNL     1       2.574   2.696  25.936  0.00  0.00    +0.041 C 
ATOM     56  C   UNL     1       3.653   3.841  23.964  0.00  0.00    +0.174 C 
ATOM     57  C   UNL     1       4.691   4.900  23.557  0.00  0.00    +0.180 C 
ATOM     58  C   UNL     1       4.508   6.194  24.368  0.00  0.00    +0.214 C 
BRANCH  58  59
ATOM     59  O   UNL     1       5.571   7.107  24.072  0.00  0.00    -0.383 OA
ATOM     60  H   UNL     1       6.344   6.862  24.605  0.00  0.00    +0.210 HD
ENDBRANCH  58  59
BRANCH  57  61
ATOM     61  O   UNL     1       4.560   5.168  22.145  0.00  0.00    -0.386 OA
ATOM     62  H   UNL     1       5.061   5.972  21.926  0.00  0.00    +0.210 HD
ENDBRANCH  57  61
BRANCH  56  63
ATOM     63  O   UNL     1       3.900   2.585  23.324  0.00  0.00    -0.387 OA
ATOM     64  H   UNL     1       3.078   2.280  22.903  0.00  0.00    +0.210 HD
ENDBRANCH  56  63
ENDBRANCH  51  52
ENDBRANCH  34  51
ENDBRANCH  27  28
ENDBRANCH   3  27
BRANCH   1  65
ATOM     65  C   UNL     1       5.727  -5.796  29.324  0.00  0.00    +0.197 C 
BRANCH  65  66
ATOM     66  O   UNL     1       5.202  -4.692  30.082  0.00  0.00    -0.346 OA
BRANCH  66  70
ATOM     67  C   UNL     1       1.366  -6.551  30.485  0.00  0.00    +0.041 C 
ATOM     68  C   UNL     1       1.820  -5.713  29.294  0.00  0.00    +0.149 C 
ATOM     69  O   UNL     1       3.240  -5.568  29.287  0.00  0.00    -0.343 OA
ATOM     70  C   UNL     1       3.790  -4.720  30.282  0.00  0.00    +0.282 C 
ATOM     71  C   UNL     1       3.182  -3.284  30.191  0.00  0.00    +0.201 C 
ATOM     72  C   UNL     1       1.649  -3.387  30.279  0.00  0.00    +0.179 C 
ATOM     73  C   UNL     1       1.112  -4.352  29.210  0.00  0.00    +0.174 C 
BRANCH  73  74
ATOM     74  O   UNL     1       1.326  -3.775  27.908  0.00  0.00    -0.387 OA
ATOM     75  H   UNL     1       0.968  -2.858  27.949  0.00  0.00    +0.210 HD
ENDBRANCH  73  74
BRANCH  72  76
ATOM     76  O   UNL     1       1.050  -2.096  30.101  0.00  0.00    -0.386 OA
ATOM     77  H   UNL     1       1.063  -1.943  29.132  0.00  0.00    +0.210 HD
ENDBRANCH  72  76
BRANCH  71  78
ATOM     78  O   UNL     1       3.504  -2.638  28.936  0.00  0.00    -0.384 OA
ATOM     79  H   UNL     1       2.901  -3.014  28.270  0.00  0.00    +0.210 HD
ENDBRANCH  71  78
ENDBRANCH  66  70
ENDBRANCH  65  66
ENDBRANCH   1  65
TORSDOF 26
ENDMDL
MODEL 8
REMARK VINA RESULT:      -5.4      1.710      6.449
REMARK  Name = 
REMARK  28 active torsions:
REMARK  status: ('A' for Active; 'I' for Inactive)
REMARK    1  A    between atoms: C_1  and  C_2
REMARK    2  A    between atoms: C_3  and  O_76
REMARK    3  A    between atoms: C_5  and  O_75
REMARK    4  A    between atoms: C_6  and  O_74
REMARK    5  A    between atoms: C_8  and  O_11
REMARK    6  A    between atoms: O_11  and  C_12
REMARK    7  A    between atoms: C_12  and  C_13
REMARK    8  A    between atoms: C_14  and  O_73
REMARK    9  A    between atoms: C_16  and  O_72
REMARK   10  A    between atoms: C_18  and  O_57
REMARK   11  A    between atoms: C_19  and  O_22
REMARK   12  A    between atoms: O_22  and  C_23
REMARK   13  A    between atoms: C_24  and  C_49
REMARK   14  A    between atoms: C_28  and  O_35
REMARK   15  A    between atoms: C_30  and  O_34
REMARK   16  A    between atoms: O_35  and  C_36
REMARK   17  A    between atoms: C_38  and  O_48
REMARK   18  A    between atoms: C_40  and  O_47
REMARK   19  A    between atoms: C_41  and  O_46
REMARK   20  A    between atoms: C_43  and  C_45
REMARK   21  A    between atoms: C_51  and  O_56
REMARK   22  A    between atoms: C_52  and  O_55
REMARK   23  A    between atoms: O_57  and  C_58
REMARK   24  A    between atoms: C_60  and  O_71
REMARK   25  A    between atoms: C_61  and  O_70
REMARK   26  A    between atoms: C_63  and  O_69
REMARK   27  A    between atoms: C_65  and  C_67
REMARK   28  A    between atoms: C_67  and  O_68
REMARK                            x       y       z     vdW  Elec       q    Type
REMARK                         _______ _______ _______ _____ _____    ______ ____
ROOT
ATOM      1  C   UNL     1       6.173  -5.615  23.062  0.00  0.00    +0.179 C 
ATOM      2  O   UNL     1       6.326  -4.632  24.116  0.00  0.00    -0.331 OA
ATOM      3  C   UNL     1       5.808  -3.278  23.962  0.00  0.00    +0.340 C 
ATOM      4  C   UNL     1       6.156  -2.677  22.564  0.00  0.00    +0.221 C 
ATOM      5  C   UNL     1       5.656  -3.684  21.527  0.00  0.00    +0.180 C 
ATOM      6  C   UNL     1       6.430  -4.994  21.662  0.00  0.00    +0.177 C 
ENDROOT
BRANCH   6   7
ATOM      7  O   UNL     1       6.030  -5.835  20.567  0.00  0.00    -0.386 OA
ATOM      8  H   UNL     1       5.087  -6.050  20.689  0.00  0.00    +0.210 HD
ENDBRANCH   6   7
BRANCH   5   9
ATOM      9  O   UNL     1       5.755  -3.202  20.186  0.00  0.00    -0.386 OA
ATOM     10  H   UNL     1       6.618  -3.523  19.854  0.00  0.00    +0.210 HD
ENDBRANCH   5   9
BRANCH   4  11
ATOM     11  O   UNL     1       7.577  -2.348  22.440  0.00  0.00    -0.337 OA
BRANCH  11  12
ATOM     12  C   UNL     1       8.171  -1.597  23.531  0.00  0.00    +0.282 C 
ATOM     13  O   UNL     1       7.857  -0.187  23.385  0.00  0.00    -0.341 OA
ATOM     14  C   UNL     1       8.473   0.470  22.259  0.00  0.00    +0.178 C 
ATOM     15  C   UNL     1      10.005   0.261  22.191  0.00  0.00    +0.177 C 
ATOM     16  C   UNL     1      10.363  -1.214  22.377  0.00  0.00    +0.179 C 
ATOM     17  C   UNL     1       9.710  -1.732  23.664  0.00  0.00    +0.201 C 
BRANCH  17  18
ATOM     18  O   UNL     1      10.196  -3.041  23.972  0.00  0.00    -0.384 OA
ATOM     19  H   UNL     1      11.034  -3.176  23.492  0.00  0.00    +0.210 HD
ENDBRANCH  17  18
BRANCH  16  20
ATOM     20  O   UNL     1       9.969  -1.985  21.240  0.00  0.00    -0.386 OA
ATOM     21  H   UNL     1      10.280  -2.905  21.373  0.00  0.00    +0.210 HD
ENDBRANCH  16  20
BRANCH  15  22
ATOM     22  O   UNL     1      10.671   1.034  23.199  0.00  0.00    -0.386 OA
ATOM     23  H   UNL     1      10.189   0.935  24.040  0.00  0.00    +0.210 HD
ENDBRANCH  15  22
BRANCH  14  24
ATOM     24  C   UNL     1       8.160   1.982  22.311  0.00  0.00    +0.190 C 
BRANCH  24  25
ATOM     25  O   UNL     1       7.209   2.327  23.318  0.00  0.00    -0.392 OA
ATOM     26  H   UNL     1       6.501   2.839  22.895  0.00  0.00    +0.210 HD
ENDBRANCH  24  25
ENDBRANCH  14  24
ENDBRANCH  11  12
ENDBRANCH   4  11
BRANCH   3  27
ATOM     27  O   UNL     1       6.344  -2.449  25.027  0.00  0.00    -0.453 OA
BRANCH  27  28
ATOM     28  C   UNL     1       5.639  -1.565  25.857  0.00  0.00    +0.214 A 
ATOM     29  C   UNL     1       5.196  -0.177  25.486  0.00  0.00    +0.238 A 
ATOM     30  O   UNL     1       5.490   0.278  24.392  0.00  0.00    -0.283 OA
ATOM     31  C   UNL     1       4.446   0.615  26.524  0.00  0.00    +0.109 A 
ATOM     32  C   UNL     1       4.199   0.025  27.761  0.00  0.00    +0.147 A 
ATOM     33  C   UNL     1       3.546   0.712  28.809  0.00  0.00    +0.093 A 
ATOM     34  C   UNL     1       3.206   2.054  28.671  0.00  0.00    +0.131 A 
ATOM     35  C   UNL     1       3.375   2.643  27.418  0.00  0.00    +0.092 A 
ATOM     36  O   UNL     1       4.603  -1.245  28.057  0.00  0.00    -0.451 OA
ATOM     37  C   UNL     1       3.972   1.923  26.350  0.00  0.00    +0.135 A 
ATOM     38  C   UNL     1       5.299  -1.956  27.107  0.00  0.00    +0.181 A 
BRANCH  38  39
ATOM     39  C   UNL     1       5.601  -3.295  27.590  0.00  0.00    +0.025 A 
ATOM     40  C   UNL     1       4.668  -3.873  28.460  0.00  0.00    +0.015 A 
ATOM     41  C   UNL     1       4.915  -5.119  29.009  0.00  0.00    +0.050 A 
ATOM     42  C   UNL     1       6.034  -5.825  28.587  0.00  0.00    +0.158 A 
ATOM     43  C   UNL     1       6.938  -5.271  27.679  0.00  0.00    +0.159 A 
ATOM     44  C   UNL     1       6.774  -3.969  27.235  0.00  0.00    +0.060 A 
BRANCH  42  45
ATOM     45  O   UNL     1       6.162  -7.109  29.022  0.00  0.00    -0.503 OA
ATOM     46  H   UNL     1       6.286  -7.018  29.985  0.00  0.00    +0.292 HD
ENDBRANCH  42  45
BRANCH  43  47
ATOM     47  O   UNL     1       7.950  -6.015  27.140  0.00  0.00    -0.503 OA
ATOM     48  H   UNL     1       7.837  -6.001  26.173  0.00  0.00    +0.292 HD
ENDBRANCH  43  47
ENDBRANCH  38  39
BRANCH  37  49
ATOM     49  O   UNL     1       4.084   2.539  25.134  0.00  0.00    -0.506 OA
ATOM     50  H   UNL     1       3.464   2.145  24.500  0.00  0.00    +0.292 HD
ENDBRANCH  37  49
BRANCH  34  51
ATOM     51  O   UNL     1       2.760   2.681  29.817  0.00  0.00    -0.461 OA
BRANCH  51  52
ATOM     52  C   UNL     1       3.704   3.542  30.485  0.00  0.00    +0.339 C 
ATOM     53  O   UNL     1       3.527   4.923  30.152  0.00  0.00    -0.334 OA
ATOM     54  C   UNL     1       3.874   5.228  28.793  0.00  0.00    +0.150 C 
ATOM     55  C   UNL     1       3.486   6.680  28.547  0.00  0.00    +0.041 C 
ATOM     56  C   UNL     1       5.373   5.006  28.564  0.00  0.00    +0.174 C 
ATOM     57  C   UNL     1       5.738   3.548  28.890  0.00  0.00    +0.180 C 
ATOM     58  C   UNL     1       5.193   3.136  30.269  0.00  0.00    +0.214 C 
BRANCH  58  59
ATOM     59  O   UNL     1       5.423   1.740  30.484  0.00  0.00    -0.383 OA
ATOM     60  H   UNL     1       5.978   1.404  29.762  0.00  0.00    +0.210 HD
ENDBRANCH  58  59
BRANCH  57  61
ATOM     61  O   UNL     1       7.174   3.403  28.853  0.00  0.00    -0.386 OA
ATOM     62  H   UNL     1       7.564   4.201  28.456  0.00  0.00    +0.210 HD
ENDBRANCH  57  61
BRANCH  56  63
ATOM     63  O   UNL     1       5.746   5.358  27.229  0.00  0.00    -0.387 OA
ATOM     64  H   UNL     1       5.770   6.328  27.154  0.00  0.00    +0.210 HD
ENDBRANCH  56  63
ENDBRANCH  51  52
ENDBRANCH  34  51
ENDBRANCH  27  28
ENDBRANCH   3  27
BRANCH   1  65
ATOM     65  C   UNL     1       4.865  -6.489  23.045  0.00  0.00    +0.197 C 
BRANCH  65  66
ATOM     66  O   UNL     1       4.628  -7.434  24.103  0.00  0.00    -0.346 OA
BRANCH  66  70
ATOM     67  C   UNL     1       0.452  -8.359  23.901  0.00  0.00    +0.041 C 
ATOM     68  C   UNL     1       1.053  -6.960  23.814  0.00  0.00    +0.149 C 
ATOM     69  O   UNL     1       2.449  -7.022  23.529  0.00  0.00    -0.343 OA
ATOM     70  C   UNL     1       3.285  -7.475  24.581  0.00  0.00    +0.282 C 
ATOM     71  C   UNL     1       3.116  -6.583  25.853  0.00  0.00    +0.201 C 
ATOM     72  C   UNL     1       1.628  -6.556  26.246  0.00  0.00    +0.179 C 
ATOM     73  C   UNL     1       0.766  -6.104  25.056  0.00  0.00    +0.174 C 
BRANCH  73  74
ATOM     74  O   UNL     1       1.053  -4.722  24.769  0.00  0.00    -0.387 OA
ATOM     75  H   UNL     1       1.633  -4.401  25.497  0.00  0.00    +0.210 HD
ENDBRANCH  73  74
BRANCH  72  76
ATOM     76  O   UNL     1       1.419  -5.667  27.353  0.00  0.00    -0.386 OA
ATOM     77  H   UNL     1       1.835  -6.117  28.119  0.00  0.00    +0.210 HD
ENDBRANCH  72  76
BRANCH  71  78
ATOM     78  O   UNL     1       3.530  -5.216  25.615  0.00  0.00    -0.384 OA
ATOM     79  H   UNL     1       3.929  -5.201  24.726  0.00  0.00    +0.210 HD
ENDBRANCH  71  78
ENDBRANCH  66  70
ENDBRANCH  65  66
ENDBRANCH   1  65
TORSDOF 26
ENDMDL
MODEL 9
REMARK VINA RESULT:      -4.9      2.368      6.682
REMARK  Name = 
REMARK  28 active torsions:
REMARK  status: ('A' for Active; 'I' for Inactive)
REMARK    1  A    between atoms: C_1  and  C_2
REMARK    2  A    between atoms: C_3  and  O_76
REMARK    3  A    between atoms: C_5  and  O_75
REMARK    4  A    between atoms: C_6  and  O_74
REMARK    5  A    between atoms: C_8  and  O_11
REMARK    6  A    between atoms: O_11  and  C_12
REMARK    7  A    between atoms: C_12  and  C_13
REMARK    8  A    between atoms: C_14  and  O_73
REMARK    9  A    between atoms: C_16  and  O_72
REMARK   10  A    between atoms: C_18  and  O_57
REMARK   11  A    between atoms: C_19  and  O_22
REMARK   12  A    between atoms: O_22  and  C_23
REMARK   13  A    between atoms: C_24  and  C_49
REMARK   14  A    between atoms: C_28  and  O_35
REMARK   15  A    between atoms: C_30  and  O_34
REMARK   16  A    between atoms: O_35  and  C_36
REMARK   17  A    between atoms: C_38  and  O_48
REMARK   18  A    between atoms: C_40  and  O_47
REMARK   19  A    between atoms: C_41  and  O_46
REMARK   20  A    between atoms: C_43  and  C_45
REMARK   21  A    between atoms: C_51  and  O_56
REMARK   22  A    between atoms: C_52  and  O_55
REMARK   23  A    between atoms: O_57  and  C_58
REMARK   24  A    between atoms: C_60  and  O_71
REMARK   25  A    between atoms: C_61  and  O_70
REMARK   26  A    between atoms: C_63  and  O_69
REMARK   27  A    between atoms: C_65  and  C_67
REMARK   28  A    between atoms: C_67  and  O_68
REMARK                            x       y       z     vdW  Elec       q    Type
REMARK                         _______ _______ _______ _____ _____    ______ ____
ROOT
ATOM      1  C   UNL     1       5.871  -4.592  27.962  0.00  0.00    +0.179 C 
ATOM      2  O   UNL     1       5.412  -3.346  27.382  0.00  0.00    -0.331 OA
ATOM      3  C   UNL     1       4.070  -3.226  26.825  0.00  0.00    +0.340 C 
ATOM      4  C   UNL     1       3.703  -4.447  25.924  0.00  0.00    +0.221 C 
ATOM      5  C   UNL     1       3.941  -5.695  26.775  0.00  0.00    +0.180 C 
ATOM      6  C   UNL     1       5.426  -5.814  27.115  0.00  0.00    +0.177 C 
ENDROOT
BRANCH   6   7
ATOM      7  O   UNL     1       5.607  -7.080  27.772  0.00  0.00    -0.386 OA
ATOM      8  H   UNL     1       5.034  -7.729  27.327  0.00  0.00    +0.210 HD
ENDBRANCH   6   7
BRANCH   5   9
ATOM      9  O   UNL     1       3.493  -6.896  26.145  0.00  0.00    -0.386 OA
ATOM     10  H   UNL     1       2.598  -7.065  26.505  0.00  0.00    +0.210 HD
ENDBRANCH   5   9
BRANCH   4  11
ATOM     11  O   UNL     1       4.432  -4.441  24.656  0.00  0.00    -0.337 OA
BRANCH  11  12
ATOM     12  C   UNL     1       4.980  -5.710  24.211  0.00  0.00    +0.282 C 
ATOM     13  O   UNL     1       6.393  -5.776  24.537  0.00  0.00    -0.341 OA
ATOM     14  C   UNL     1       7.239  -4.865  23.807  0.00  0.00    +0.178 C 
ATOM     15  C   UNL     1       7.047  -4.945  22.273  0.00  0.00    +0.177 C 
ATOM     16  C   UNL     1       5.563  -4.911  21.907  0.00  0.00    +0.179 C 
ATOM     17  C   UNL     1       4.825  -6.000  22.695  0.00  0.00    +0.201 C 
BRANCH  17  18
ATOM     18  O   UNL     1       3.483  -6.130  22.220  0.00  0.00    -0.384 OA
ATOM     19  H   UNL     1       3.064  -6.875  22.688  0.00  0.00    +0.210 HD
ENDBRANCH  17  18
BRANCH  16  20
ATOM     20  O   UNL     1       5.005  -3.618  22.147  0.00  0.00    -0.386 OA
ATOM     21  H   UNL     1       4.325  -3.704  22.849  0.00  0.00    +0.210 HD
ENDBRANCH  16  20
BRANCH  15  22
ATOM     22  O   UNL     1       7.631  -6.145  21.748  0.00  0.00    -0.386 OA
ATOM     23  H   UNL     1       7.090  -6.905  22.026  0.00  0.00    +0.210 HD
ENDBRANCH  15  22
BRANCH  14  24
ATOM     24  C   UNL     1       8.718  -5.143  24.158  0.00  0.00    +0.190 C 
BRANCH  24  25
ATOM     25  O   UNL     1       9.380  -4.020  24.739  0.00  0.00    -0.392 OA
ATOM     26  H   UNL     1       8.817  -3.241  24.606  0.00  0.00    +0.210 HD
ENDBRANCH  24  25
ENDBRANCH  14  24
ENDBRANCH  11  12
ENDBRANCH   4  11
BRANCH   3  27
ATOM     27  O   UNL     1       3.987  -1.987  26.071  0.00  0.00    -0.453 OA
BRANCH  27  28
ATOM     28  C   UNL     1       5.039  -1.128  25.723  0.00  0.00    +0.214 A 
ATOM     29  C   UNL     1       6.194  -1.474  24.826  0.00  0.00    +0.238 A 
ATOM     30  O   UNL     1       6.289  -2.603  24.371  0.00  0.00    -0.283 OA
ATOM     31  C   UNL     1       7.226  -0.404  24.575  0.00  0.00    +0.109 A 
ATOM     32  C   UNL     1       7.054   0.839  25.177  0.00  0.00    +0.147 A 
ATOM     33  C   UNL     1       7.995   1.883  25.036  0.00  0.00    +0.093 A 
ATOM     34  C   UNL     1       9.191   1.671  24.358  0.00  0.00    +0.131 A 
ATOM     35  C   UNL     1       9.351   0.459  23.684  0.00  0.00    +0.092 A 
ATOM     36  O   UNL     1       5.982   1.123  25.974  0.00  0.00    -0.451 OA
ATOM     37  C   UNL     1       8.368  -0.560  23.777  0.00  0.00    +0.135 A 
ATOM     38  C   UNL     1       5.053   0.135  26.208  0.00  0.00    +0.181 A 
BRANCH  38  39
ATOM     39  C   UNL     1       3.970   0.640  27.039  0.00  0.00    +0.025 A 
ATOM     40  C   UNL     1       4.270   0.875  28.386  0.00  0.00    +0.015 A 
ATOM     41  C   UNL     1       3.276   1.298  29.252  0.00  0.00    +0.050 A 
ATOM     42  C   UNL     1       2.023   1.597  28.734  0.00  0.00    +0.158 A 
ATOM     43  C   UNL     1       1.736   1.413  27.380  0.00  0.00    +0.159 A 
ATOM     44  C   UNL     1       2.683   0.855  26.535  0.00  0.00    +0.060 A 
BRANCH  42  45
ATOM     45  O   UNL     1       1.117   2.162  29.580  0.00  0.00    -0.503 OA
ATOM     46  H   UNL     1       1.428   3.082  29.675  0.00  0.00    +0.292 HD
ENDBRANCH  42  45
BRANCH  43  47
ATOM     47  O   UNL     1       0.563   1.852  26.835  0.00  0.00    -0.503 OA
ATOM     48  H   UNL     1       0.715   2.757  26.509  0.00  0.00    +0.292 HD
ENDBRANCH  43  47
ENDBRANCH  38  39
BRANCH  37  49
ATOM     49  O   UNL     1       8.561  -1.715  23.071  0.00  0.00    -0.506 OA
ATOM     50  H   UNL     1       8.912  -1.513  22.189  0.00  0.00    +0.292 HD
ENDBRANCH  37  49
BRANCH  34  51
ATOM     51  O   UNL     1      10.123   2.685  24.451  0.00  0.00    -0.461 OA
BRANCH  51  52
ATOM     52  C   UNL     1       9.909   3.831  23.603  0.00  0.00    +0.339 C 
ATOM     53  O   UNL     1      11.085   4.213  22.880  0.00  0.00    -0.334 OA
ATOM     54  C   UNL     1      12.117   4.750  23.720  0.00  0.00    +0.150 C 
ATOM     55  C   UNL     1      13.345   4.959  22.842  0.00  0.00    +0.041 C 
ATOM     56  C   UNL     1      11.656   6.068  24.352  0.00  0.00    +0.174 C 
ATOM     57  C   UNL     1      10.376   5.831  25.172  0.00  0.00    +0.180 C 
ATOM     58  C   UNL     1       9.325   5.068  24.347  0.00  0.00    +0.214 C 
BRANCH  58  59
ATOM     59  O   UNL     1       8.204   4.738  25.175  0.00  0.00    -0.383 OA
ATOM     60  H   UNL     1       8.018   5.493  25.756  0.00  0.00    +0.210 HD
ENDBRANCH  58  59
BRANCH  57  61
ATOM     61  O   UNL     1       9.851   7.104  25.603  0.00  0.00    -0.386 OA
ATOM     62  H   UNL     1       8.907   7.003  25.817  0.00  0.00    +0.210 HD
ENDBRANCH  57  61
BRANCH  56  63
ATOM     63  O   UNL     1      12.694   6.646  25.149  0.00  0.00    -0.387 OA
ATOM     64  H   UNL     1      13.513   6.139  25.013  0.00  0.00    +0.210 HD
ENDBRANCH  56  63
ENDBRANCH  51  52
ENDBRANCH  34  51
ENDBRANCH  27  28
ENDBRANCH   3  27
BRANCH   1  65
ATOM     65  C   UNL     1       5.589  -4.849  29.490  0.00  0.00    +0.197 C 
BRANCH  65  66
ATOM     66  O   UNL     1       4.904  -3.848  30.263  0.00  0.00    -0.346 OA
BRANCH  66  70
ATOM     67  C   UNL     1       1.344  -6.217  30.474  0.00  0.00    +0.041 C 
ATOM     68  C   UNL     1       1.698  -5.253  29.347  0.00  0.00    +0.149 C 
ATOM     69  O   UNL     1       3.085  -4.923  29.377  0.00  0.00    -0.343 OA
ATOM     70  C   UNL     1       3.506  -4.075  30.432  0.00  0.00    +0.282 C 
ATOM     71  C   UNL     1       2.715  -2.727  30.417  0.00  0.00    +0.201 C 
ATOM     72  C   UNL     1       1.208  -3.037  30.468  0.00  0.00    +0.179 C 
ATOM     73  C   UNL     1       0.817  -3.995  29.332  0.00  0.00    +0.174 C 
BRANCH  73  74
ATOM     74  O   UNL     1       0.968  -3.313  28.072  0.00  0.00    -0.387 OA
ATOM     75  H   UNL     1       0.389  -2.517  28.116  0.00  0.00    +0.210 HD
ENDBRANCH  73  74
BRANCH  72  76
ATOM     76  O   UNL     1       0.445  -1.827  30.357  0.00  0.00    -0.386 OA
ATOM     77  H   UNL     1      -0.483  -2.097  30.523  0.00  0.00    +0.210 HD
ENDBRANCH  72  76
BRANCH  71  78
ATOM     78  O   UNL     1       2.964  -1.967  29.211  0.00  0.00    -0.384 OA
ATOM     79  H   UNL     1       3.589  -1.260  29.456  0.00  0.00    +0.210 HD
ENDBRANCH  71  78
ENDBRANCH  66  70
ENDBRANCH  65  66
ENDBRANCH   1  65
TORSDOF 26
ENDMDL
