MODEL 1
REMARK VINA RESULT:      -7.6      0.000      0.000
REMARK  Name = 
REMARK  15 active torsions:
REMARK  status: ('A' for Active; 'I' for Inactive)
REMARK    1  A    between atoms: C_2  and  O_46
REMARK    2  A    between atoms: C_4  and  O_45
REMARK    3  A    between atoms: C_6  and  O_33
REMARK    4  A    between atoms: C_8  and  O_11
REMARK    5  A    between atoms: O_11  and  C_12
REMARK    6  A    between atoms: C_13  and  C_25
REMARK    7  A    between atoms: C_17  and  O_24
REMARK    8  A    between atoms: C_19  and  O_23
REMARK    9  A    between atoms: C_27  and  O_32
REMARK   10  A    between atoms: C_28  and  O_31
REMARK   11  A    between atoms: O_33  and  C_34
REMARK   12  A    between atoms: C_36  and  O_44
REMARK   13  A    between atoms: C_38  and  C_41
REMARK   14  A    between atoms: C_38  and  O_43
REMARK   15  A    between atoms: C_41  and  O_42
REMARK                            x       y       z     vdW  Elec       q    Type
REMARK                         _______ _______ _______ _____ _____    ______ ____
ROOT
ATOM      1  C   UNL     1       5.986  -2.049  23.607  0.00  0.00    +0.214 A 
ATOM      2  C   UNL     1       5.541  -3.311  22.915  0.00  0.00    +0.238 A 
ATOM      3  O   UNL     1       5.353  -3.351  21.703  0.00  0.00    -0.283 OA
ATOM      4  C   UNL     1       5.227  -4.491  23.740  0.00  0.00    +0.109 A 
ATOM      5  C   UNL     1       5.139  -4.301  25.112  0.00  0.00    +0.147 A 
ATOM      6  C   UNL     1       4.747  -5.345  25.960  0.00  0.00    +0.092 A 
ATOM      7  C   UNL     1       4.445  -6.587  25.415  0.00  0.00    +0.124 A 
ATOM      8  C   UNL     1       4.552  -6.807  24.046  0.00  0.00    +0.091 A 
ATOM      9  O   UNL     1       5.400  -3.101  25.709  0.00  0.00    -0.451 OA
ATOM     10  C   UNL     1       4.947  -5.760  23.212  0.00  0.00    +0.135 A 
ATOM     11  C   UNL     1       5.871  -2.030  24.955  0.00  0.00    +0.181 A 
ENDROOT
BRANCH  11  12
ATOM     12  C   UNL     1       6.134  -0.854  25.840  0.00  0.00    +0.025 A 
ATOM     13  C   UNL     1       5.511   0.382  25.555  0.00  0.00    +0.015 A 
ATOM     14  C   UNL     1       5.881   1.560  26.216  0.00  0.00    +0.050 A 
ATOM     15  C   UNL     1       6.877   1.509  27.175  0.00  0.00    +0.158 A 
ATOM     16  C   UNL     1       7.462   0.296  27.519  0.00  0.00    +0.159 A 
ATOM     17  C   UNL     1       7.097  -0.879  26.862  0.00  0.00    +0.060 A 
BRANCH  15  18
ATOM     18  O   UNL     1       7.294   2.663  27.771  0.00  0.00    -0.503 OA
ATOM     19  H   UNL     1       6.533   3.272  27.684  0.00  0.00    +0.292 HD
ENDBRANCH  15  18
BRANCH  16  20
ATOM     20  O   UNL     1       8.416   0.314  28.498  0.00  0.00    -0.503 OA
ATOM     21  H   UNL     1       8.011   0.613  29.334  0.00  0.00    +0.292 HD
ENDBRANCH  16  20
ENDBRANCH  11  12
BRANCH   7  22
ATOM     22  O   UNL     1       4.029  -7.629  26.188  0.00  0.00    -0.507 OA
ATOM     23  H   UNL     1       3.424  -8.192  25.676  0.00  0.00    +0.292 HD
ENDBRANCH   7  22
BRANCH  10  24
ATOM     24  O   UNL     1       5.054  -6.003  21.869  0.00  0.00    -0.506 OA
ATOM     25  H   UNL     1       4.416  -5.462  21.377  0.00  0.00    +0.292 HD
ENDBRANCH  10  24
BRANCH   1  26
ATOM     26  O   UNL     1       6.466  -0.935  22.909  0.00  0.00    -0.453 OA
BRANCH  26  29
ATOM     27  C   UNL     1      10.009  -1.704  23.175  0.00  0.00    +0.198 C 
ATOM     28  O   UNL     1       8.626  -1.653  23.553  0.00  0.00    -0.337 OA
ATOM     29  C   UNL     1       7.878  -0.819  22.658  0.00  0.00    +0.340 C 
ATOM     30  C   UNL     1       8.329   0.654  22.878  0.00  0.00    +0.221 C 
ATOM     31  C   UNL     1       9.868   0.747  22.687  0.00  0.00    +0.180 C 
ATOM     32  C   UNL     1      10.654  -0.341  23.433  0.00  0.00    +0.171 C 
BRANCH  31  33
ATOM     33  O   UNL     1      10.325   2.064  23.016  0.00  0.00    -0.386 OA
ATOM     34  H   UNL     1      11.013   2.302  22.372  0.00  0.00    +0.210 HD
ENDBRANCH  31  33
BRANCH  32  35
ATOM     35  O   UNL     1      10.711  -0.072  24.833  0.00  0.00    -0.387 OA
ATOM     36  H   UNL     1      10.020  -0.609  25.261  0.00  0.00    +0.210 HD
ENDBRANCH  32  35
BRANCH  30  37
ATOM     37  O   UNL     1       7.595   1.630  22.091  0.00  0.00    -0.337 OA
BRANCH  37  38
ATOM     38  C   UNL     1       6.960   2.670  22.823  0.00  0.00    +0.282 C 
ATOM     39  O   UNL     1       5.545   2.685  22.675  0.00  0.00    -0.346 OA
ATOM     40  C   UNL     1       5.085   4.040  22.664  0.00  0.00    +0.202 C 
ATOM     41  C   UNL     1       6.304   4.919  22.906  0.00  0.00    +0.142 C 
ATOM     42  C   UNL     1       7.435   4.055  22.354  0.00  0.00    +0.206 C 
BRANCH  41  43
ATOM     43  O   UNL     1       6.495   5.078  24.329  0.00  0.00    -0.381 OA
ATOM     44  H   UNL     1       6.205   5.984  24.546  0.00  0.00    +0.210 HD
ENDBRANCH  41  43
BRANCH  42  45
ATOM     45  O   UNL     1       8.708   4.449  22.877  0.00  0.00    -0.384 OA
ATOM     46  H   UNL     1       9.389   3.821  22.587  0.00  0.00    +0.210 HD
ENDBRANCH  42  45
BRANCH  41  47
ATOM     47  C   UNL     1       6.126   6.295  22.271  0.00  0.00    +0.195 C 
BRANCH  47  48
ATOM     48  O   UNL     1       7.127   6.563  21.299  0.00  0.00    -0.392 OA
ATOM     49  H   UNL     1       7.954   6.729  21.784  0.00  0.00    +0.210 HD
ENDBRANCH  47  48
ENDBRANCH  41  47
ENDBRANCH  37  38
ENDBRANCH  30  37
ENDBRANCH  26  29
ENDBRANCH   1  26
TORSDOF 15
ENDMDL
MODEL 2
REMARK VINA RESULT:      -7.5      2.508      8.540
REMARK  Name = 
REMARK  15 active torsions:
REMARK  status: ('A' for Active; 'I' for Inactive)
REMARK    1  A    between atoms: C_2  and  O_46
REMARK    2  A    between atoms: C_4  and  O_45
REMARK    3  A    between atoms: C_6  and  O_33
REMARK    4  A    between atoms: C_8  and  O_11
REMARK    5  A    between atoms: O_11  and  C_12
REMARK    6  A    between atoms: C_13  and  C_25
REMARK    7  A    between atoms: C_17  and  O_24
REMARK    8  A    between atoms: C_19  and  O_23
REMARK    9  A    between atoms: C_27  and  O_32
REMARK   10  A    between atoms: C_28  and  O_31
REMARK   11  A    between atoms: O_33  and  C_34
REMARK   12  A    between atoms: C_36  and  O_44
REMARK   13  A    between atoms: C_38  and  C_41
REMARK   14  A    between atoms: C_38  and  O_43
REMARK   15  A    between atoms: C_41  and  O_42
REMARK                            x       y       z     vdW  Elec       q    Type
REMARK                         _______ _______ _______ _____ _____    ______ ____
ROOT
ATOM      1  C   UNL     1       7.485  -2.600  24.767  0.00  0.00    +0.214 A 
ATOM      2  C   UNL     1       8.661  -2.322  23.867  0.00  0.00    +0.238 A 
ATOM      3  O   UNL     1       9.575  -3.130  23.732  0.00  0.00    -0.283 OA
ATOM      4  C   UNL     1       8.755  -1.000  23.221  0.00  0.00    +0.109 A 
ATOM      5  C   UNL     1       7.879  -0.016  23.660  0.00  0.00    +0.147 A 
ATOM      6  C   UNL     1       7.967   1.295  23.173  0.00  0.00    +0.092 A 
ATOM      7  C   UNL     1       8.944   1.608  22.235  0.00  0.00    +0.124 A 
ATOM      8  C   UNL     1       9.813   0.631  21.762  0.00  0.00    +0.091 A 
ATOM      9  O   UNL     1       6.914  -0.251  24.595  0.00  0.00    -0.451 OA
ATOM     10  C   UNL     1       9.715  -0.672  22.252  0.00  0.00    +0.135 A 
ATOM     11  C   UNL     1       6.703  -1.540  25.077  0.00  0.00    +0.181 A 
ENDROOT
BRANCH  11  12
ATOM     12  C   UNL     1       5.559  -1.548  26.040  0.00  0.00    +0.025 A 
ATOM     13  C   UNL     1       5.605  -0.712  27.180  0.00  0.00    +0.015 A 
ATOM     14  C   UNL     1       4.672  -0.832  28.216  0.00  0.00    +0.050 A 
ATOM     15  C   UNL     1       3.677  -1.788  28.118  0.00  0.00    +0.158 A 
ATOM     16  C   UNL     1       3.570  -2.580  26.981  0.00  0.00    +0.159 A 
ATOM     17  C   UNL     1       4.499  -2.464  25.947  0.00  0.00    +0.060 A 
BRANCH  15  18
ATOM     18  O   UNL     1       2.807  -1.960  29.155  0.00  0.00    -0.503 OA
ATOM     19  H   UNL     1       2.532  -1.053  29.397  0.00  0.00    +0.292 HD
ENDBRANCH  15  18
BRANCH  16  20
ATOM     20  O   UNL     1       2.543  -3.481  26.936  0.00  0.00    -0.503 OA
ATOM     21  H   UNL     1       1.946  -3.323  27.691  0.00  0.00    +0.292 HD
ENDBRANCH  16  20
ENDBRANCH  11  12
BRANCH   7  22
ATOM     22  O   UNL     1       9.095   2.872  21.749  0.00  0.00    -0.507 OA
ATOM     23  H   UNL     1       8.625   3.499  22.325  0.00  0.00    +0.292 HD
ENDBRANCH   7  22
BRANCH  10  24
ATOM     24  O   UNL     1      10.576  -1.618  21.765  0.00  0.00    -0.506 OA
ATOM     25  H   UNL     1      11.468  -1.248  21.677  0.00  0.00    +0.292 HD
ENDBRANCH  10  24
BRANCH   1  26
ATOM     26  O   UNL     1       7.218  -3.870  25.288  0.00  0.00    -0.453 OA
BRANCH  26  29
ATOM     27  C   UNL     1       5.790  -5.331  22.281  0.00  0.00    +0.198 C 
ATOM     28  O   UNL     1       6.106  -4.320  23.250  0.00  0.00    -0.337 OA
ATOM     29  C   UNL     1       6.712  -4.895  24.415  0.00  0.00    +0.340 C 
ATOM     30  C   UNL     1       5.633  -5.733  25.159  0.00  0.00    +0.221 C 
ATOM     31  C   UNL     1       5.037  -6.780  24.179  0.00  0.00    +0.180 C 
ATOM     32  C   UNL     1       4.647  -6.199  22.811  0.00  0.00    +0.171 C 
BRANCH  31  33
ATOM     33  O   UNL     1       3.949  -7.471  24.801  0.00  0.00    -0.386 OA
ATOM     34  H   UNL     1       4.314  -8.265  25.227  0.00  0.00    +0.210 HD
ENDBRANCH  31  33
BRANCH  32  35
ATOM     35  O   UNL     1       3.441  -5.441  22.894  0.00  0.00    -0.387 OA
ATOM     36  H   UNL     1       3.663  -4.516  22.688  0.00  0.00    +0.210 HD
ENDBRANCH  32  35
BRANCH  30  37
ATOM     37  O   UNL     1       6.084  -6.315  26.413  0.00  0.00    -0.337 OA
BRANCH  37  38
ATOM     38  C   UNL     1       5.494  -5.786  27.593  0.00  0.00    +0.282 C 
ATOM     39  O   UNL     1       6.390  -5.726  28.696  0.00  0.00    -0.346 OA
ATOM     40  C   UNL     1       5.675  -6.013  29.901  0.00  0.00    +0.202 C 
ATOM     41  C   UNL     1       4.213  -6.182  29.515  0.00  0.00    +0.142 C 
ATOM     42  C   UNL     1       4.318  -6.655  28.067  0.00  0.00    +0.206 C 
BRANCH  41  43
ATOM     43  O   UNL     1       3.568  -4.888  29.534  0.00  0.00    -0.381 OA
ATOM     44  H   UNL     1       4.273  -4.229  29.392  0.00  0.00    +0.210 HD
ENDBRANCH  41  43
BRANCH  42  45
ATOM     45  O   UNL     1       3.099  -6.439  27.349  0.00  0.00    -0.384 OA
ATOM     46  H   UNL     1       2.363  -6.866  27.817  0.00  0.00    +0.210 HD
ENDBRANCH  42  45
BRANCH  41  47
ATOM     47  C   UNL     1       3.490  -7.112  30.485  0.00  0.00    +0.195 C 
BRANCH  47  48
ATOM     48  O   UNL     1       2.827  -8.171  29.808  0.00  0.00    -0.392 OA
ATOM     49  H   UNL     1       3.260  -8.997  30.082  0.00  0.00    +0.210 HD
ENDBRANCH  47  48
ENDBRANCH  41  47
ENDBRANCH  37  38
ENDBRANCH  30  37
ENDBRANCH  26  29
ENDBRANCH   1  26
TORSDOF 15
ENDMDL
MODEL 3
REMARK VINA RESULT:      -7.4      1.920      4.331
REMARK  Name = 
REMARK  15 active torsions:
REMARK  status: ('A' for Active; 'I' for Inactive)
REMARK    1  A    between atoms: C_2  and  O_46
REMARK    2  A    between atoms: C_4  and  O_45
REMARK    3  A    between atoms: C_6  and  O_33
REMARK    4  A    between atoms: C_8  and  O_11
REMARK    5  A    between atoms: O_11  and  C_12
REMARK    6  A    between atoms: C_13  and  C_25
REMARK    7  A    between atoms: C_17  and  O_24
REMARK    8  A    between atoms: C_19  and  O_23
REMARK    9  A    between atoms: C_27  and  O_32
REMARK   10  A    between atoms: C_28  and  O_31
REMARK   11  A    between atoms: O_33  and  C_34
REMARK   12  A    between atoms: C_36  and  O_44
REMARK   13  A    between atoms: C_38  and  C_41
REMARK   14  A    between atoms: C_38  and  O_43
REMARK   15  A    between atoms: C_41  and  O_42
REMARK                            x       y       z     vdW  Elec       q    Type
REMARK                         _______ _______ _______ _____ _____    ______ ____
ROOT
ATOM      1  C   UNL     1       6.225  -1.025  24.400  0.00  0.00    +0.214 A 
ATOM      2  C   UNL     1       5.244  -2.163  24.521  0.00  0.00    +0.238 A 
ATOM      3  O   UNL     1       4.296  -2.118  25.299  0.00  0.00    -0.283 OA
ATOM      4  C   UNL     1       5.501  -3.396  23.755  0.00  0.00    +0.109 A 
ATOM      5  C   UNL     1       6.745  -3.521  23.151  0.00  0.00    +0.147 A 
ATOM      6  C   UNL     1       7.109  -4.702  22.490  0.00  0.00    +0.092 A 
ATOM      7  C   UNL     1       6.208  -5.758  22.439  0.00  0.00    +0.124 A 
ATOM      8  C   UNL     1       4.946  -5.645  23.014  0.00  0.00    +0.091 A 
ATOM      9  O   UNL     1       7.683  -2.531  23.184  0.00  0.00    -0.451 OA
ATOM     10  C   UNL     1       4.594  -4.463  23.667  0.00  0.00    +0.135 A 
ATOM     11  C   UNL     1       7.381  -1.296  23.751  0.00  0.00    +0.181 A 
ENDROOT
BRANCH  11  12
ATOM     12  C   UNL     1       8.545  -0.368  23.612  0.00  0.00    +0.025 A 
ATOM     13  C   UNL     1       9.432  -0.201  24.700  0.00  0.00    +0.015 A 
ATOM     14  C   UNL     1      10.408   0.804  24.705  0.00  0.00    +0.050 A 
ATOM     15  C   UNL     1      10.508   1.649  23.614  0.00  0.00    +0.158 A 
ATOM     16  C   UNL     1       9.690   1.467  22.505  0.00  0.00    +0.159 A 
ATOM     17  C   UNL     1       8.717   0.468  22.497  0.00  0.00    +0.060 A 
BRANCH  15  18
ATOM     18  O   UNL     1      11.406   2.675  23.641  0.00  0.00    -0.503 OA
ATOM     19  H   UNL     1      11.123   3.229  24.396  0.00  0.00    +0.292 HD
ENDBRANCH  15  18
BRANCH  16  20
ATOM     20  O   UNL     1       9.865   2.318  21.448  0.00  0.00    -0.503 OA
ATOM     21  H   UNL     1       9.096   2.914  21.388  0.00  0.00    +0.292 HD
ENDBRANCH  16  20
ENDBRANCH  11  12
BRANCH   7  22
ATOM     22  O   UNL     1       6.519  -6.940  21.837  0.00  0.00    -0.507 OA
ATOM     23  H   UNL     1       6.066  -6.996  20.979  0.00  0.00    +0.292 HD
ENDBRANCH   7  22
BRANCH  10  24
ATOM     24  O   UNL     1       3.344  -4.371  24.218  0.00  0.00    -0.506 OA
ATOM     25  H   UNL     1       3.387  -4.506  25.177  0.00  0.00    +0.292 HD
ENDBRANCH  10  24
BRANCH   1  26
ATOM     26  O   UNL     1       5.984   0.239  24.948  0.00  0.00    -0.453 OA
BRANCH  26  29
ATOM     27  C   UNL     1       5.552   0.184  28.557  0.00  0.00    +0.198 C 
ATOM     28  O   UNL     1       5.181   0.151  27.170  0.00  0.00    -0.337 OA
ATOM     29  C   UNL     1       6.297   0.477  26.331  0.00  0.00    +0.340 C 
ATOM     30  C   UNL     1       6.639   1.980  26.541  0.00  0.00    +0.221 C 
ATOM     31  C   UNL     1       6.892   2.237  28.052  0.00  0.00    +0.180 C 
ATOM     32  C   UNL     1       5.823   1.631  28.973  0.00  0.00    +0.171 C 
BRANCH  31  33
ATOM     33  O   UNL     1       7.075   3.637  28.288  0.00  0.00    -0.386 OA
ATOM     34  H   UNL     1       7.815   3.733  28.911  0.00  0.00    +0.210 HD
ENDBRANCH  31  33
BRANCH  32  35
ATOM     35  O   UNL     1       4.617   2.394  28.942  0.00  0.00    -0.387 OA
ATOM     36  H   UNL     1       4.550   2.796  28.057  0.00  0.00    +0.210 HD
ENDBRANCH  32  35
BRANCH  30  37
ATOM     37  O   UNL     1       7.707   2.477  25.689  0.00  0.00    -0.337 OA
BRANCH  37  38
ATOM     38  C   UNL     1       7.438   3.689  24.997  0.00  0.00    +0.282 C 
ATOM     39  O   UNL     1       7.245   3.512  23.599  0.00  0.00    -0.346 OA
ATOM     40  C   UNL     1       7.797   4.632  22.900  0.00  0.00    +0.202 C 
ATOM     41  C   UNL     1       8.295   5.607  23.958  0.00  0.00    +0.142 C 
ATOM     42  C   UNL     1       8.609   4.678  25.127  0.00  0.00    +0.206 C 
BRANCH  41  43
ATOM     43  O   UNL     1       7.209   6.481  24.339  0.00  0.00    -0.381 OA
ATOM     44  H   UNL     1       6.645   6.579  23.549  0.00  0.00    +0.210 HD
ENDBRANCH  41  43
BRANCH  42  45
ATOM     45  O   UNL     1       8.647   5.384  26.371  0.00  0.00    -0.384 OA
ATOM     46  H   UNL     1       8.671   6.341  26.203  0.00  0.00    +0.210 HD
ENDBRANCH  42  45
BRANCH  41  47
ATOM     47  C   UNL     1       9.450   6.451  23.429  0.00  0.00    +0.195 C 
BRANCH  47  48
ATOM     48  O   UNL     1      10.557   5.649  23.041  0.00  0.00    -0.392 OA
ATOM     49  H   UNL     1      10.257   5.091  22.303  0.00  0.00    +0.210 HD
ENDBRANCH  47  48
ENDBRANCH  41  47
ENDBRANCH  37  38
ENDBRANCH  30  37
ENDBRANCH  26  29
ENDBRANCH   1  26
TORSDOF 15
ENDMDL
MODEL 4
REMARK VINA RESULT:      -7.4      2.330      8.432
REMARK  Name = 
REMARK  15 active torsions:
REMARK  status: ('A' for Active; 'I' for Inactive)
REMARK    1  A    between atoms: C_2  and  O_46
REMARK    2  A    between atoms: C_4  and  O_45
REMARK    3  A    between atoms: C_6  and  O_33
REMARK    4  A    between atoms: C_8  and  O_11
REMARK    5  A    between atoms: O_11  and  C_12
REMARK    6  A    between atoms: C_13  and  C_25
REMARK    7  A    between atoms: C_17  and  O_24
REMARK    8  A    between atoms: C_19  and  O_23
REMARK    9  A    between atoms: C_27  and  O_32
REMARK   10  A    between atoms: C_28  and  O_31
REMARK   11  A    between atoms: O_33  and  C_34
REMARK   12  A    between atoms: C_36  and  O_44
REMARK   13  A    between atoms: C_38  and  C_41
REMARK   14  A    between atoms: C_38  and  O_43
REMARK   15  A    between atoms: C_41  and  O_42
REMARK                            x       y       z     vdW  Elec       q    Type
REMARK                         _______ _______ _______ _____ _____    ______ ____
ROOT
ATOM      1  C   UNL     1       8.383   2.311  24.026  0.00  0.00    +0.214 A 
ATOM      2  C   UNL     1       8.592   3.788  23.811  0.00  0.00    +0.238 A 
ATOM      3  O   UNL     1       7.650   4.554  23.635  0.00  0.00    -0.283 OA
ATOM      4  C   UNL     1       9.973   4.294  23.706  0.00  0.00    +0.109 A 
ATOM      5  C   UNL     1      10.986   3.353  23.583  0.00  0.00    +0.147 A 
ATOM      6  C   UNL     1      12.315   3.749  23.377  0.00  0.00    +0.092 A 
ATOM      7  C   UNL     1      12.617   5.103  23.299  0.00  0.00    +0.124 A 
ATOM      8  C   UNL     1      11.621   6.063  23.447  0.00  0.00    +0.091 A 
ATOM      9  O   UNL     1      10.754   2.009  23.628  0.00  0.00    -0.451 OA
ATOM     10  C   UNL     1      10.302   5.657  23.654  0.00  0.00    +0.135 A 
ATOM     11  C   UNL     1       9.479   1.526  23.906  0.00  0.00    +0.181 A 
ENDROOT
BRANCH  11  12
ATOM     12  C   UNL     1       9.495   0.031  23.957  0.00  0.00    +0.025 A 
ATOM     13  C   UNL     1       9.655  -0.702  22.760  0.00  0.00    +0.015 A 
ATOM     14  C   UNL     1       9.467  -2.089  22.718  0.00  0.00    +0.050 A 
ATOM     15  C   UNL     1       9.122  -2.756  23.879  0.00  0.00    +0.158 A 
ATOM     16  C   UNL     1       9.020  -2.069  25.083  0.00  0.00    +0.159 A 
ATOM     17  C   UNL     1       9.205  -0.688  25.128  0.00  0.00    +0.060 A 
BRANCH  15  18
ATOM     18  O   UNL     1       8.866  -4.095  23.833  0.00  0.00    -0.503 OA
ATOM     19  H   UNL     1       7.917  -4.156  23.604  0.00  0.00    +0.292 HD
ENDBRANCH  15  18
BRANCH  16  20
ATOM     20  O   UNL     1       8.707  -2.797  26.198  0.00  0.00    -0.503 OA
ATOM     21  H   UNL     1       9.008  -2.312  26.989  0.00  0.00    +0.292 HD
ENDBRANCH  16  20
ENDBRANCH  11  12
BRANCH   7  22
ATOM     22  O   UNL     1      13.885   5.544  23.070  0.00  0.00    -0.507 OA
ATOM     23  H   UNL     1      14.025   6.386  23.536  0.00  0.00    +0.292 HD
ENDBRANCH   7  22
BRANCH  10  24
ATOM     24  O   UNL     1       9.341   6.619  23.805  0.00  0.00    -0.506 OA
ATOM     25  H   UNL     1       9.314   6.929  24.724  0.00  0.00    +0.292 HD
ENDBRANCH  10  24
BRANCH   1  26
ATOM     26  O   UNL     1       7.128   1.760  24.306  0.00  0.00    -0.453 OA
BRANCH  26  29
ATOM     27  C   UNL     1       6.853   2.973  27.722  0.00  0.00    +0.198 C 
ATOM     28  O   UNL     1       7.487   2.568  26.499  0.00  0.00    -0.337 OA
ATOM     29  C   UNL     1       6.541   1.972  25.601  0.00  0.00    +0.340 C 
ATOM     30  C   UNL     1       6.093   0.609  26.204  0.00  0.00    +0.221 C 
ATOM     31  C   UNL     1       5.540   0.844  27.636  0.00  0.00    +0.180 C 
ATOM     32  C   UNL     1       6.437   1.731  28.511  0.00  0.00    +0.171 C 
BRANCH  31  33
ATOM     33  O   UNL     1       5.247  -0.410  28.261  0.00  0.00    -0.386 OA
ATOM     34  H   UNL     1       5.938  -1.039  27.990  0.00  0.00    +0.210 HD
ENDBRANCH  31  33
BRANCH  32  35
ATOM     35  O   UNL     1       7.587   1.019  28.965  0.00  0.00    -0.387 OA
ATOM     36  H   UNL     1       8.372   1.503  28.650  0.00  0.00    +0.210 HD
ENDBRANCH  32  35
BRANCH  30  37
ATOM     37  O   UNL     1       5.190  -0.153  25.358  0.00  0.00    -0.337 OA
BRANCH  37  38
ATOM     38  C   UNL     1       5.629  -1.453  24.989  0.00  0.00    +0.282 C 
ATOM     39  O   UNL     1       5.869  -1.596  23.595  0.00  0.00    -0.346 OA
ATOM     40  C   UNL     1       5.484  -2.909  23.180  0.00  0.00    +0.202 C 
ATOM     41  C   UNL     1       5.049  -3.656  24.434  0.00  0.00    +0.142 C 
ATOM     42  C   UNL     1       4.573  -2.518  25.334  0.00  0.00    +0.206 C 
BRANCH  41  43
ATOM     43  O   UNL     1       6.207  -4.272  25.040  0.00  0.00    -0.381 OA
ATOM     44  H   UNL     1       5.959  -4.476  25.961  0.00  0.00    +0.210 HD
ENDBRANCH  41  43
BRANCH  42  45
ATOM     45  O   UNL     1       4.554  -2.903  26.712  0.00  0.00    -0.384 OA
ATOM     46  H   UNL     1       3.702  -2.660  27.108  0.00  0.00    +0.210 HD
ENDBRANCH  42  45
BRANCH  41  47
ATOM     47  C   UNL     1       4.025  -4.737  24.105  0.00  0.00    +0.195 C 
BRANCH  47  48
ATOM     48  O   UNL     1       3.913  -4.951  22.704  0.00  0.00    -0.392 OA
ATOM     49  H   UNL     1       4.654  -4.480  22.286  0.00  0.00    +0.210 HD
ENDBRANCH  47  48
ENDBRANCH  41  47
ENDBRANCH  37  38
ENDBRANCH  30  37
ENDBRANCH  26  29
ENDBRANCH   1  26
TORSDOF 15
ENDMDL
MODEL 5
REMARK VINA RESULT:      -7.3      1.786      4.213
REMARK  Name = 
REMARK  15 active torsions:
REMARK  status: ('A' for Active; 'I' for Inactive)
REMARK    1  A    between atoms: C_2  and  O_46
REMARK    2  A    between atoms: C_4  and  O_45
REMARK    3  A    between atoms: C_6  and  O_33
REMARK    4  A    between atoms: C_8  and  O_11
REMARK    5  A    between atoms: O_11  and  C_12
REMARK    6  A    between atoms: C_13  and  C_25
REMARK    7  A    between atoms: C_17  and  O_24
REMARK    8  A    between atoms: C_19  and  O_23
REMARK    9  A    between atoms: C_27  and  O_32
REMARK   10  A    between atoms: C_28  and  O_31
REMARK   11  A    between atoms: O_33  and  C_34
REMARK   12  A    between atoms: C_36  and  O_44
REMARK   13  A    between atoms: C_38  and  C_41
REMARK   14  A    between atoms: C_38  and  O_43
REMARK   15  A    between atoms: C_41  and  O_42
REMARK                            x       y       z     vdW  Elec       q    Type
REMARK                         _______ _______ _______ _____ _____    ______ ____
ROOT
ATOM      1  C   UNL     1       6.247  -1.094  24.236  0.00  0.00    +0.214 A 
ATOM      2  C   UNL     1       5.242  -2.210  24.352  0.00  0.00    +0.238 A 
ATOM      3  O   UNL     1       4.248  -2.112  25.066  0.00  0.00    -0.283 OA
ATOM      4  C   UNL     1       5.525  -3.485  23.668  0.00  0.00    +0.109 A 
ATOM      5  C   UNL     1       6.801  -3.658  23.150  0.00  0.00    +0.147 A 
ATOM      6  C   UNL     1       7.185  -4.876  22.574  0.00  0.00    +0.092 A 
ATOM      7  C   UNL     1       6.271  -5.921  22.520  0.00  0.00    +0.124 A 
ATOM      8  C   UNL     1       4.979  -5.761  23.008  0.00  0.00    +0.091 A 
ATOM      9  O   UNL     1       7.752  -2.680  23.192  0.00  0.00    -0.451 OA
ATOM     10  C   UNL     1       4.606  -4.542  23.577  0.00  0.00    +0.135 A 
ATOM     11  C   UNL     1       7.437  -1.414  23.675  0.00  0.00    +0.181 A 
ENDROOT
BRANCH  11  12
ATOM     12  C   UNL     1       8.623  -0.510  23.563  0.00  0.00    +0.025 A 
ATOM     13  C   UNL     1       9.535  -0.426  24.640  0.00  0.00    +0.015 A 
ATOM     14  C   UNL     1      10.537   0.551  24.679  0.00  0.00    +0.050 A 
ATOM     15  C   UNL     1      10.639   1.451  23.634  0.00  0.00    +0.158 A 
ATOM     16  C   UNL     1       9.796   1.352  22.534  0.00  0.00    +0.159 A 
ATOM     17  C   UNL     1       8.796   0.381  22.492  0.00  0.00    +0.060 A 
BRANCH  15  18
ATOM     18  O   UNL     1      11.565   2.451  23.698  0.00  0.00    -0.503 OA
ATOM     19  H   UNL     1      12.171   2.272  22.949  0.00  0.00    +0.292 HD
ENDBRANCH  15  18
BRANCH  16  20
ATOM     20  O   UNL     1       9.974   2.254  21.522  0.00  0.00    -0.503 OA
ATOM     21  H   UNL     1      10.753   1.994  20.995  0.00  0.00    +0.292 HD
ENDBRANCH  16  20
ENDBRANCH  11  12
BRANCH   7  22
ATOM     22  O   UNL     1       6.599  -7.137  21.999  0.00  0.00    -0.507 OA
ATOM     23  H   UNL     1       6.517  -7.818  22.688  0.00  0.00    +0.292 HD
ENDBRANCH   7  22
BRANCH  10  24
ATOM     24  O   UNL     1       3.327  -4.405  24.043  0.00  0.00    -0.506 OA
ATOM     25  H   UNL     1       3.090  -5.158  24.605  0.00  0.00    +0.292 HD
ENDBRANCH  10  24
BRANCH   1  26
ATOM     26  O   UNL     1       5.995   0.200  24.703  0.00  0.00    -0.453 OA
BRANCH  26  29
ATOM     27  C   UNL     1       5.612   0.422  28.311  0.00  0.00    +0.198 C 
ATOM     28  O   UNL     1       5.222   0.291  26.936  0.00  0.00    -0.337 OA
ATOM     29  C   UNL     1       6.331   0.535  26.060  0.00  0.00    +0.340 C 
ATOM     30  C   UNL     1       6.698   2.044  26.152  0.00  0.00    +0.221 C 
ATOM     31  C   UNL     1       6.975   2.410  27.636  0.00  0.00    +0.180 C 
ATOM     32  C   UNL     1       5.911   1.891  28.614  0.00  0.00    +0.171 C 
BRANCH  31  33
ATOM     33  O   UNL     1       7.183   3.821  27.764  0.00  0.00    -0.386 OA
ATOM     34  H   UNL     1       6.347   4.260  27.532  0.00  0.00    +0.210 HD
ENDBRANCH  31  33
BRANCH  32  35
ATOM     35  O   UNL     1       4.717   2.669  28.541  0.00  0.00    -0.387 OA
ATOM     36  H   UNL     1       3.991   2.122  28.892  0.00  0.00    +0.210 HD
ENDBRANCH  32  35
BRANCH  30  37
ATOM     37  O   UNL     1       7.761   2.459  25.252  0.00  0.00    -0.337 OA
BRANCH  37  38
ATOM     38  C   UNL     1       7.441   3.515  24.355  0.00  0.00    +0.282 C 
ATOM     39  O   UNL     1       7.377   4.791  24.981  0.00  0.00    -0.346 OA
ATOM     40  C   UNL     1       6.338   5.563  24.374  0.00  0.00    +0.202 C 
ATOM     41  C   UNL     1       5.776   4.725  23.235  0.00  0.00    +0.142 C 
ATOM     42  C   UNL     1       6.059   3.304  23.714  0.00  0.00    +0.206 C 
BRANCH  41  43
ATOM     43  O   UNL     1       6.550   4.974  22.040  0.00  0.00    -0.381 OA
ATOM     44  H   UNL     1       6.429   5.919  21.827  0.00  0.00    +0.210 HD
ENDBRANCH  41  43
BRANCH  42  45
ATOM     45  O   UNL     1       6.048   2.367  22.632  0.00  0.00    -0.384 OA
ATOM     46  H   UNL     1       6.822   1.784  22.698  0.00  0.00    +0.210 HD
ENDBRANCH  42  45
BRANCH  41  47
ATOM     47  C   UNL     1       4.316   5.074  22.963  0.00  0.00    +0.195 C 
BRANCH  47  48
ATOM     48  O   UNL     1       3.796   4.351  21.855  0.00  0.00    -0.392 OA
ATOM     49  H   UNL     1       2.878   4.119  22.075  0.00  0.00    +0.210 HD
ENDBRANCH  47  48
ENDBRANCH  41  47
ENDBRANCH  37  38
ENDBRANCH  30  37
ENDBRANCH  26  29
ENDBRANCH   1  26
TORSDOF 15
ENDMDL
MODEL 6
REMARK VINA RESULT:      -6.9      2.578      7.741
REMARK  Name = 
REMARK  15 active torsions:
REMARK  status: ('A' for Active; 'I' for Inactive)
REMARK    1  A    between atoms: C_2  and  O_46
REMARK    2  A    between atoms: C_4  and  O_45
REMARK    3  A    between atoms: C_6  and  O_33
REMARK    4  A    between atoms: C_8  and  O_11
REMARK    5  A    between atoms: O_11  and  C_12
REMARK    6  A    between atoms: C_13  and  C_25
REMARK    7  A    between atoms: C_17  and  O_24
REMARK    8  A    between atoms: C_19  and  O_23
REMARK    9  A    between atoms: C_27  and  O_32
REMARK   10  A    between atoms: C_28  and  O_31
REMARK   11  A    between atoms: O_33  and  C_34
REMARK   12  A    between atoms: C_36  and  O_44
REMARK   13  A    between atoms: C_38  and  C_41
REMARK   14  A    between atoms: C_38  and  O_43
REMARK   15  A    between atoms: C_41  and  O_42
REMARK                            x       y       z     vdW  Elec       q    Type
REMARK                         _______ _______ _______ _____ _____    ______ ____
ROOT
ATOM      1  C   UNL     1       5.770  -0.650  25.387  0.00  0.00    +0.214 A 
ATOM      2  C   UNL     1       4.564  -0.655  26.290  0.00  0.00    +0.238 A 
ATOM      3  O   UNL     1       3.782  -1.599  26.317  0.00  0.00    -0.283 OA
ATOM      4  C   UNL     1       4.272   0.556  27.079  0.00  0.00    +0.109 A 
ATOM      5  C   UNL     1       4.990   1.704  26.770  0.00  0.00    +0.147 A 
ATOM      6  C   UNL     1       4.706   2.922  27.400  0.00  0.00    +0.092 A 
ATOM      7  C   UNL     1       3.691   2.978  28.348  0.00  0.00    +0.124 A 
ATOM      8  C   UNL     1       2.978   1.835  28.692  0.00  0.00    +0.091 A 
ATOM      9  O   UNL     1       5.982   1.723  25.833  0.00  0.00    -0.451 OA
ATOM     10  C   UNL     1       3.272   0.626  28.060  0.00  0.00    +0.135 A 
ATOM     11  C   UNL     1       6.385   0.544  25.213  0.00  0.00    +0.181 A 
ENDROOT
BRANCH  11  12
ATOM     12  C   UNL     1       7.519   0.816  24.277  0.00  0.00    +0.025 A 
ATOM     13  C   UNL     1       8.778   1.188  24.801  0.00  0.00    +0.015 A 
ATOM     14  C   UNL     1       9.807   1.657  23.976  0.00  0.00    +0.050 A 
ATOM     15  C   UNL     1       9.587   1.751  22.613  0.00  0.00    +0.158 A 
ATOM     16  C   UNL     1       8.381   1.333  22.064  0.00  0.00    +0.159 A 
ATOM     17  C   UNL     1       7.353   0.867  22.883  0.00  0.00    +0.060 A 
BRANCH  15  18
ATOM     18  O   UNL     1      10.558   2.275  21.812  0.00  0.00    -0.503 OA
ATOM     19  H   UNL     1      11.284   1.619  21.846  0.00  0.00    +0.292 HD
ENDBRANCH  15  18
BRANCH  16  20
ATOM     20  O   UNL     1       8.243   1.423  20.707  0.00  0.00    -0.503 OA
ATOM     21  H   UNL     1       7.374   1.062  20.449  0.00  0.00    +0.292 HD
ENDBRANCH  16  20
ENDBRANCH  11  12
BRANCH   7  22
ATOM     22  O   UNL     1       3.352   4.141  28.970  0.00  0.00    -0.507 OA
ATOM     23  H   UNL     1       2.772   4.663  28.389  0.00  0.00    +0.292 HD
ENDBRANCH   7  22
BRANCH  10  24
ATOM     24  O   UNL     1       2.562  -0.487  28.421  0.00  0.00    -0.506 OA
ATOM     25  H   UNL     1       2.568  -1.139  27.703  0.00  0.00    +0.292 HD
ENDBRANCH  10  24
BRANCH   1  26
ATOM     26  O   UNL     1       6.227  -1.798  24.732  0.00  0.00    -0.453 OA
BRANCH  26  29
ATOM     27  C   UNL     1       9.608  -3.099  24.437  0.00  0.00    +0.198 C 
ATOM     28  O   UNL     1       8.295  -2.695  24.019  0.00  0.00    -0.337 OA
ATOM     29  C   UNL     1       7.464  -2.401  25.150  0.00  0.00    +0.340 C 
ATOM     30  C   UNL     1       7.172  -3.734  25.897  0.00  0.00    +0.221 C 
ATOM     31  C   UNL     1       8.518  -4.414  26.266  0.00  0.00    +0.180 C 
ATOM     32  C   UNL     1       9.525  -4.471  25.108  0.00  0.00    +0.171 C 
BRANCH  31  33
ATOM     33  O   UNL     1       8.276  -5.706  26.834  0.00  0.00    -0.386 OA
ATOM     34  H   UNL     1       9.141  -6.103  27.035  0.00  0.00    +0.210 HD
ENDBRANCH  31  33
BRANCH  32  35
ATOM     35  O   UNL     1       9.165  -5.471  24.157  0.00  0.00    -0.387 OA
ATOM     36  H   UNL     1       8.619  -6.131  24.620  0.00  0.00    +0.210 HD
ENDBRANCH  32  35
BRANCH  30  37
ATOM     37  O   UNL     1       6.267  -3.603  27.027  0.00  0.00    -0.337 OA
BRANCH  37  38
ATOM     38  C   UNL     1       5.176  -4.513  27.060  0.00  0.00    +0.282 C 
ATOM     39  O   UNL     1       5.447  -5.696  27.802  0.00  0.00    -0.346 OA
ATOM     40  C   UNL     1       4.804  -6.807  27.172  0.00  0.00    +0.202 C 
ATOM     41  C   UNL     1       4.012  -6.248  25.998  0.00  0.00    +0.142 C 
ATOM     42  C   UNL     1       4.805  -4.993  25.646  0.00  0.00    +0.206 C 
BRANCH  41  43
ATOM     43  O   UNL     1       2.700  -5.853  26.461  0.00  0.00    -0.381 OA
ATOM     44  H   UNL     1       2.808  -5.584  27.392  0.00  0.00    +0.210 HD
ENDBRANCH  41  43
BRANCH  42  45
ATOM     45  O   UNL     1       4.020  -4.062  24.896  0.00  0.00    -0.384 OA
ATOM     46  H   UNL     1       4.476  -3.205  24.856  0.00  0.00    +0.210 HD
ENDBRANCH  42  45
BRANCH  41  47
ATOM     47  C   UNL     1       3.857  -7.289  24.893  0.00  0.00    +0.195 C 
BRANCH  47  48
ATOM     48  O   UNL     1       4.535  -6.904  23.705  0.00  0.00    -0.392 OA
ATOM     49  H   UNL     1       5.412  -6.578  23.973  0.00  0.00    +0.210 HD
ENDBRANCH  47  48
ENDBRANCH  41  47
ENDBRANCH  37  38
ENDBRANCH  30  37
ENDBRANCH  26  29
ENDBRANCH   1  26
TORSDOF 15
ENDMDL
MODEL 7
REMARK VINA RESULT:      -6.9      2.983      7.663
REMARK  Name = 
REMARK  15 active torsions:
REMARK  status: ('A' for Active; 'I' for Inactive)
REMARK    1  A    between atoms: C_2  and  O_46
REMARK    2  A    between atoms: C_4  and  O_45
REMARK    3  A    between atoms: C_6  and  O_33
REMARK    4  A    between atoms: C_8  and  O_11
REMARK    5  A    between atoms: O_11  and  C_12
REMARK    6  A    between atoms: C_13  and  C_25
REMARK    7  A    between atoms: C_17  and  O_24
REMARK    8  A    between atoms: C_19  and  O_23
REMARK    9  A    between atoms: C_27  and  O_32
REMARK   10  A    between atoms: C_28  and  O_31
REMARK   11  A    between atoms: O_33  and  C_34
REMARK   12  A    between atoms: C_36  and  O_44
REMARK   13  A    between atoms: C_38  and  C_41
REMARK   14  A    between atoms: C_38  and  O_43
REMARK   15  A    between atoms: C_41  and  O_42
REMARK                            x       y       z     vdW  Elec       q    Type
REMARK                         _______ _______ _______ _____ _____    ______ ____
ROOT
ATOM      1  C   UNL     1       8.156   2.510  23.681  0.00  0.00    +0.214 A 
ATOM      2  C   UNL     1       8.516   3.970  23.582  0.00  0.00    +0.238 A 
ATOM      3  O   UNL     1       7.664   4.835  23.406  0.00  0.00    -0.283 OA
ATOM      4  C   UNL     1       9.942   4.344  23.594  0.00  0.00    +0.109 A 
ATOM      5  C   UNL     1      10.869   3.318  23.465  0.00  0.00    +0.147 A 
ATOM      6  C   UNL     1      12.239   3.594  23.365  0.00  0.00    +0.092 A 
ATOM      7  C   UNL     1      12.672   4.915  23.399  0.00  0.00    +0.124 A 
ATOM      8  C   UNL     1      11.763   5.956  23.555  0.00  0.00    +0.091 A 
ATOM      9  O   UNL     1      10.509   2.004  23.402  0.00  0.00    -0.451 OA
ATOM     10  C   UNL     1      10.401   5.669  23.656  0.00  0.00    +0.135 A 
ATOM     11  C   UNL     1       9.179   1.631  23.571  0.00  0.00    +0.181 A 
ENDROOT
BRANCH  11  12
ATOM     12  C   UNL     1       9.051   0.142  23.518  0.00  0.00    +0.025 A 
ATOM     13  C   UNL     1       8.713  -0.483  22.296  0.00  0.00    +0.015 A 
ATOM     14  C   UNL     1       8.375  -1.840  22.235  0.00  0.00    +0.050 A 
ATOM     15  C   UNL     1       8.378  -2.588  23.399  0.00  0.00    +0.158 A 
ATOM     16  C   UNL     1       8.767  -2.014  24.604  0.00  0.00    +0.159 A 
ATOM     17  C   UNL     1       9.103  -0.662  24.669  0.00  0.00    +0.060 A 
BRANCH  15  18
ATOM     18  O   UNL     1       7.979  -3.891  23.360  0.00  0.00    -0.503 OA
ATOM     19  H   UNL     1       7.539  -3.987  22.492  0.00  0.00    +0.292 HD
ENDBRANCH  15  18
BRANCH  16  20
ATOM     20  O   UNL     1       8.778  -2.819  25.709  0.00  0.00    -0.503 OA
ATOM     21  H   UNL     1       8.741  -2.262  26.510  0.00  0.00    +0.292 HD
ENDBRANCH  16  20
ENDBRANCH  11  12
BRANCH   7  22
ATOM     22  O   UNL     1      13.988   5.243  23.276  0.00  0.00    -0.507 OA
ATOM     23  H   UNL     1      14.112   5.796  22.486  0.00  0.00    +0.292 HD
ENDBRANCH   7  22
BRANCH  10  24
ATOM     24  O   UNL     1       9.526   6.709  23.817  0.00  0.00    -0.506 OA
ATOM     25  H   UNL     1       9.163   6.981  22.960  0.00  0.00    +0.292 HD
ENDBRANCH  10  24
BRANCH   1  26
ATOM     26  O   UNL     1       6.840   2.068  23.848  0.00  0.00    -0.453 OA
BRANCH  26  29
ATOM     27  C   UNL     1       5.681   0.325  26.820  0.00  0.00    +0.198 C 
ATOM     28  O   UNL     1       6.003   0.529  25.436  0.00  0.00    -0.337 OA
ATOM     29  C   UNL     1       6.317   1.904  25.177  0.00  0.00    +0.340 C 
ATOM     30  C   UNL     1       5.012   2.736  25.335  0.00  0.00    +0.221 C 
ATOM     31  C   UNL     1       4.414   2.482  26.746  0.00  0.00    +0.180 C 
ATOM     32  C   UNL     1       4.344   0.998  27.132  0.00  0.00    +0.171 C 
BRANCH  31  33
ATOM     33  O   UNL     1       3.144   3.131  26.865  0.00  0.00    -0.386 OA
ATOM     34  H   UNL     1       3.216   3.995  26.424  0.00  0.00    +0.210 HD
ENDBRANCH  31  33
BRANCH  32  35
ATOM     35  O   UNL     1       3.280   0.334  26.452  0.00  0.00    -0.387 OA
ATOM     36  H   UNL     1       2.446   0.745  26.743  0.00  0.00    +0.210 HD
ENDBRANCH  32  35
BRANCH  30  37
ATOM     37  O   UNL     1       5.160   4.148  25.021  0.00  0.00    -0.337 OA
BRANCH  37  38
ATOM     38  C   UNL     1       4.300   4.655  24.009  0.00  0.00    +0.282 C 
ATOM     39  O   UNL     1       2.960   4.843  24.446  0.00  0.00    -0.346 OA
ATOM     40  C   UNL     1       2.065   4.527  23.376  0.00  0.00    +0.202 C 
ATOM     41  C   UNL     1       2.927   4.198  22.166  0.00  0.00    +0.142 C 
ATOM     42  C   UNL     1       4.210   3.688  22.817  0.00  0.00    +0.206 C 
BRANCH  41  43
ATOM     43  O   UNL     1       3.223   5.420  21.452  0.00  0.00    -0.381 OA
ATOM     44  H   UNL     1       3.916   5.876  21.966  0.00  0.00    +0.210 HD
ENDBRANCH  41  43
BRANCH  42  45
ATOM     45  O   UNL     1       5.323   3.755  21.920  0.00  0.00    -0.384 OA
ATOM     46  H   UNL     1       5.253   4.553  21.371  0.00  0.00    +0.210 HD
ENDBRANCH  42  45
BRANCH  41  47
ATOM     47  C   UNL     1       2.211   3.234  21.225  0.00  0.00    +0.195 C 
BRANCH  47  48
ATOM     48  O   UNL     1       1.513   2.221  21.936  0.00  0.00    -0.392 OA
ATOM     49  H   UNL     1       1.276   1.533  21.290  0.00  0.00    +0.210 HD
ENDBRANCH  47  48
ENDBRANCH  41  47
ENDBRANCH  37  38
ENDBRANCH  30  37
ENDBRANCH  26  29
ENDBRANCH   1  26
TORSDOF 15
ENDMDL
MODEL 8
REMARK VINA RESULT:      -6.8      2.082      5.547
REMARK  Name = 
REMARK  15 active torsions:
REMARK  status: ('A' for Active; 'I' for Inactive)
REMARK    1  A    between atoms: C_2  and  O_46
REMARK    2  A    between atoms: C_4  and  O_45
REMARK    3  A    between atoms: C_6  and  O_33
REMARK    4  A    between atoms: C_8  and  O_11
REMARK    5  A    between atoms: O_11  and  C_12
REMARK    6  A    between atoms: C_13  and  C_25
REMARK    7  A    between atoms: C_17  and  O_24
REMARK    8  A    between atoms: C_19  and  O_23
REMARK    9  A    between atoms: C_27  and  O_32
REMARK   10  A    between atoms: C_28  and  O_31
REMARK   11  A    between atoms: O_33  and  C_34
REMARK   12  A    between atoms: C_36  and  O_44
REMARK   13  A    between atoms: C_38  and  C_41
REMARK   14  A    between atoms: C_38  and  O_43
REMARK   15  A    between atoms: C_41  and  O_42
REMARK                            x       y       z     vdW  Elec       q    Type
REMARK                         _______ _______ _______ _____ _____    ______ ____
ROOT
ATOM      1  C   UNL     1       6.368  -0.913  24.491  0.00  0.00    +0.214 A 
ATOM      2  C   UNL     1       5.354  -2.020  24.610  0.00  0.00    +0.238 A 
ATOM      3  O   UNL     1       4.440  -1.974  25.428  0.00  0.00    -0.283 OA
ATOM      4  C   UNL     1       5.536  -3.231  23.789  0.00  0.00    +0.109 A 
ATOM      5  C   UNL     1       6.749  -3.375  23.130  0.00  0.00    +0.147 A 
ATOM      6  C   UNL     1       7.045  -4.541  22.411  0.00  0.00    +0.092 A 
ATOM      7  C   UNL     1       6.105  -5.564  22.358  0.00  0.00    +0.124 A 
ATOM      8  C   UNL     1       4.873  -5.429  22.988  0.00  0.00    +0.091 A 
ATOM      9  O   UNL     1       7.723  -2.419  23.161  0.00  0.00    -0.451 OA
ATOM     10  C   UNL     1       4.589  -4.262  23.699  0.00  0.00    +0.135 A 
ATOM     11  C   UNL     1       7.488  -1.198  23.785  0.00  0.00    +0.181 A 
ENDROOT
BRANCH  11  12
ATOM     12  C   UNL     1       8.678  -0.305  23.634  0.00  0.00    +0.025 A 
ATOM     13  C   UNL     1       9.569  -0.146  24.720  0.00  0.00    +0.015 A 
ATOM     14  C   UNL     1      10.572   0.831  24.709  0.00  0.00    +0.050 A 
ATOM     15  C   UNL     1      10.696   1.656  23.606  0.00  0.00    +0.158 A 
ATOM     16  C   UNL     1       9.874   1.480  22.499  0.00  0.00    +0.159 A 
ATOM     17  C   UNL     1       8.873   0.509  22.506  0.00  0.00    +0.060 A 
BRANCH  15  18
ATOM     18  O   UNL     1      11.623   2.656  23.618  0.00  0.00    -0.503 OA
ATOM     19  H   UNL     1      11.642   2.983  22.696  0.00  0.00    +0.292 HD
ENDBRANCH  15  18
BRANCH  16  20
ATOM     20  O   UNL     1      10.074   2.310  21.430  0.00  0.00    -0.503 OA
ATOM     21  H   UNL     1      10.944   2.117  21.035  0.00  0.00    +0.292 HD
ENDBRANCH  16  20
ENDBRANCH  11  12
BRANCH   7  22
ATOM     22  O   UNL     1       6.351  -6.731  21.700  0.00  0.00    -0.507 OA
ATOM     23  H   UNL     1       6.597  -7.419  22.340  0.00  0.00    +0.292 HD
ENDBRANCH   7  22
BRANCH  10  24
ATOM     24  O   UNL     1       3.366  -4.150  24.303  0.00  0.00    -0.506 OA
ATOM     25  H   UNL     1       3.093  -5.004  24.674  0.00  0.00    +0.292 HD
ENDBRANCH  10  24
BRANCH   1  26
ATOM     26  O   UNL     1       6.195   0.337  25.095  0.00  0.00    -0.453 OA
BRANCH  26  29
ATOM     27  C   UNL     1       5.466   3.178  22.949  0.00  0.00    +0.198 C 
ATOM     28  O   UNL     1       6.239   2.305  23.785  0.00  0.00    -0.337 OA
ATOM     29  C   UNL     1       5.403   1.335  24.430  0.00  0.00    +0.340 C 
ATOM     30  C   UNL     1       4.513   2.077  25.468  0.00  0.00    +0.221 C 
ATOM     31  C   UNL     1       3.727   3.207  24.749  0.00  0.00    +0.180 C 
ATOM     32  C   UNL     1       4.594   4.077  23.827  0.00  0.00    +0.171 C 
BRANCH  31  33
ATOM     33  O   UNL     1       3.005   3.989  25.706  0.00  0.00    -0.386 OA
ATOM     34  H   UNL     1       2.692   4.789  25.251  0.00  0.00    +0.210 HD
ENDBRANCH  31  33
BRANCH  32  35
ATOM     35  O   UNL     1       5.404   4.981  24.577  0.00  0.00    -0.387 OA
ATOM     36  H   UNL     1       5.890   4.456  25.238  0.00  0.00    +0.210 HD
ENDBRANCH  32  35
BRANCH  30  37
ATOM     37  O   UNL     1       3.663   1.205  26.262  0.00  0.00    -0.337 OA
BRANCH  37  38
ATOM     38  C   UNL     1       3.904   1.207  27.663  0.00  0.00    +0.282 C 
ATOM     39  O   UNL     1       3.662   2.467  28.277  0.00  0.00    -0.346 OA
ATOM     40  C   UNL     1       4.618   2.675  29.321  0.00  0.00    +0.202 C 
ATOM     41  C   UNL     1       5.460   1.409  29.405  0.00  0.00    +0.142 C 
ATOM     42  C   UNL     1       5.372   0.873  27.978  0.00  0.00    +0.206 C 
BRANCH  41  43
ATOM     43  O   UNL     1       4.812   0.471  30.293  0.00  0.00    -0.381 OA
ATOM     44  H   UNL     1       3.972   0.886  30.565  0.00  0.00    +0.210 HD
ENDBRANCH  41  43
BRANCH  42  45
ATOM     45  O   UNL     1       5.684  -0.523  27.916  0.00  0.00    -0.384 OA
ATOM     46  H   UNL     1       6.452  -0.660  27.338  0.00  0.00    +0.210 HD
ENDBRANCH  42  45
BRANCH  41  47
ATOM     47  C   UNL     1       6.858   1.711  29.934  0.00  0.00    +0.195 C 
BRANCH  47  48
ATOM     48  O   UNL     1       7.865   1.059  29.171  0.00  0.00    -0.392 OA
ATOM     49  H   UNL     1       8.280   1.738  28.612  0.00  0.00    +0.210 HD
ENDBRANCH  47  48
ENDBRANCH  41  47
ENDBRANCH  37  38
ENDBRANCH  30  37
ENDBRANCH  26  29
ENDBRANCH   1  26
TORSDOF 15
ENDMDL
MODEL 9
REMARK VINA RESULT:      -6.7      2.656      8.464
REMARK  Name = 
REMARK  15 active torsions:
REMARK  status: ('A' for Active; 'I' for Inactive)
REMARK    1  A    between atoms: C_2  and  O_46
REMARK    2  A    between atoms: C_4  and  O_45
REMARK    3  A    between atoms: C_6  and  O_33
REMARK    4  A    between atoms: C_8  and  O_11
REMARK    5  A    between atoms: O_11  and  C_12
REMARK    6  A    between atoms: C_13  and  C_25
REMARK    7  A    between atoms: C_17  and  O_24
REMARK    8  A    between atoms: C_19  and  O_23
REMARK    9  A    between atoms: C_27  and  O_32
REMARK   10  A    between atoms: C_28  and  O_31
REMARK   11  A    between atoms: O_33  and  C_34
REMARK   12  A    between atoms: C_36  and  O_44
REMARK   13  A    between atoms: C_38  and  C_41
REMARK   14  A    between atoms: C_38  and  O_43
REMARK   15  A    between atoms: C_41  and  O_42
REMARK                            x       y       z     vdW  Elec       q    Type
REMARK                         _______ _______ _______ _____ _____    ______ ____
ROOT
ATOM      1  C   UNL     1       6.729  -0.588  24.934  0.00  0.00    +0.214 A 
ATOM      2  C   UNL     1       6.431   0.814  24.471  0.00  0.00    +0.238 A 
ATOM      3  O   UNL     1       5.294   1.166  24.171  0.00  0.00    -0.283 OA
ATOM      4  C   UNL     1       7.557   1.745  24.277  0.00  0.00    +0.109 A 
ATOM      5  C   UNL     1       8.837   1.208  24.312  0.00  0.00    +0.147 A 
ATOM      6  C   UNL     1       9.958   2.003  24.038  0.00  0.00    +0.092 A 
ATOM      7  C   UNL     1       9.782   3.346  23.730  0.00  0.00    +0.124 A 
ATOM      8  C   UNL     1       8.510   3.910  23.716  0.00  0.00    +0.091 A 
ATOM      9  O   UNL     1       9.078  -0.107  24.585  0.00  0.00    -0.451 OA
ATOM     10  C   UNL     1       7.401   3.110  23.994  0.00  0.00    +0.135 A 
ATOM     11  C   UNL     1       8.033  -0.952  24.945  0.00  0.00    +0.181 A 
ENDROOT
BRANCH  11  12
ATOM     12  C   UNL     1       8.558  -2.319  25.250  0.00  0.00    +0.025 A 
ATOM     13  C   UNL     1       9.432  -2.946  24.333  0.00  0.00    +0.015 A 
ATOM     14  C   UNL     1       9.783  -4.296  24.460  0.00  0.00    +0.050 A 
ATOM     15  C   UNL     1       9.266  -5.029  25.512  0.00  0.00    +0.158 A 
ATOM     16  C   UNL     1       8.455  -4.422  26.463  0.00  0.00    +0.159 A 
ATOM     17  C   UNL     1       8.102  -3.078  26.339  0.00  0.00    +0.060 A 
BRANCH  15  18
ATOM     18  O   UNL     1       9.545  -6.361  25.602  0.00  0.00    -0.503 OA
ATOM     19  H   UNL     1      10.366  -6.405  26.133  0.00  0.00    +0.292 HD
ENDBRANCH  15  18
BRANCH  16  20
ATOM     20  O   UNL     1       8.006  -5.198  27.495  0.00  0.00    -0.503 OA
ATOM     21  H   UNL     1       7.140  -5.579  27.255  0.00  0.00    +0.292 HD
ENDBRANCH  16  20
ENDBRANCH  11  12
BRANCH   7  22
ATOM     22  O   UNL     1      10.832   4.158  23.425  0.00  0.00    -0.507 OA
ATOM     23  H   UNL     1      10.569   4.782  22.727  0.00  0.00    +0.292 HD
ENDBRANCH   7  22
BRANCH  10  24
ATOM     24  O   UNL     1       6.161   3.689  23.982  0.00  0.00    -0.506 OA
ATOM     25  H   UNL     1       6.218   4.615  24.267  0.00  0.00    +0.292 HD
ENDBRANCH  10  24
BRANCH   1  26
ATOM     26  O   UNL     1       5.726  -1.489  25.308  0.00  0.00    -0.453 OA
BRANCH  26  29
ATOM     27  C   UNL     1       4.681  -0.467  28.636  0.00  0.00    +0.198 C 
ATOM     28  O   UNL     1       5.527  -1.020  27.617  0.00  0.00    -0.337 OA
ATOM     29  C   UNL     1       4.826  -1.136  26.372  0.00  0.00    +0.340 C 
ATOM     30  C   UNL     1       3.740  -2.239  26.528  0.00  0.00    +0.221 C 
ATOM     31  C   UNL     1       2.827  -1.886  27.734  0.00  0.00    +0.180 C 
ATOM     32  C   UNL     1       3.597  -1.483  29.000  0.00  0.00    +0.171 C 
BRANCH  31  33
ATOM     33  O   UNL     1       1.905  -2.953  27.981  0.00  0.00    -0.386 OA
ATOM     34  H   UNL     1       2.145  -3.354  28.834  0.00  0.00    +0.210 HD
ENDBRANCH  31  33
BRANCH  32  35
ATOM     35  O   UNL     1       4.174  -2.620  29.641  0.00  0.00    -0.387 OA
ATOM     36  H   UNL     1       4.570  -3.177  28.946  0.00  0.00    +0.210 HD
ENDBRANCH  32  35
BRANCH  30  37
ATOM     37  O   UNL     1       2.997  -2.525  25.312  0.00  0.00    -0.337 OA
BRANCH  37  38
ATOM     38  C   UNL     1       2.967  -3.888  24.907  0.00  0.00    +0.282 C 
ATOM     39  O   UNL     1       1.891  -4.624  25.476  0.00  0.00    -0.346 OA
ATOM     40  C   UNL     1       2.326  -5.958  25.753  0.00  0.00    +0.202 C 
ATOM     41  C   UNL     1       3.754  -6.070  25.238  0.00  0.00    +0.142 C 
ATOM     42  C   UNL     1       4.244  -4.628  25.340  0.00  0.00    +0.206 C 
BRANCH  41  43
ATOM     43  O   UNL     1       3.725  -6.453  23.845  0.00  0.00    -0.381 OA
ATOM     44  H   UNL     1       2.932  -6.033  23.462  0.00  0.00    +0.210 HD
ENDBRANCH  41  43
BRANCH  42  45
ATOM     45  O   UNL     1       5.375  -4.391  24.496  0.00  0.00    -0.384 OA
ATOM     46  H   UNL     1       5.812  -5.234  24.291  0.00  0.00    +0.210 HD
ENDBRANCH  42  45
BRANCH  41  47
ATOM     47  C   UNL     1       4.543  -7.113  26.024  0.00  0.00    +0.195 C 
BRANCH  47  48
ATOM     48  O   UNL     1       5.700  -6.555  26.631  0.00  0.00    -0.392 OA
ATOM     49  H   UNL     1       6.415  -7.207  26.531  0.00  0.00    +0.210 HD
ENDBRANCH  47  48
ENDBRANCH  41  47
ENDBRANCH  37  38
ENDBRANCH  30  37
ENDBRANCH  26  29
ENDBRANCH   1  26
TORSDOF 15
ENDMDL
