MODEL 1
REMARK VINA RESULT:      -6.5      0.000      0.000
REMARK  Name = 
REMARK  28 active torsions:
REMARK  status: ('A' for Active; 'I' for Inactive)
REMARK    1  A    between atoms: C_3  and  O_74
REMARK    2  A    between atoms: C_6  and  C_7
REMARK    3  A    between atoms: C_8  and  C_9
REMARK    4  A    between atoms: C_9  and  O_11
REMARK    5  A    between atoms: O_11  and  C_12
REMARK    6  A    between atoms: C_12  and  C_13
REMARK    7  A    between atoms: C_14  and  O_73
REMARK    8  A    between atoms: C_16  and  O_72
REMARK    9  A    between atoms: C_17  and  O_71
REMARK   10  A    between atoms: C_19  and  O_22
REMARK   11  A    between atoms: O_22  and  C_23
REMARK   12  A    between atoms: C_24  and  O_35
REMARK   13  A    between atoms: C_27  and  C_33
REMARK   14  A    between atoms: C_28  and  O_32
REMARK   15  A    between atoms: C_30  and  O_31
REMARK   16  A    between atoms: C_33  and  O_34
REMARK   17  A    between atoms: O_35  and  C_36
REMARK   18  A    between atoms: C_37  and  O_70
REMARK   19  A    between atoms: C_39  and  O_69
REMARK   20  A    between atoms: C_41  and  C_67
REMARK   21  A    between atoms: C_43  and  O_45
REMARK   22  A    between atoms: O_45  and  C_46
REMARK   23  A    between atoms: C_47  and  C_59
REMARK   24  A    between atoms: C_51  and  O_58
REMARK   25  A    between atoms: C_53  and  O_57
REMARK   26  A    between atoms: C_61  and  O_66
REMARK   27  A    between atoms: C_62  and  O_65
REMARK   28  A    between atoms: C_67  and  O_68
REMARK                            x       y       z     vdW  Elec       q    Type
REMARK                         _______ _______ _______ _____ _____    ______ ____
ROOT
ATOM      1  C   UNL     1       3.952   0.294  26.671  0.00  0.00    +0.208 C 
ATOM      2  C   UNL     1       4.907   0.159  27.878  0.00  0.00    +0.179 C 
ATOM      3  C   UNL     1       4.373   1.019  29.034  0.00  0.00    +0.177 C 
ATOM      4  C   UNL     1       4.266   2.487  28.627  0.00  0.00    +0.178 C 
ATOM      5  O   UNL     1       3.433   2.623  27.470  0.00  0.00    -0.341 OA
ATOM      6  C   UNL     1       3.775   1.804  26.340  0.00  0.00    +0.283 C 
ENDROOT
BRANCH   3   7
ATOM      7  O   UNL     1       5.146   0.845  30.217  0.00  0.00    -0.386 OA
ATOM      8  H   UNL     1       4.915   1.571  30.822  0.00  0.00    +0.210 HD
ENDBRANCH   3   7
BRANCH   2   9
ATOM      9  O   UNL     1       6.265   0.433  27.506  0.00  0.00    -0.386 OA
ATOM     10  H   UNL     1       6.677   1.016  28.167  0.00  0.00    +0.210 HD
ENDBRANCH   2   9
BRANCH   6  11
ATOM     11  O   UNL     1       4.946   2.351  25.711  0.00  0.00    -0.337 OA
BRANCH  11  12
ATOM     12  C   UNL     1       4.973   2.375  24.261  0.00  0.00    +0.221 C 
ATOM     13  C   UNL     1       6.357   1.826  23.738  0.00  0.00    +0.340 C 
ATOM     14  O   UNL     1       7.432   2.754  23.973  0.00  0.00    -0.331 OA
ATOM     15  C   UNL     1       7.199   4.130  23.598  0.00  0.00    +0.179 C 
ATOM     16  C   UNL     1       5.897   4.665  24.220  0.00  0.00    +0.177 C 
ATOM     17  C   UNL     1       4.746   3.793  23.710  0.00  0.00    +0.180 C 
BRANCH  16  18
ATOM     18  O   UNL     1       5.649   6.035  23.890  0.00  0.00    -0.386 OA
ATOM     19  H   UNL     1       6.306   6.538  24.416  0.00  0.00    +0.210 HD
ENDBRANCH  16  18
BRANCH  17  20
ATOM     20  O   UNL     1       3.497   4.395  24.071  0.00  0.00    -0.386 OA
ATOM     21  H   UNL     1       3.261   4.112  24.976  0.00  0.00    +0.210 HD
ENDBRANCH  17  20
BRANCH  13  22
ATOM     22  O   UNL     1       6.606   0.544  24.394  0.00  0.00    -0.453 OA
BRANCH  22  23
ATOM     23  C   UNL     1       6.619  -0.672  23.690  0.00  0.00    +0.214 A 
ATOM     24  C   UNL     1       5.644  -1.781  24.004  0.00  0.00    +0.238 A 
ATOM     25  O   UNL     1       4.774  -1.636  24.851  0.00  0.00    -0.283 OA
ATOM     26  C   UNL     1       5.840  -3.115  23.348  0.00  0.00    +0.109 A 
ATOM     27  C   UNL     1       6.909  -3.253  22.478  0.00  0.00    +0.147 A 
ATOM     28  C   UNL     1       7.223  -4.491  21.883  0.00  0.00    +0.092 A 
ATOM     29  C   UNL     1       6.426  -5.592  22.148  0.00  0.00    +0.124 A 
ATOM     30  C   UNL     1       5.329  -5.475  22.991  0.00  0.00    +0.091 A 
ATOM     31  O   UNL     1       7.722  -2.215  22.157  0.00  0.00    -0.451 OA
ATOM     32  C   UNL     1       5.040  -4.241  23.592  0.00  0.00    +0.135 A 
ATOM     33  C   UNL     1       7.622  -1.003  22.836  0.00  0.00    +0.181 A 
BRANCH  33  34
ATOM     34  C   UNL     1       8.880  -0.266  22.560  0.00  0.00    +0.025 A 
ATOM     35  C   UNL     1       8.857   0.623  21.469  0.00  0.00    +0.015 A 
ATOM     36  C   UNL     1       9.622   1.797  21.485  0.00  0.00    +0.050 A 
ATOM     37  C   UNL     1      10.453   2.049  22.565  0.00  0.00    +0.158 A 
ATOM     38  C   UNL     1      10.604   1.098  23.567  0.00  0.00    +0.159 A 
ATOM     39  C   UNL     1       9.813  -0.052  23.593  0.00  0.00    +0.060 A 
BRANCH  37  40
ATOM     40  O   UNL     1      11.072   3.263  22.663  0.00  0.00    -0.503 OA
ATOM     41  H   UNL     1      10.392   3.917  22.404  0.00  0.00    +0.292 HD
ENDBRANCH  37  40
BRANCH  38  42
ATOM     42  O   UNL     1      11.505   1.352  24.562  0.00  0.00    -0.503 OA
ATOM     43  H   UNL     1      12.362   1.444  24.105  0.00  0.00    +0.292 HD
ENDBRANCH  38  42
ENDBRANCH  33  34
BRANCH  32  44
ATOM     44  O   UNL     1       3.955  -4.166  24.420  0.00  0.00    -0.506 OA
ATOM     45  H   UNL     1       4.168  -3.626  25.199  0.00  0.00    +0.292 HD
ENDBRANCH  32  44
BRANCH  29  46
ATOM     46  O   UNL     1       6.678  -6.815  21.601  0.00  0.00    -0.507 OA
ATOM     47  H   UNL     1       5.987  -7.443  21.875  0.00  0.00    +0.292 HD
ENDBRANCH  29  46
ENDBRANCH  22  23
ENDBRANCH  13  22
BRANCH  15  48
ATOM     48  C   UNL     1       7.252   4.406  22.073  0.00  0.00    +0.190 C 
BRANCH  48  49
ATOM     49  O   UNL     1       7.906   5.636  21.771  0.00  0.00    -0.392 OA
ATOM     50  H   UNL     1       7.481   6.014  20.958  0.00  0.00    +0.210 HD
ENDBRANCH  48  49
ENDBRANCH  15  48
ENDBRANCH  11  12
ENDBRANCH   6  11
BRANCH   4  51
ATOM     51  C   UNL     1       5.602   3.231  28.475  0.00  0.00    +0.190 C 
BRANCH  51  52
ATOM     52  O   UNL     1       5.396   4.426  27.715  0.00  0.00    -0.392 OA
ATOM     53  H   UNL     1       4.600   4.250  27.178  0.00  0.00    +0.210 HD
ENDBRANCH  51  52
ENDBRANCH   4  51
BRANCH   1  54
ATOM     54  O   UNL     1       2.673  -0.355  26.803  0.00  0.00    -0.338 OA
BRANCH  54  57
ATOM     55  C   UNL     1       2.430  -3.906  27.423  0.00  0.00    +0.190 C 
ATOM     56  O   UNL     1       2.486  -2.619  26.830  0.00  0.00    -0.339 OA
ATOM     57  C   UNL     1       2.664  -1.501  27.674  0.00  0.00    +0.282 C 
ATOM     58  C   UNL     1       1.598  -1.439  28.795  0.00  0.00    +0.201 C 
ATOM     59  C   UNL     1       1.575  -2.754  29.582  0.00  0.00    +0.179 C 
ATOM     60  C   UNL     1       1.485  -3.967  28.641  0.00  0.00    +0.178 C 
BRANCH  58  61
ATOM     61  O   UNL     1       1.798  -0.298  29.646  0.00  0.00    -0.384 OA
ATOM     62  H   UNL     1       2.203   0.413  29.114  0.00  0.00    +0.210 HD
ENDBRANCH  58  61
BRANCH  59  63
ATOM     63  O   UNL     1       0.444  -2.735  30.480  0.00  0.00    -0.386 OA
ATOM     64  H   UNL     1      -0.034  -3.584  30.414  0.00  0.00    +0.210 HD
ENDBRANCH  59  63
BRANCH  60  65
ATOM     65  O   UNL     1       1.684  -5.173  29.375  0.00  0.00    -0.386 OA
ATOM     66  H   UNL     1       1.219  -5.080  30.227  0.00  0.00    +0.210 HD
ENDBRANCH  60  65
BRANCH  55  67
ATOM     67  C   UNL     1       3.869  -4.429  27.543  0.00  0.00    +0.266 C 
BRANCH  67  68
ATOM     68  O   UNL     1       3.924  -5.570  28.458  0.00  0.00    -0.459 OA
BRANCH  68  69
ATOM     69  C   UNL     1       4.942  -6.454  28.247  0.00  0.00    +0.332 C 
ATOM     70  O   UNL     1       5.159  -7.450  28.912  0.00  0.00    -0.246 OA
BRANCH  69  72
ATOM     71  C   UNL     1       6.974  -5.441  27.349  0.00  0.00    +0.015 C 
ATOM     72  C   UNL     1       5.779  -6.013  27.102  0.00  0.00    +0.092 C 
BRANCH  71  74
ATOM     73  C   UNL     1       8.665  -5.654  25.474  0.00  0.00    +0.011 A 
ATOM     74  C   UNL     1       7.907  -4.873  26.356  0.00  0.00    -0.025 A 
ATOM     75  C   UNL     1       8.085  -3.478  26.329  0.00  0.00    +0.011 A 
ATOM     76  C   UNL     1       8.981  -2.882  25.436  0.00  0.00    +0.046 A 
ATOM     77  C   UNL     1       9.719  -3.677  24.571  0.00  0.00    +0.117 A 
ATOM     78  C   UNL     1       9.568  -5.061  24.582  0.00  0.00    +0.046 A 
BRANCH  77  79
ATOM     79  O   UNL     1      10.595  -3.060  23.729  0.00  0.00    -0.507 OA
ATOM     80  H   UNL     1      10.092  -2.519  23.097  0.00  0.00    +0.292 HD
ENDBRANCH  77  79
ENDBRANCH  71  74
ENDBRANCH  69  72
ENDBRANCH  68  69
ENDBRANCH  67  68
ENDBRANCH  55  67
ENDBRANCH  54  57
ENDBRANCH   1  54
TORSDOF 28
ENDMDL
MODEL 2
REMARK VINA RESULT:      -6.5      2.044      7.053
REMARK  Name = 
REMARK  28 active torsions:
REMARK  status: ('A' for Active; 'I' for Inactive)
REMARK    1  A    between atoms: C_3  and  O_74
REMARK    2  A    between atoms: C_6  and  C_7
REMARK    3  A    between atoms: C_8  and  C_9
REMARK    4  A    between atoms: C_9  and  O_11
REMARK    5  A    between atoms: O_11  and  C_12
REMARK    6  A    between atoms: C_12  and  C_13
REMARK    7  A    between atoms: C_14  and  O_73
REMARK    8  A    between atoms: C_16  and  O_72
REMARK    9  A    between atoms: C_17  and  O_71
REMARK   10  A    between atoms: C_19  and  O_22
REMARK   11  A    between atoms: O_22  and  C_23
REMARK   12  A    between atoms: C_24  and  O_35
REMARK   13  A    between atoms: C_27  and  C_33
REMARK   14  A    between atoms: C_28  and  O_32
REMARK   15  A    between atoms: C_30  and  O_31
REMARK   16  A    between atoms: C_33  and  O_34
REMARK   17  A    between atoms: O_35  and  C_36
REMARK   18  A    between atoms: C_37  and  O_70
REMARK   19  A    between atoms: C_39  and  O_69
REMARK   20  A    between atoms: C_41  and  C_67
REMARK   21  A    between atoms: C_43  and  O_45
REMARK   22  A    between atoms: O_45  and  C_46
REMARK   23  A    between atoms: C_47  and  C_59
REMARK   24  A    between atoms: C_51  and  O_58
REMARK   25  A    between atoms: C_53  and  O_57
REMARK   26  A    between atoms: C_61  and  O_66
REMARK   27  A    between atoms: C_62  and  O_65
REMARK   28  A    between atoms: C_67  and  O_68
REMARK                            x       y       z     vdW  Elec       q    Type
REMARK                         _______ _______ _______ _____ _____    ______ ____
ROOT
ATOM      1  C   UNL     1       5.661   3.094  25.631  0.00  0.00    +0.208 C 
ATOM      2  C   UNL     1       4.994   3.320  24.257  0.00  0.00    +0.179 C 
ATOM      3  C   UNL     1       4.332   4.706  24.246  0.00  0.00    +0.177 C 
ATOM      4  C   UNL     1       3.283   4.827  25.350  0.00  0.00    +0.178 C 
ATOM      5  O   UNL     1       3.873   4.558  26.627  0.00  0.00    -0.341 OA
ATOM      6  C   UNL     1       4.600   3.324  26.746  0.00  0.00    +0.283 C 
ENDROOT
BRANCH   3   7
ATOM      7  O   UNL     1       3.799   5.022  22.963  0.00  0.00    -0.386 OA
ATOM      8  H   UNL     1       2.904   5.377  23.102  0.00  0.00    +0.210 HD
ENDBRANCH   3   7
BRANCH   2   9
ATOM      9  O   UNL     1       4.118   2.235  23.914  0.00  0.00    -0.386 OA
ATOM     10  H   UNL     1       4.453   1.407  24.299  0.00  0.00    +0.210 HD
ENDBRANCH   2   9
BRANCH   6  11
ATOM     11  O   UNL     1       3.659   2.240  26.817  0.00  0.00    -0.337 OA
BRANCH  11  12
ATOM     12  C   UNL     1       3.751   1.353  27.961  0.00  0.00    +0.221 C 
ATOM     13  C   UNL     1       3.080  -0.035  27.623  0.00  0.00    +0.340 C 
ATOM     14  O   UNL     1       1.646   0.058  27.557  0.00  0.00    -0.331 OA
ATOM     15  C   UNL     1       0.987   0.747  28.643  0.00  0.00    +0.179 C 
ATOM     16  C   UNL     1       1.594   2.143  28.868  0.00  0.00    +0.177 C 
ATOM     17  C   UNL     1       3.077   1.955  29.205  0.00  0.00    +0.180 C 
BRANCH  16  18
ATOM     18  O   UNL     1       0.947   2.865  29.922  0.00  0.00    -0.386 OA
ATOM     19  H   UNL     1       0.438   2.183  30.410  0.00  0.00    +0.210 HD
ENDBRANCH  16  18
BRANCH  17  20
ATOM     20  O   UNL     1       3.624   3.202  29.652  0.00  0.00    -0.386 OA
ATOM     21  H   UNL     1       4.215   3.033  30.411  0.00  0.00    +0.210 HD
ENDBRANCH  17  20
BRANCH  13  22
ATOM     22  O   UNL     1       3.643  -0.507  26.359  0.00  0.00    -0.453 OA
BRANCH  22  23
ATOM     23  C   UNL     1       3.778  -1.873  26.059  0.00  0.00    +0.214 A 
ATOM     24  C   UNL     1       2.578  -2.750  25.798  0.00  0.00    +0.238 A 
ATOM     25  O   UNL     1       1.447  -2.285  25.788  0.00  0.00    -0.283 OA
ATOM     26  C   UNL     1       2.784  -4.230  25.676  0.00  0.00    +0.109 A 
ATOM     27  C   UNL     1       4.076  -4.712  25.804  0.00  0.00    +0.147 A 
ATOM     28  C   UNL     1       4.355  -6.093  25.791  0.00  0.00    +0.092 A 
ATOM     29  C   UNL     1       3.317  -6.993  25.614  0.00  0.00    +0.124 A 
ATOM     30  C   UNL     1       2.016  -6.536  25.450  0.00  0.00    +0.091 A 
ATOM     31  O   UNL     1       5.145  -3.891  25.961  0.00  0.00    -0.451 OA
ATOM     32  C   UNL     1       1.750  -5.160  25.486  0.00  0.00    +0.135 A 
ATOM     33  C   UNL     1       4.961  -2.528  26.184  0.00  0.00    +0.181 A 
BRANCH  33  34
ATOM     34  C   UNL     1       6.246  -2.018  26.725  0.00  0.00    +0.025 A 
ATOM     35  C   UNL     1       7.403  -2.735  26.367  0.00  0.00    +0.015 A 
ATOM     36  C   UNL     1       8.631  -2.079  26.205  0.00  0.00    +0.050 A 
ATOM     37  C   UNL     1       8.711  -0.719  26.459  0.00  0.00    +0.158 A 
ATOM     38  C   UNL     1       7.613  -0.038  26.971  0.00  0.00    +0.159 A 
ATOM     39  C   UNL     1       6.369  -0.663  27.089  0.00  0.00    +0.060 A 
BRANCH  37  40
ATOM     40  O   UNL     1       9.858  -0.047  26.146  0.00  0.00    -0.503 OA
ATOM     41  H   UNL     1      10.394  -0.064  26.964  0.00  0.00    +0.292 HD
ENDBRANCH  37  40
BRANCH  38  42
ATOM     42  O   UNL     1       7.768   1.280  27.293  0.00  0.00    -0.503 OA
ATOM     43  H   UNL     1       8.629   1.530  26.909  0.00  0.00    +0.292 HD
ENDBRANCH  38  42
ENDBRANCH  33  34
BRANCH  32  44
ATOM     44  O   UNL     1       0.456  -4.749  25.328  0.00  0.00    -0.506 OA
ATOM     45  H   UNL     1      -0.116  -5.513  25.151  0.00  0.00    +0.292 HD
ENDBRANCH  32  44
BRANCH  29  46
ATOM     46  O   UNL     1       3.525  -8.340  25.591  0.00  0.00    -0.507 OA
ATOM     47  H   UNL     1       3.991  -8.611  26.400  0.00  0.00    +0.292 HD
ENDBRANCH  29  46
ENDBRANCH  22  23
ENDBRANCH  13  22
BRANCH  15  48
ATOM     48  C   UNL     1       0.907  -0.055  29.968  0.00  0.00    +0.190 C 
BRANCH  48  49
ATOM     49  O   UNL     1       0.592  -1.428  29.747  0.00  0.00    -0.392 OA
ATOM     50  H   UNL     1       0.122  -1.764  30.554  0.00  0.00    +0.210 HD
ENDBRANCH  48  49
ENDBRANCH  15  48
ENDBRANCH  11  12
ENDBRANCH   6  11
BRANCH   4  51
ATOM     51  C   UNL     1       1.990   4.027  25.125  0.00  0.00    +0.190 C 
BRANCH  51  52
ATOM     52  O   UNL     1       1.027   4.858  24.471  0.00  0.00    -0.392 OA
ATOM     53  H   UNL     1       1.500   5.690  24.276  0.00  0.00    +0.210 HD
ENDBRANCH  51  52
ENDBRANCH   4  51
BRANCH   1  54
ATOM     54  O   UNL     1       6.850   3.864  25.889  0.00  0.00    -0.338 OA
BRANCH  54  57
ATOM     55  C   UNL     1       9.453   2.437  23.829  0.00  0.00    +0.190 C 
ATOM     56  O   UNL     1       8.452   2.671  24.806  0.00  0.00    -0.339 OA
ATOM     57  C   UNL     1       7.785   3.915  24.796  0.00  0.00    +0.282 C 
ATOM     58  C   UNL     1       8.772   5.108  24.859  0.00  0.00    +0.201 C 
ATOM     59  C   UNL     1       9.808   5.003  23.734  0.00  0.00    +0.179 C 
ATOM     60  C   UNL     1      10.450   3.605  23.695  0.00  0.00    +0.178 C 
BRANCH  58  61
ATOM     61  O   UNL     1       8.075   6.365  24.843  0.00  0.00    -0.384 OA
ATOM     62  H   UNL     1       7.866   6.587  23.916  0.00  0.00    +0.210 HD
ENDBRANCH  58  61
BRANCH  59  63
ATOM     63  O   UNL     1      10.820   6.011  23.944  0.00  0.00    -0.386 OA
ATOM     64  H   UNL     1      11.701   5.623  23.778  0.00  0.00    +0.210 HD
ENDBRANCH  59  63
BRANCH  60  65
ATOM     65  O   UNL     1      11.241   3.463  22.518  0.00  0.00    -0.386 OA
ATOM     66  H   UNL     1      11.538   2.535  22.472  0.00  0.00    +0.210 HD
ENDBRANCH  60  65
BRANCH  55  67
ATOM     67  C   UNL     1       8.761   1.873  22.578  0.00  0.00    +0.266 C 
BRANCH  67  68
ATOM     68  O   UNL     1       9.641   0.928  21.890  0.00  0.00    -0.459 OA
BRANCH  68  69
ATOM     69  C   UNL     1       9.810  -0.281  22.500  0.00  0.00    +0.332 C 
ATOM     70  O   UNL     1      10.809  -0.635  23.098  0.00  0.00    -0.246 OA
BRANCH  69  72
ATOM     71  C   UNL     1       8.539  -2.322  22.932  0.00  0.00    +0.015 C 
ATOM     72  C   UNL     1       8.607  -1.130  22.305  0.00  0.00    +0.092 C 
BRANCH  71  74
ATOM     73  C   UNL     1       7.706  -4.711  22.813  0.00  0.00    +0.011 A 
ATOM     74  C   UNL     1       7.470  -3.331  22.803  0.00  0.00    -0.025 A 
ATOM     75  C   UNL     1       6.151  -2.884  22.604  0.00  0.00    +0.011 A 
ATOM     76  C   UNL     1       5.099  -3.791  22.439  0.00  0.00    +0.046 A 
ATOM     77  C   UNL     1       5.358  -5.153  22.455  0.00  0.00    +0.117 A 
ATOM     78  C   UNL     1       6.655  -5.622  22.642  0.00  0.00    +0.046 A 
BRANCH  77  79
ATOM     79  O   UNL     1       4.309  -6.004  22.272  0.00  0.00    -0.507 OA
ATOM     80  H   UNL     1       3.487  -5.487  22.257  0.00  0.00    +0.292 HD
ENDBRANCH  77  79
ENDBRANCH  71  74
ENDBRANCH  69  72
ENDBRANCH  68  69
ENDBRANCH  67  68
ENDBRANCH  55  67
ENDBRANCH  54  57
ENDBRANCH   1  54
TORSDOF 28
ENDMDL
MODEL 3
REMARK VINA RESULT:      -6.1      1.995      6.688
REMARK  Name = 
REMARK  28 active torsions:
REMARK  status: ('A' for Active; 'I' for Inactive)
REMARK    1  A    between atoms: C_3  and  O_74
REMARK    2  A    between atoms: C_6  and  C_7
REMARK    3  A    between atoms: C_8  and  C_9
REMARK    4  A    between atoms: C_9  and  O_11
REMARK    5  A    between atoms: O_11  and  C_12
REMARK    6  A    between atoms: C_12  and  C_13
REMARK    7  A    between atoms: C_14  and  O_73
REMARK    8  A    between atoms: C_16  and  O_72
REMARK    9  A    between atoms: C_17  and  O_71
REMARK   10  A    between atoms: C_19  and  O_22
REMARK   11  A    between atoms: O_22  and  C_23
REMARK   12  A    between atoms: C_24  and  O_35
REMARK   13  A    between atoms: C_27  and  C_33
REMARK   14  A    between atoms: C_28  and  O_32
REMARK   15  A    between atoms: C_30  and  O_31
REMARK   16  A    between atoms: C_33  and  O_34
REMARK   17  A    between atoms: O_35  and  C_36
REMARK   18  A    between atoms: C_37  and  O_70
REMARK   19  A    between atoms: C_39  and  O_69
REMARK   20  A    between atoms: C_41  and  C_67
REMARK   21  A    between atoms: C_43  and  O_45
REMARK   22  A    between atoms: O_45  and  C_46
REMARK   23  A    between atoms: C_47  and  C_59
REMARK   24  A    between atoms: C_51  and  O_58
REMARK   25  A    between atoms: C_53  and  O_57
REMARK   26  A    between atoms: C_61  and  O_66
REMARK   27  A    between atoms: C_62  and  O_65
REMARK   28  A    between atoms: C_67  and  O_68
REMARK                            x       y       z     vdW  Elec       q    Type
REMARK                         _______ _______ _______ _____ _____    ______ ____
ROOT
ATOM      1  C   UNL     1       8.409   1.261  23.608  0.00  0.00    +0.208 C 
ATOM      2  C   UNL     1       9.390   1.991  22.665  0.00  0.00    +0.179 C 
ATOM      3  C   UNL     1      10.258   2.950  23.495  0.00  0.00    +0.177 C 
ATOM      4  C   UNL     1       9.399   3.974  24.234  0.00  0.00    +0.178 C 
ATOM      5  O   UNL     1       8.441   3.312  25.066  0.00  0.00    -0.341 OA
ATOM      6  C   UNL     1       7.618   2.322  24.427  0.00  0.00    +0.283 C 
ENDROOT
BRANCH   3   7
ATOM      7  O   UNL     1      11.264   3.567  22.699  0.00  0.00    -0.386 OA
ATOM      8  H   UNL     1      10.857   4.338  22.265  0.00  0.00    +0.210 HD
ENDBRANCH   3   7
BRANCH   2   9
ATOM      9  O   UNL     1       8.702   2.606  21.566  0.00  0.00    -0.386 OA
ATOM     10  H   UNL     1       7.867   2.137  21.395  0.00  0.00    +0.210 HD
ENDBRANCH   2   9
BRANCH   6  11
ATOM     11  O   UNL     1       6.635   2.992  23.619  0.00  0.00    -0.337 OA
BRANCH  11  12
ATOM     12  C   UNL     1       5.782   3.963  24.278  0.00  0.00    +0.221 C 
ATOM     13  C   UNL     1       4.802   3.231  25.276  0.00  0.00    +0.340 C 
ATOM     14  O   UNL     1       3.773   2.499  24.586  0.00  0.00    -0.331 OA
ATOM     15  C   UNL     1       3.077   3.194  23.528  0.00  0.00    +0.179 C 
ATOM     16  C   UNL     1       4.064   3.797  22.512  0.00  0.00    +0.177 C 
ATOM     17  C   UNL     1       4.963   4.781  23.267  0.00  0.00    +0.180 C 
BRANCH  16  18
ATOM     18  O   UNL     1       3.406   4.471  21.435  0.00  0.00    -0.386 OA
ATOM     19  H   UNL     1       4.002   4.345  20.665  0.00  0.00    +0.210 HD
ENDBRANCH  16  18
BRANCH  17  20
ATOM     20  O   UNL     1       5.734   5.538  22.326  0.00  0.00    -0.386 OA
ATOM     21  H   UNL     1       6.587   5.778  22.738  0.00  0.00    +0.210 HD
ENDBRANCH  17  20
BRANCH  13  22
ATOM     22  O   UNL     1       5.604   2.353  26.126  0.00  0.00    -0.453 OA
BRANCH  22  23
ATOM     23  C   UNL     1       5.047   1.270  26.827  0.00  0.00    +0.214 A 
ATOM     24  C   UNL     1       4.765  -0.051  26.152  0.00  0.00    +0.238 A 
ATOM     25  O   UNL     1       5.064  -0.238  24.981  0.00  0.00    -0.283 OA
ATOM     26  C   UNL     1       3.996  -1.093  26.908  0.00  0.00    +0.109 A 
ATOM     27  C   UNL     1       3.589  -0.783  28.196  0.00  0.00    +0.147 A 
ATOM     28  C   UNL     1       2.787  -1.664  28.949  0.00  0.00    +0.092 A 
ATOM     29  C   UNL     1       2.422  -2.883  28.404  0.00  0.00    +0.124 A 
ATOM     30  C   UNL     1       2.843  -3.232  27.127  0.00  0.00    +0.091 A 
ATOM     31  O   UNL     1       3.924   0.384  28.802  0.00  0.00    -0.451 OA
ATOM     32  C   UNL     1       3.623  -2.338  26.381  0.00  0.00    +0.135 A 
ATOM     33  C   UNL     1       4.543   1.402  28.081  0.00  0.00    +0.181 A 
BRANCH  33  34
ATOM     34  C   UNL     1       4.381   2.639  28.885  0.00  0.00    +0.025 A 
ATOM     35  C   UNL     1       5.547   3.149  29.488  0.00  0.00    +0.015 A 
ATOM     36  C   UNL     1       5.715   4.529  29.667  0.00  0.00    +0.050 A 
ATOM     37  C   UNL     1       4.694   5.389  29.299  0.00  0.00    +0.158 A 
ATOM     38  C   UNL     1       3.478   4.882  28.856  0.00  0.00    +0.159 A 
ATOM     39  C   UNL     1       3.311   3.515  28.623  0.00  0.00    +0.060 A 
BRANCH  37  40
ATOM     40  O   UNL     1       4.916   6.737  29.318  0.00  0.00    -0.503 OA
ATOM     41  H   UNL     1       4.195   7.121  28.779  0.00  0.00    +0.292 HD
ENDBRANCH  37  40
BRANCH  38  42
ATOM     42  O   UNL     1       2.471   5.767  28.594  0.00  0.00    -0.503 OA
ATOM     43  H   UNL     1       1.875   5.701  29.364  0.00  0.00    +0.292 HD
ENDBRANCH  38  42
ENDBRANCH  33  34
BRANCH  32  44
ATOM     44  O   UNL     1       4.013  -2.715  25.126  0.00  0.00    -0.506 OA
ATOM     45  H   UNL     1       3.442  -3.430  24.801  0.00  0.00    +0.292 HD
ENDBRANCH  32  44
BRANCH  29  46
ATOM     46  O   UNL     1       1.650  -3.777  29.085  0.00  0.00    -0.507 OA
ATOM     47  H   UNL     1       1.226  -4.385  28.455  0.00  0.00    +0.292 HD
ENDBRANCH  29  46
ENDBRANCH  22  23
ENDBRANCH  13  22
BRANCH  15  48
ATOM     48  C   UNL     1       2.048   4.248  24.010  0.00  0.00    +0.190 C 
BRANCH  48  49
ATOM     49  O   UNL     1       0.986   4.430  23.075  0.00  0.00    -0.392 OA
ATOM     50  H   UNL     1       0.787   5.401  23.028  0.00  0.00    +0.210 HD
ENDBRANCH  48  49
ENDBRANCH  15  48
ENDBRANCH  11  12
ENDBRANCH   6  11
BRANCH   4  51
ATOM     51  C   UNL     1       8.757   5.058  23.353  0.00  0.00    +0.190 C 
BRANCH  51  52
ATOM     52  O   UNL     1       9.735   6.055  23.040  0.00  0.00    -0.392 OA
ATOM     53  H   UNL     1      10.595   5.598  23.113  0.00  0.00    +0.210 HD
ENDBRANCH  51  52
ENDBRANCH   4  51
BRANCH   1  54
ATOM     54  O   UNL     1       8.989   0.271  24.478  0.00  0.00    -0.338 OA
BRANCH  54  57
ATOM     55  C   UNL     1       9.007  -3.321  24.864  0.00  0.00    +0.190 C 
ATOM     56  O   UNL     1       9.348  -1.945  24.825  0.00  0.00    -0.339 OA
ATOM     57  C   UNL     1       8.357  -1.020  24.431  0.00  0.00    +0.282 C 
ATOM     58  C   UNL     1       7.740  -1.377  23.055  0.00  0.00    +0.201 C 
ATOM     59  C   UNL     1       7.212  -2.816  23.064  0.00  0.00    +0.179 C 
ATOM     60  C   UNL     1       8.272  -3.796  23.595  0.00  0.00    +0.178 C 
BRANCH  58  61
ATOM     61  O   UNL     1       6.730  -0.428  22.673  0.00  0.00    -0.384 OA
ATOM     62  H   UNL     1       7.099   0.147  21.975  0.00  0.00    +0.210 HD
ENDBRANCH  58  61
BRANCH  59  63
ATOM     63  O   UNL     1       6.830  -3.174  21.718  0.00  0.00    -0.386 OA
ATOM     64  H   UNL     1       7.462  -3.832  21.369  0.00  0.00    +0.210 HD
ENDBRANCH  59  63
BRANCH  60  65
ATOM     65  O   UNL     1       7.692  -5.082  23.798  0.00  0.00    -0.386 OA
ATOM     66  H   UNL     1       8.337  -5.748  23.497  0.00  0.00    +0.210 HD
ENDBRANCH  60  65
BRANCH  55  67
ATOM     67  C   UNL     1       8.411  -3.614  26.250  0.00  0.00    +0.266 C 
BRANCH  67  68
ATOM     68  O   UNL     1       8.338  -5.058  26.479  0.00  0.00    -0.459 OA
BRANCH  68  69
ATOM     69  C   UNL     1       7.255  -5.495  27.185  0.00  0.00    +0.332 C 
ATOM     70  O   UNL     1       7.295  -6.022  28.282  0.00  0.00    -0.246 OA
BRANCH  69  72
ATOM     71  C   UNL     1       5.243  -6.327  26.079  0.00  0.00    +0.015 C 
ATOM     72  C   UNL     1       6.008  -5.267  26.411  0.00  0.00    +0.092 C 
BRANCH  71  74
ATOM     73  C   UNL     1       2.773  -6.755  25.714  0.00  0.00    +0.011 A 
ATOM     74  C   UNL     1       4.020  -6.311  25.253  0.00  0.00    -0.025 A 
ATOM     75  C   UNL     1       4.119  -5.879  23.919  0.00  0.00    +0.011 A 
ATOM     76  C   UNL     1       3.004  -5.875  23.076  0.00  0.00    +0.046 A 
ATOM     77  C   UNL     1       1.780  -6.318  23.555  0.00  0.00    +0.117 A 
ATOM     78  C   UNL     1       1.654  -6.758  24.870  0.00  0.00    +0.046 A 
BRANCH  77  79
ATOM     79  O   UNL     1       0.721  -6.316  22.697  0.00  0.00    -0.507 OA
ATOM     80  H   UNL     1       0.888  -6.966  21.994  0.00  0.00    +0.292 HD
ENDBRANCH  77  79
ENDBRANCH  71  74
ENDBRANCH  69  72
ENDBRANCH  68  69
ENDBRANCH  67  68
ENDBRANCH  55  67
ENDBRANCH  54  57
ENDBRANCH   1  54
TORSDOF 28
ENDMDL
MODEL 4
REMARK VINA RESULT:      -5.9      2.085      6.121
REMARK  Name = 
REMARK  28 active torsions:
REMARK  status: ('A' for Active; 'I' for Inactive)
REMARK    1  A    between atoms: C_3  and  O_74
REMARK    2  A    between atoms: C_6  and  C_7
REMARK    3  A    between atoms: C_8  and  C_9
REMARK    4  A    between atoms: C_9  and  O_11
REMARK    5  A    between atoms: O_11  and  C_12
REMARK    6  A    between atoms: C_12  and  C_13
REMARK    7  A    between atoms: C_14  and  O_73
REMARK    8  A    between atoms: C_16  and  O_72
REMARK    9  A    between atoms: C_17  and  O_71
REMARK   10  A    between atoms: C_19  and  O_22
REMARK   11  A    between atoms: O_22  and  C_23
REMARK   12  A    between atoms: C_24  and  O_35
REMARK   13  A    between atoms: C_27  and  C_33
REMARK   14  A    between atoms: C_28  and  O_32
REMARK   15  A    between atoms: C_30  and  O_31
REMARK   16  A    between atoms: C_33  and  O_34
REMARK   17  A    between atoms: O_35  and  C_36
REMARK   18  A    between atoms: C_37  and  O_70
REMARK   19  A    between atoms: C_39  and  O_69
REMARK   20  A    between atoms: C_41  and  C_67
REMARK   21  A    between atoms: C_43  and  O_45
REMARK   22  A    between atoms: O_45  and  C_46
REMARK   23  A    between atoms: C_47  and  C_59
REMARK   24  A    between atoms: C_51  and  O_58
REMARK   25  A    between atoms: C_53  and  O_57
REMARK   26  A    between atoms: C_61  and  O_66
REMARK   27  A    between atoms: C_62  and  O_65
REMARK   28  A    between atoms: C_67  and  O_68
REMARK                            x       y       z     vdW  Elec       q    Type
REMARK                         _______ _______ _______ _____ _____    ______ ____
ROOT
ATOM      1  C   UNL     1       5.392   3.599  25.858  0.00  0.00    +0.208 C 
ATOM      2  C   UNL     1       6.360   4.555  26.590  0.00  0.00    +0.179 C 
ATOM      3  C   UNL     1       6.547   5.821  25.740  0.00  0.00    +0.177 C 
ATOM      4  C   UNL     1       7.109   5.482  24.360  0.00  0.00    +0.178 C 
ATOM      5  O   UNL     1       6.254   4.547  23.692  0.00  0.00    -0.341 OA
ATOM      6  C   UNL     1       5.929   3.350  24.418  0.00  0.00    +0.283 C 
ENDROOT
BRANCH   3   7
ATOM      7  O   UNL     1       7.337   6.794  26.416  0.00  0.00    -0.386 OA
ATOM      8  H   UNL     1       7.704   6.366  27.210  0.00  0.00    +0.210 HD
ENDBRANCH   3   7
BRANCH   2   9
ATOM      9  O   UNL     1       7.579   3.891  26.953  0.00  0.00    -0.386 OA
ATOM     10  H   UNL     1       8.315   4.527  26.947  0.00  0.00    +0.210 HD
ENDBRANCH   2   9
BRANCH   6  11
ATOM     11  O   UNL     1       7.077   2.485  24.421  0.00  0.00    -0.337 OA
BRANCH  11  12
ATOM     12  C   UNL     1       7.096   1.403  23.456  0.00  0.00    +0.221 C 
ATOM     13  C   UNL     1       7.557   0.065  24.156  0.00  0.00    +0.340 C 
ATOM     14  O   UNL     1       8.961   0.075  24.472  0.00  0.00    -0.331 OA
ATOM     15  C   UNL     1       9.862   0.497  23.425  0.00  0.00    +0.179 C 
ATOM     16  C   UNL     1       9.445   1.860  22.845  0.00  0.00    +0.177 C 
ATOM     17  C   UNL     1       8.032   1.708  22.274  0.00  0.00    +0.180 C 
BRANCH  16  18
ATOM     18  O   UNL     1      10.333   2.321  21.821  0.00  0.00    -0.386 OA
ATOM     19  H   UNL     1      10.896   2.989  22.266  0.00  0.00    +0.210 HD
ENDBRANCH  16  18
BRANCH  17  20
ATOM     20  O   UNL     1       7.696   2.877  21.518  0.00  0.00    -0.386 OA
ATOM     21  H   UNL     1       8.229   3.628  21.844  0.00  0.00    +0.210 HD
ENDBRANCH  17  20
BRANCH  13  22
ATOM     22  O   UNL     1       6.741  -0.116  25.355  0.00  0.00    -0.453 OA
BRANCH  22  23
ATOM     23  C   UNL     1       5.736  -1.096  25.440  0.00  0.00    +0.214 A 
ATOM     24  C   UNL     1       4.362  -0.777  25.978  0.00  0.00    +0.238 A 
ATOM     25  O   UNL     1       4.062   0.362  26.309  0.00  0.00    -0.283 OA
ATOM     26  C   UNL     1       3.407  -1.907  26.220  0.00  0.00    +0.109 A 
ATOM     27  C   UNL     1       3.841  -3.190  25.927  0.00  0.00    +0.147 A 
ATOM     28  C   UNL     1       3.047  -4.320  26.203  0.00  0.00    +0.092 A 
ATOM     29  C   UNL     1       1.787  -4.146  26.751  0.00  0.00    +0.124 A 
ATOM     30  C   UNL     1       1.313  -2.870  27.024  0.00  0.00    +0.091 A 
ATOM     31  O   UNL     1       5.055  -3.436  25.372  0.00  0.00    -0.451 OA
ATOM     32  C   UNL     1       2.123  -1.755  26.764  0.00  0.00    +0.135 A 
ATOM     33  C   UNL     1       5.992  -2.414  25.241  0.00  0.00    +0.181 A 
BRANCH  33  34
ATOM     34  C   UNL     1       7.302  -3.076  25.017  0.00  0.00    +0.025 A 
ATOM     35  C   UNL     1       8.156  -3.164  26.132  0.00  0.00    +0.015 A 
ATOM     36  C   UNL     1       9.024  -4.253  26.285  0.00  0.00    +0.050 A 
ATOM     37  C   UNL     1       9.078  -5.220  25.295  0.00  0.00    +0.158 A 
ATOM     38  C   UNL     1       8.360  -5.056  24.117  0.00  0.00    +0.159 A 
ATOM     39  C   UNL     1       7.452  -4.005  23.969  0.00  0.00    +0.060 A 
BRANCH  37  40
ATOM     40  O   UNL     1       9.796  -6.362  25.513  0.00  0.00    -0.503 OA
ATOM     41  H   UNL     1       9.438  -6.733  26.344  0.00  0.00    +0.292 HD
ENDBRANCH  37  40
BRANCH  38  42
ATOM     42  O   UNL     1       8.518  -5.989  23.133  0.00  0.00    -0.503 OA
ATOM     43  H   UNL     1       8.088  -5.599  22.348  0.00  0.00    +0.292 HD
ENDBRANCH  38  42
ENDBRANCH  33  34
BRANCH  32  44
ATOM     44  O   UNL     1       1.625  -0.515  27.052  0.00  0.00    -0.506 OA
ATOM     45  H   UNL     1       1.524  -0.412  28.012  0.00  0.00    +0.292 HD
ENDBRANCH  32  44
BRANCH  29  46
ATOM     46  O   UNL     1       0.972  -5.201  27.038  0.00  0.00    -0.507 OA
ATOM     47  H   UNL     1       0.578  -5.540  26.216  0.00  0.00    +0.292 HD
ENDBRANCH  29  46
ENDBRANCH  22  23
ENDBRANCH  13  22
BRANCH  15  48
ATOM     48  C   UNL     1      10.090  -0.549  22.303  0.00  0.00    +0.190 C 
BRANCH  48  49
ATOM     49  O   UNL     1      10.257  -1.867  22.822  0.00  0.00    -0.392 OA
ATOM     50  H   UNL     1       9.567  -2.446  22.405  0.00  0.00    +0.210 HD
ENDBRANCH  48  49
ENDBRANCH  15  48
ENDBRANCH  11  12
ENDBRANCH   6  11
BRANCH   4  51
ATOM     51  C   UNL     1       8.583   5.048  24.334  0.00  0.00    +0.190 C 
BRANCH  51  52
ATOM     52  O   UNL     1       9.069   5.105  22.989  0.00  0.00    -0.392 OA
ATOM     53  H   UNL     1       9.993   5.411  23.066  0.00  0.00    +0.210 HD
ENDBRANCH  51  52
ENDBRANCH   4  51
BRANCH   1  54
ATOM     54  O   UNL     1       4.011   4.002  25.827  0.00  0.00    -0.338 OA
BRANCH  54  57
ATOM     55  C   UNL     1       1.864   2.837  28.489  0.00  0.00    +0.190 C 
ATOM     56  O   UNL     1       2.607   2.976  27.289  0.00  0.00    -0.339 OA
ATOM     57  C   UNL     1       3.391   4.137  27.119  0.00  0.00    +0.282 C 
ATOM     58  C   UNL     1       2.562   5.434  27.294  0.00  0.00    +0.201 C 
ATOM     59  C   UNL     1       1.836   5.424  28.644  0.00  0.00    +0.179 C 
ATOM     60  C   UNL     1       1.071   4.107  28.857  0.00  0.00    +0.178 C 
BRANCH  58  61
ATOM     61  O   UNL     1       3.378   6.604  27.122  0.00  0.00    -0.384 OA
ATOM     62  H   UNL     1       3.061   7.085  26.333  0.00  0.00    +0.210 HD
ENDBRANCH  58  61
BRANCH  59  63
ATOM     63  O   UNL     1       0.925   6.543  28.686  0.00  0.00    -0.386 OA
ATOM     64  H   UNL     1       0.352   6.522  27.895  0.00  0.00    +0.210 HD
ENDBRANCH  59  63
BRANCH  60  65
ATOM     65  O   UNL     1       0.589   4.031  30.196  0.00  0.00    -0.386 OA
ATOM     66  H   UNL     1       0.638   3.098  30.476  0.00  0.00    +0.210 HD
ENDBRANCH  60  65
BRANCH  55  67
ATOM     67  C   UNL     1       2.779   2.175  29.531  0.00  0.00    +0.266 C 
BRANCH  67  68
ATOM     68  O   UNL     1       2.625   0.720  29.496  0.00  0.00    -0.459 OA
BRANCH  68  69
ATOM     69  C   UNL     1       3.651  -0.000  30.035  0.00  0.00    +0.332 C 
ATOM     70  O   UNL     1       4.729   0.453  30.372  0.00  0.00    -0.246 OA
BRANCH  69  72
ATOM     71  C   UNL     1       4.195  -2.367  29.783  0.00  0.00    +0.015 C 
ATOM     72  C   UNL     1       3.282  -1.436  30.124  0.00  0.00    +0.092 C 
BRANCH  71  74
ATOM     73  C   UNL     1       4.925  -4.718  29.183  0.00  0.00    +0.011 A 
ATOM     74  C   UNL     1       3.993  -3.829  29.733  0.00  0.00    -0.025 A 
ATOM     75  C   UNL     1       2.778  -4.352  30.211  0.00  0.00    +0.011 A 
ATOM     76  C   UNL     1       2.512  -5.723  30.157  0.00  0.00    +0.046 A 
ATOM     77  C   UNL     1       3.452  -6.584  29.610  0.00  0.00    +0.117 A 
ATOM     78  C   UNL     1       4.659  -6.093  29.123  0.00  0.00    +0.046 A 
BRANCH  77  79
ATOM     79  O   UNL     1       3.147  -7.912  29.559  0.00  0.00    -0.507 OA
ATOM     80  H   UNL     1       2.417  -8.041  28.931  0.00  0.00    +0.292 HD
ENDBRANCH  77  79
ENDBRANCH  71  74
ENDBRANCH  69  72
ENDBRANCH  68  69
ENDBRANCH  67  68
ENDBRANCH  55  67
ENDBRANCH  54  57
ENDBRANCH   1  54
TORSDOF 28
ENDMDL
MODEL 5
REMARK VINA RESULT:      -5.8      2.237      6.410
REMARK  Name = 
REMARK  28 active torsions:
REMARK  status: ('A' for Active; 'I' for Inactive)
REMARK    1  A    between atoms: C_3  and  O_74
REMARK    2  A    between atoms: C_6  and  C_7
REMARK    3  A    between atoms: C_8  and  C_9
REMARK    4  A    between atoms: C_9  and  O_11
REMARK    5  A    between atoms: O_11  and  C_12
REMARK    6  A    between atoms: C_12  and  C_13
REMARK    7  A    between atoms: C_14  and  O_73
REMARK    8  A    between atoms: C_16  and  O_72
REMARK    9  A    between atoms: C_17  and  O_71
REMARK   10  A    between atoms: C_19  and  O_22
REMARK   11  A    between atoms: O_22  and  C_23
REMARK   12  A    between atoms: C_24  and  O_35
REMARK   13  A    between atoms: C_27  and  C_33
REMARK   14  A    between atoms: C_28  and  O_32
REMARK   15  A    between atoms: C_30  and  O_31
REMARK   16  A    between atoms: C_33  and  O_34
REMARK   17  A    between atoms: O_35  and  C_36
REMARK   18  A    between atoms: C_37  and  O_70
REMARK   19  A    between atoms: C_39  and  O_69
REMARK   20  A    between atoms: C_41  and  C_67
REMARK   21  A    between atoms: C_43  and  O_45
REMARK   22  A    between atoms: O_45  and  C_46
REMARK   23  A    between atoms: C_47  and  C_59
REMARK   24  A    between atoms: C_51  and  O_58
REMARK   25  A    between atoms: C_53  and  O_57
REMARK   26  A    between atoms: C_61  and  O_66
REMARK   27  A    between atoms: C_62  and  O_65
REMARK   28  A    between atoms: C_67  and  O_68
REMARK                            x       y       z     vdW  Elec       q    Type
REMARK                         _______ _______ _______ _____ _____    ______ ____
ROOT
ATOM      1  C   UNL     1       3.926  -1.794  26.018  0.00  0.00    +0.208 C 
ATOM      2  C   UNL     1       5.440  -1.780  25.713  0.00  0.00    +0.179 C 
ATOM      3  C   UNL     1       6.215  -1.958  27.028  0.00  0.00    +0.177 C 
ATOM      4  C   UNL     1       5.882  -0.846  28.021  0.00  0.00    +0.178 C 
ATOM      5  O   UNL     1       4.472  -0.805  28.267  0.00  0.00    -0.341 OA
ATOM      6  C   UNL     1       3.625  -0.725  27.108  0.00  0.00    +0.283 C 
ENDROOT
BRANCH   3   7
ATOM      7  O   UNL     1       7.616  -2.072  26.799  0.00  0.00    -0.386 OA
ATOM      8  H   UNL     1       7.775  -2.950  26.410  0.00  0.00    +0.210 HD
ENDBRANCH   3   7
BRANCH   2   9
ATOM      9  O   UNL     1       5.811  -0.622  24.952  0.00  0.00    -0.386 OA
ATOM     10  H   UNL     1       5.787   0.168  25.520  0.00  0.00    +0.210 HD
ENDBRANCH   2   9
BRANCH   6  11
ATOM     11  O   UNL     1       3.694   0.609  26.577  0.00  0.00    -0.337 OA
BRANCH  11  12
ATOM     12  C   UNL     1       2.455   1.359  26.498  0.00  0.00    +0.221 C 
ATOM     13  C   UNL     1       2.680   2.686  25.675  0.00  0.00    +0.340 C 
ATOM     14  O   UNL     1       3.452   3.655  26.408  0.00  0.00    -0.331 OA
ATOM     15  C   UNL     1       3.056   3.905  27.774  0.00  0.00    +0.179 C 
ATOM     16  C   UNL     1       2.958   2.595  28.576  0.00  0.00    +0.177 C 
ATOM     17  C   UNL     1       1.911   1.710  27.893  0.00  0.00    +0.180 C 
BRANCH  16  18
ATOM     18  O   UNL     1       2.592   2.809  29.943  0.00  0.00    -0.386 OA
ATOM     19  H   UNL     1       3.236   3.472  30.270  0.00  0.00    +0.210 HD
ENDBRANCH  16  18
BRANCH  17  20
ATOM     20  O   UNL     1       1.616   0.587  28.733  0.00  0.00    -0.386 OA
ATOM     21  H   UNL     1       1.877  -0.231  28.269  0.00  0.00    +0.210 HD
ENDBRANCH  17  20
BRANCH  13  22
ATOM     22  O   UNL     1       3.331   2.327  24.416  0.00  0.00    -0.453 OA
BRANCH  22  23
ATOM     23  C   UNL     1       4.477   2.990  23.945  0.00  0.00    +0.214 A 
ATOM     24  C   UNL     1       5.830   2.784  24.582  0.00  0.00    +0.238 A 
ATOM     25  O   UNL     1       5.982   1.990  25.498  0.00  0.00    -0.283 OA
ATOM     26  C   UNL     1       6.965   3.666  24.154  0.00  0.00    +0.109 A 
ATOM     27  C   UNL     1       6.706   4.624  23.187  0.00  0.00    +0.147 A 
ATOM     28  C   UNL     1       7.686   5.553  22.785  0.00  0.00    +0.092 A 
ATOM     29  C   UNL     1       8.950   5.491  23.348  0.00  0.00    +0.124 A 
ATOM     30  C   UNL     1       9.247   4.521  24.297  0.00  0.00    +0.091 A 
ATOM     31  O   UNL     1       5.498   4.732  22.578  0.00  0.00    -0.451 OA
ATOM     32  C   UNL     1       8.256   3.615  24.701  0.00  0.00    +0.135 A 
ATOM     33  C   UNL     1       4.408   3.997  23.036  0.00  0.00    +0.181 A 
BRANCH  33  34
ATOM     34  C   UNL     1       3.200   4.644  22.466  0.00  0.00    +0.025 A 
ATOM     35  C   UNL     1       3.181   6.052  22.479  0.00  0.00    +0.015 A 
ATOM     36  C   UNL     1       2.536   6.769  21.462  0.00  0.00    +0.050 A 
ATOM     37  C   UNL     1       1.860   6.077  20.470  0.00  0.00    +0.158 A 
ATOM     38  C   UNL     1       1.736   4.695  20.542  0.00  0.00    +0.159 A 
ATOM     39  C   UNL     1       2.415   3.961  21.517  0.00  0.00    +0.060 A 
BRANCH  37  40
ATOM     40  O   UNL     1       1.372   6.760  19.393  0.00  0.00    -0.503 OA
ATOM     41  H   UNL     1       1.617   6.219  18.615  0.00  0.00    +0.292 HD
ENDBRANCH  37  40
BRANCH  38  42
ATOM     42  O   UNL     1       0.982   4.068  19.591  0.00  0.00    -0.503 OA
ATOM     43  H   UNL     1       0.517   3.358  20.071  0.00  0.00    +0.292 HD
ENDBRANCH  38  42
ENDBRANCH  33  34
BRANCH  32  44
ATOM     44  O   UNL     1       8.583   2.678  25.642  0.00  0.00    -0.506 OA
ATOM     45  H   UNL     1       9.318   3.000  26.190  0.00  0.00    +0.292 HD
ENDBRANCH  32  44
BRANCH  29  46
ATOM     46  O   UNL     1       9.940   6.361  23.000  0.00  0.00    -0.507 OA
ATOM     47  H   UNL     1       9.579   7.045  22.411  0.00  0.00    +0.292 HD
ENDBRANCH  29  46
ENDBRANCH  22  23
ENDBRANCH  13  22
BRANCH  15  48
ATOM     48  C   UNL     1       1.773   4.761  27.932  0.00  0.00    +0.190 C 
BRANCH  48  49
ATOM     49  O   UNL     1       1.744   5.463  29.174  0.00  0.00    -0.392 OA
ATOM     50  H   UNL     1       0.939   5.164  29.672  0.00  0.00    +0.210 HD
ENDBRANCH  48  49
ENDBRANCH  15  48
ENDBRANCH  11  12
ENDBRANCH   6  11
BRANCH   4  51
ATOM     51  C   UNL     1       6.455   0.539  27.680  0.00  0.00    +0.190 C 
BRANCH  51  52
ATOM     52  O   UNL     1       7.884   0.469  27.669  0.00  0.00    -0.392 OA
ATOM     53  H   UNL     1       8.184   1.399  27.658  0.00  0.00    +0.210 HD
ENDBRANCH  51  52
ENDBRANCH   4  51
BRANCH   1  54
ATOM     54  O   UNL     1       3.369  -3.070  26.385  0.00  0.00    -0.338 OA
BRANCH  54  57
ATOM     55  C   UNL     1       5.422  -6.030  26.660  0.00  0.00    +0.190 C 
ATOM     56  O   UNL     1       4.553  -5.002  26.215  0.00  0.00    -0.339 OA
ATOM     57  C   UNL     1       4.266  -3.939  27.099  0.00  0.00    +0.282 C 
ATOM     58  C   UNL     1       3.718  -4.442  28.458  0.00  0.00    +0.201 C 
ATOM     59  C   UNL     1       4.682  -5.460  29.078  0.00  0.00    +0.179 C 
ATOM     60  C   UNL     1       5.065  -6.553  28.066  0.00  0.00    +0.178 C 
BRANCH  58  61
ATOM     61  O   UNL     1       3.437  -3.347  29.346  0.00  0.00    -0.384 OA
ATOM     62  H   UNL     1       2.487  -3.371  29.570  0.00  0.00    +0.210 HD
ENDBRANCH  58  61
BRANCH  59  63
ATOM     63  O   UNL     1       4.048  -6.049  30.234  0.00  0.00    -0.386 OA
ATOM     64  H   UNL     1       3.730  -6.944  30.005  0.00  0.00    +0.210 HD
ENDBRANCH  59  63
BRANCH  60  65
ATOM     65  O   UNL     1       6.120  -7.357  28.589  0.00  0.00    -0.386 OA
ATOM     66  H   UNL     1       6.744  -6.763  29.048  0.00  0.00    +0.210 HD
ENDBRANCH  60  65
BRANCH  55  67
ATOM     67  C   UNL     1       6.861  -5.595  26.347  0.00  0.00    +0.266 C 
BRANCH  67  68
ATOM     68  O   UNL     1       6.953  -5.080  24.980  0.00  0.00    -0.459 OA
BRANCH  68  69
ATOM     69  C   UNL     1       8.215  -4.843  24.516  0.00  0.00    +0.332 C 
ATOM     70  O   UNL     1       9.168  -5.585  24.658  0.00  0.00    -0.246 OA
BRANCH  69  72
ATOM     71  C   UNL     1       9.437  -2.840  23.838  0.00  0.00    +0.015 C 
ATOM     72  C   UNL     1       8.275  -3.523  23.837  0.00  0.00    +0.092 C 
BRANCH  71  74
ATOM     73  C   UNL     1      10.219  -0.438  24.033  0.00  0.00    +0.011 A 
ATOM     74  C   UNL     1       9.672  -1.491  23.288  0.00  0.00    -0.025 A 
ATOM     75  C   UNL     1       9.277  -1.232  21.963  0.00  0.00    +0.011 A 
ATOM     76  C   UNL     1       9.439   0.036  21.396  0.00  0.00    +0.046 A 
ATOM     77  C   UNL     1       9.985   1.062  22.154  0.00  0.00    +0.117 A 
ATOM     78  C   UNL     1      10.378   0.835  23.470  0.00  0.00    +0.046 A 
BRANCH  77  79
ATOM     79  O   UNL     1      10.110   2.287  21.571  0.00  0.00    -0.507 OA
ATOM     80  H   UNL     1      10.671   2.203  20.782  0.00  0.00    +0.292 HD
ENDBRANCH  77  79
ENDBRANCH  71  74
ENDBRANCH  69  72
ENDBRANCH  68  69
ENDBRANCH  67  68
ENDBRANCH  55  67
ENDBRANCH  54  57
ENDBRANCH   1  54
TORSDOF 28
ENDMDL
MODEL 6
REMARK VINA RESULT:      -5.4      2.749      8.757
REMARK  Name = 
REMARK  28 active torsions:
REMARK  status: ('A' for Active; 'I' for Inactive)
REMARK    1  A    between atoms: C_3  and  O_74
REMARK    2  A    between atoms: C_6  and  C_7
REMARK    3  A    between atoms: C_8  and  C_9
REMARK    4  A    between atoms: C_9  and  O_11
REMARK    5  A    between atoms: O_11  and  C_12
REMARK    6  A    between atoms: C_12  and  C_13
REMARK    7  A    between atoms: C_14  and  O_73
REMARK    8  A    between atoms: C_16  and  O_72
REMARK    9  A    between atoms: C_17  and  O_71
REMARK   10  A    between atoms: C_19  and  O_22
REMARK   11  A    between atoms: O_22  and  C_23
REMARK   12  A    between atoms: C_24  and  O_35
REMARK   13  A    between atoms: C_27  and  C_33
REMARK   14  A    between atoms: C_28  and  O_32
REMARK   15  A    between atoms: C_30  and  O_31
REMARK   16  A    between atoms: C_33  and  O_34
REMARK   17  A    between atoms: O_35  and  C_36
REMARK   18  A    between atoms: C_37  and  O_70
REMARK   19  A    between atoms: C_39  and  O_69
REMARK   20  A    between atoms: C_41  and  C_67
REMARK   21  A    between atoms: C_43  and  O_45
REMARK   22  A    between atoms: O_45  and  C_46
REMARK   23  A    between atoms: C_47  and  C_59
REMARK   24  A    between atoms: C_51  and  O_58
REMARK   25  A    between atoms: C_53  and  O_57
REMARK   26  A    between atoms: C_61  and  O_66
REMARK   27  A    between atoms: C_62  and  O_65
REMARK   28  A    between atoms: C_67  and  O_68
REMARK                            x       y       z     vdW  Elec       q    Type
REMARK                         _______ _______ _______ _____ _____    ______ ____
ROOT
ATOM      1  C   UNL     1       9.077   0.951  24.804  0.00  0.00    +0.208 C 
ATOM      2  C   UNL     1       9.607  -0.040  23.745  0.00  0.00    +0.179 C 
ATOM      3  C   UNL     1       8.761   0.093  22.469  0.00  0.00    +0.177 C 
ATOM      4  C   UNL     1       7.288  -0.197  22.750  0.00  0.00    +0.178 C 
ATOM      5  O   UNL     1       6.797   0.673  23.775  0.00  0.00    -0.341 OA
ATOM      6  C   UNL     1       7.552   0.707  24.998  0.00  0.00    +0.283 C 
ENDROOT
BRANCH   3   7
ATOM      7  O   UNL     1       9.275  -0.712  21.414  0.00  0.00    -0.386 OA
ATOM      8  H   UNL     1      10.231  -0.539  21.357  0.00  0.00    +0.210 HD
ENDBRANCH   3   7
BRANCH   2   9
ATOM      9  O   UNL     1       9.693  -1.373  24.270  0.00  0.00    -0.386 OA
ATOM     10  H   UNL     1       8.805  -1.768  24.312  0.00  0.00    +0.210 HD
ENDBRANCH   2   9
BRANCH   6  11
ATOM     11  O   UNL     1       7.296  -0.502  25.732  0.00  0.00    -0.337 OA
BRANCH  11  12
ATOM     12  C   UNL     1       6.581  -0.379  26.988  0.00  0.00    +0.221 C 
ATOM     13  C   UNL     1       5.178  -1.093  26.882  0.00  0.00    +0.340 C 
ATOM     14  O   UNL     1       4.257  -0.358  26.056  0.00  0.00    -0.331 OA
ATOM     15  C   UNL     1       4.144   1.060  26.308  0.00  0.00    +0.179 C 
ATOM     16  C   UNL     1       5.524   1.742  26.290  0.00  0.00    +0.177 C 
ATOM     17  C   UNL     1       6.376   1.093  27.386  0.00  0.00    +0.180 C 
BRANCH  16  18
ATOM     18  O   UNL     1       5.447   3.154  26.511  0.00  0.00    -0.386 OA
ATOM     19  H   UNL     1       5.964   3.546  25.776  0.00  0.00    +0.210 HD
ENDBRANCH  16  18
BRANCH  17  20
ATOM     20  O   UNL     1       7.579   1.850  27.564  0.00  0.00    -0.386 OA
ATOM     21  H   UNL     1       7.634   2.525  26.860  0.00  0.00    +0.210 HD
ENDBRANCH  17  20
BRANCH  13  22
ATOM     22  O   UNL     1       5.401  -2.441  26.364  0.00  0.00    -0.453 OA
BRANCH  22  23
ATOM     23  C   UNL     1       4.755  -3.569  26.898  0.00  0.00    +0.214 A 
ATOM     24  C   UNL     1       3.585  -3.439  27.843  0.00  0.00    +0.238 A 
ATOM     25  O   UNL     1       3.127  -2.343  28.134  0.00  0.00    -0.283 OA
ATOM     26  C   UNL     1       3.071  -4.673  28.522  0.00  0.00    +0.109 A 
ATOM     27  C   UNL     1       3.700  -5.874  28.236  0.00  0.00    +0.147 A 
ATOM     28  C   UNL     1       3.343  -7.070  28.890  0.00  0.00    +0.092 A 
ATOM     29  C   UNL     1       2.318  -7.054  29.821  0.00  0.00    +0.124 A 
ATOM     30  C   UNL     1       1.648  -5.870  30.103  0.00  0.00    +0.091 A 
ATOM     31  O   UNL     1       4.699  -5.970  27.323  0.00  0.00    -0.451 OA
ATOM     32  C   UNL     1       2.027  -4.684  29.459  0.00  0.00    +0.135 A 
ATOM     33  C   UNL     1       5.259  -4.823  26.765  0.00  0.00    +0.181 A 
BRANCH  33  34
ATOM     34  C   UNL     1       6.554  -5.239  26.171  0.00  0.00    +0.025 A 
ATOM     35  C   UNL     1       6.649  -5.167  24.768  0.00  0.00    +0.015 A 
ATOM     36  C   UNL     1       7.869  -4.866  24.147  0.00  0.00    +0.050 A 
ATOM     37  C   UNL     1       9.002  -4.697  24.927  0.00  0.00    +0.158 A 
ATOM     38  C   UNL     1       8.949  -4.928  26.296  0.00  0.00    +0.159 A 
ATOM     39  C   UNL     1       7.733  -5.178  26.937  0.00  0.00    +0.060 A 
BRANCH  37  40
ATOM     40  O   UNL     1      10.152  -4.244  24.345  0.00  0.00    -0.503 OA
ATOM     41  H   UNL     1      10.226  -3.309  24.622  0.00  0.00    +0.292 HD
ENDBRANCH  37  40
BRANCH  38  42
ATOM     42  O   UNL     1      10.112  -4.840  27.007  0.00  0.00    -0.503 OA
ATOM     43  H   UNL     1      10.803  -4.683  26.336  0.00  0.00    +0.292 HD
ENDBRANCH  38  42
ENDBRANCH  33  34
BRANCH  32  44
ATOM     44  O   UNL     1       1.349  -3.538  29.769  0.00  0.00    -0.506 OA
ATOM     45  H   UNL     1       1.637  -3.204  30.634  0.00  0.00    +0.292 HD
ENDBRANCH  32  44
BRANCH  29  46
ATOM     46  O   UNL     1       1.927  -8.179  30.485  0.00  0.00    -0.507 OA
ATOM     47  H   UNL     1       0.966  -8.153  30.629  0.00  0.00    +0.292 HD
ENDBRANCH  29  46
ENDBRANCH  22  23
ENDBRANCH  13  22
BRANCH  15  48
ATOM     48  C   UNL     1       3.346   1.433  27.584  0.00  0.00    +0.190 C 
BRANCH  48  49
ATOM     49  O   UNL     1       2.306   0.497  27.860  0.00  0.00    -0.392 OA
ATOM     50  H   UNL     1       2.379  -0.240  27.200  0.00  0.00    +0.210 HD
ENDBRANCH  48  49
ENDBRANCH  15  48
ENDBRANCH  11  12
ENDBRANCH   6  11
BRANCH   4  51
ATOM     51  C   UNL     1       6.944  -1.671  23.021  0.00  0.00    +0.190 C 
BRANCH  51  52
ATOM     52  O   UNL     1       5.629  -1.755  23.578  0.00  0.00    -0.392 OA
ATOM     53  H   UNL     1       5.185  -2.465  23.075  0.00  0.00    +0.210 HD
ENDBRANCH  51  52
ENDBRANCH   4  51
BRANCH   1  54
ATOM     54  O   UNL     1       9.345   2.344  24.554  0.00  0.00    -0.338 OA
BRANCH  54  57
ATOM     55  C   UNL     1       7.002   4.158  22.487  0.00  0.00    +0.190 C 
ATOM     56  O   UNL     1       8.075   3.369  22.973  0.00  0.00    -0.339 OA
ATOM     57  C   UNL     1       8.175   3.160  24.366  0.00  0.00    +0.282 C 
ATOM     58  C   UNL     1       8.195   4.492  25.156  0.00  0.00    +0.201 C 
ATOM     59  C   UNL     1       6.978   5.349  24.789  0.00  0.00    +0.179 C 
ATOM     60  C   UNL     1       6.825   5.478  23.264  0.00  0.00    +0.178 C 
BRANCH  58  61
ATOM     61  O   UNL     1       8.292   4.260  26.571  0.00  0.00    -0.384 OA
ATOM     62  H   UNL     1       7.534   3.710  26.843  0.00  0.00    +0.210 HD
ENDBRANCH  58  61
BRANCH  59  63
ATOM     63  O   UNL     1       7.134   6.653  25.388  0.00  0.00    -0.386 OA
ATOM     64  H   UNL     1       8.071   6.925  25.326  0.00  0.00    +0.210 HD
ENDBRANCH  59  63
BRANCH  60  65
ATOM     65  O   UNL     1       5.577   6.088  22.947  0.00  0.00    -0.386 OA
ATOM     66  H   UNL     1       4.890   5.657  23.490  0.00  0.00    +0.210 HD
ENDBRANCH  60  65
BRANCH  55  67
ATOM     67  C   UNL     1       5.798   3.228  22.271  0.00  0.00    +0.266 C 
BRANCH  67  68
ATOM     68  O   UNL     1       4.871   3.323  23.400  0.00  0.00    -0.459 OA
BRANCH  68  69
ATOM     69  C   UNL     1       3.544   3.270  23.086  0.00  0.00    +0.332 C 
ATOM     70  O   UNL     1       2.656   2.911  23.837  0.00  0.00    -0.246 OA
BRANCH  69  72
ATOM     71  C   UNL     1       2.259   4.440  21.371  0.00  0.00    +0.015 C 
ATOM     72  C   UNL     1       3.331   3.682  21.675  0.00  0.00    +0.092 C 
BRANCH  71  74
ATOM     73  C   UNL     1       1.798   4.032  18.913  0.00  0.00    +0.011 A 
ATOM     74  C   UNL     1       1.839   4.882  20.026  0.00  0.00    -0.025 A 
ATOM     75  C   UNL     1       1.516   6.238  19.839  0.00  0.00    +0.011 A 
ATOM     76  C   UNL     1       1.146   6.725  18.582  0.00  0.00    +0.046 A 
ATOM     77  C   UNL     1       1.111   5.864  17.495  0.00  0.00    +0.117 A 
ATOM     78  C   UNL     1       1.433   4.519  17.651  0.00  0.00    +0.046 A 
BRANCH  77  79
ATOM     79  O   UNL     1       0.764   6.381  16.283  0.00  0.00    -0.507 OA
ATOM     80  H   UNL     1      -0.102   6.023  16.027  0.00  0.00    +0.292 HD
ENDBRANCH  77  79
ENDBRANCH  71  74
ENDBRANCH  69  72
ENDBRANCH  68  69
ENDBRANCH  67  68
ENDBRANCH  55  67
ENDBRANCH  54  57
ENDBRANCH   1  54
TORSDOF 28
ENDMDL
MODEL 7
REMARK VINA RESULT:      -5.2      2.362      6.767
REMARK  Name = 
REMARK  28 active torsions:
REMARK  status: ('A' for Active; 'I' for Inactive)
REMARK    1  A    between atoms: C_3  and  O_74
REMARK    2  A    between atoms: C_6  and  C_7
REMARK    3  A    between atoms: C_8  and  C_9
REMARK    4  A    between atoms: C_9  and  O_11
REMARK    5  A    between atoms: O_11  and  C_12
REMARK    6  A    between atoms: C_12  and  C_13
REMARK    7  A    between atoms: C_14  and  O_73
REMARK    8  A    between atoms: C_16  and  O_72
REMARK    9  A    between atoms: C_17  and  O_71
REMARK   10  A    between atoms: C_19  and  O_22
REMARK   11  A    between atoms: O_22  and  C_23
REMARK   12  A    between atoms: C_24  and  O_35
REMARK   13  A    between atoms: C_27  and  C_33
REMARK   14  A    between atoms: C_28  and  O_32
REMARK   15  A    between atoms: C_30  and  O_31
REMARK   16  A    between atoms: C_33  and  O_34
REMARK   17  A    between atoms: O_35  and  C_36
REMARK   18  A    between atoms: C_37  and  O_70
REMARK   19  A    between atoms: C_39  and  O_69
REMARK   20  A    between atoms: C_41  and  C_67
REMARK   21  A    between atoms: C_43  and  O_45
REMARK   22  A    between atoms: O_45  and  C_46
REMARK   23  A    between atoms: C_47  and  C_59
REMARK   24  A    between atoms: C_51  and  O_58
REMARK   25  A    between atoms: C_53  and  O_57
REMARK   26  A    between atoms: C_61  and  O_66
REMARK   27  A    between atoms: C_62  and  O_65
REMARK   28  A    between atoms: C_67  and  O_68
REMARK                            x       y       z     vdW  Elec       q    Type
REMARK                         _______ _______ _______ _____ _____    ______ ____
ROOT
ATOM      1  C   UNL     1       8.210   0.026  24.323  0.00  0.00    +0.208 C 
ATOM      2  C   UNL     1       8.521   0.419  22.861  0.00  0.00    +0.179 C 
ATOM      3  C   UNL     1       9.705   1.398  22.850  0.00  0.00    +0.177 C 
ATOM      4  C   UNL     1       9.393   2.653  23.662  0.00  0.00    +0.178 C 
ATOM      5  O   UNL     1       9.041   2.302  25.005  0.00  0.00    -0.341 OA
ATOM      6  C   UNL     1       7.998   1.324  25.155  0.00  0.00    +0.283 C 
ENDROOT
BRANCH   3   7
ATOM      7  O   UNL     1      10.117   1.707  21.522  0.00  0.00    -0.386 OA
ATOM      8  H   UNL     1      10.799   1.058  21.273  0.00  0.00    +0.210 HD
ENDBRANCH   3   7
BRANCH   2   9
ATOM      9  O   UNL     1       7.348   0.891  22.183  0.00  0.00    -0.386 OA
ATOM     10  H   UNL     1       7.208   1.833  22.383  0.00  0.00    +0.210 HD
ENDBRANCH   2   9
BRANCH   6  11
ATOM     11  O   UNL     1       6.736   1.946  24.858  0.00  0.00    -0.337 OA
BRANCH  11  12
ATOM     12  C   UNL     1       6.041   2.596  25.952  0.00  0.00    +0.221 C 
ATOM     13  C   UNL     1       4.822   1.707  26.419  0.00  0.00    +0.340 C 
ATOM     14  O   UNL     1       3.746   1.719  25.465  0.00  0.00    -0.331 OA
ATOM     15  C   UNL     1       3.335   3.009  24.960  0.00  0.00    +0.179 C 
ATOM     16  C   UNL     1       4.535   3.800  24.408  0.00  0.00    +0.177 C 
ATOM     17  C   UNL     1       5.531   3.991  25.556  0.00  0.00    +0.180 C 
BRANCH  16  18
ATOM     18  O   UNL     1       4.160   5.074  23.876  0.00  0.00    -0.386 OA
ATOM     19  H   UNL     1       3.235   4.952  23.574  0.00  0.00    +0.210 HD
ENDBRANCH  16  18
BRANCH  17  20
ATOM     20  O   UNL     1       6.546   4.920  25.154  0.00  0.00    -0.386 OA
ATOM     21  H   UNL     1       6.756   4.770  24.212  0.00  0.00    +0.210 HD
ENDBRANCH  17  20
BRANCH  13  22
ATOM     22  O   UNL     1       5.320   0.352  26.648  0.00  0.00    -0.453 OA
BRANCH  22  23
ATOM     23  C   UNL     1       4.494  -0.781  26.539  0.00  0.00    +0.214 A 
ATOM     24  C   UNL     1       4.581  -1.713  25.355  0.00  0.00    +0.238 A 
ATOM     25  O   UNL     1       5.412  -1.541  24.474  0.00  0.00    -0.283 OA
ATOM     26  C   UNL     1       3.544  -2.787  25.210  0.00  0.00    +0.109 A 
ATOM     27  C   UNL     1       2.561  -2.866  26.184  0.00  0.00    +0.147 A 
ATOM     28  C   UNL     1       1.497  -3.784  26.087  0.00  0.00    +0.092 A 
ATOM     29  C   UNL     1       1.446  -4.652  25.008  0.00  0.00    +0.124 A 
ATOM     30  C   UNL     1       2.436  -4.616  24.035  0.00  0.00    +0.091 A 
ATOM     31  O   UNL     1       2.555  -2.062  27.277  0.00  0.00    -0.451 OA
ATOM     32  C   UNL     1       3.478  -3.683  24.134  0.00  0.00    +0.135 A 
ATOM     33  C   UNL     1       3.444  -0.994  27.372  0.00  0.00    +0.181 A 
BRANCH  33  34
ATOM     34  C   UNL     1       2.908  -0.099  28.429  0.00  0.00    +0.025 A 
ATOM     35  C   UNL     1       3.819   0.314  29.419  0.00  0.00    +0.015 A 
ATOM     36  C   UNL     1       3.702   1.576  30.018  0.00  0.00    +0.050 A 
ATOM     37  C   UNL     1       2.641   2.395  29.669  0.00  0.00    +0.158 A 
ATOM     38  C   UNL     1       1.649   1.929  28.816  0.00  0.00    +0.159 A 
ATOM     39  C   UNL     1       1.775   0.696  28.171  0.00  0.00    +0.060 A 
BRANCH  37  40
ATOM     40  O   UNL     1       2.614   3.683  30.123  0.00  0.00    -0.503 OA
ATOM     41  H   UNL     1       3.135   4.194  29.472  0.00  0.00    +0.292 HD
ENDBRANCH  37  40
BRANCH  38  42
ATOM     42  O   UNL     1       0.575   2.739  28.576  0.00  0.00    -0.503 OA
ATOM     43  H   UNL     1       0.621   3.424  29.269  0.00  0.00    +0.292 HD
ENDBRANCH  38  42
ENDBRANCH  33  34
BRANCH  32  44
ATOM     44  O   UNL     1       4.431  -3.674  23.153  0.00  0.00    -0.506 OA
ATOM     45  H   UNL     1       4.524  -2.778  22.789  0.00  0.00    +0.292 HD
ENDBRANCH  32  44
BRANCH  29  46
ATOM     46  O   UNL     1       0.443  -5.563  24.860  0.00  0.00    -0.507 OA
ATOM     47  H   UNL     1      -0.328  -5.287  25.385  0.00  0.00    +0.292 HD
ENDBRANCH  29  46
ENDBRANCH  22  23
ENDBRANCH  13  22
BRANCH  15  48
ATOM     48  C   UNL     1       2.505   3.861  25.954  0.00  0.00    +0.190 C 
BRANCH  48  49
ATOM     49  O   UNL     1       1.744   4.869  25.292  0.00  0.00    -0.392 OA
ATOM     50  H   UNL     1       1.398   5.491  25.984  0.00  0.00    +0.210 HD
ENDBRANCH  48  49
ENDBRANCH  15  48
ENDBRANCH  11  12
ENDBRANCH   6  11
BRANCH   4  51
ATOM     51  C   UNL     1       8.378   3.618  23.026  0.00  0.00    +0.190 C 
BRANCH  51  52
ATOM     52  O   UNL     1       8.913   4.945  23.040  0.00  0.00    -0.392 OA
ATOM     53  H   UNL     1       9.538   4.974  22.290  0.00  0.00    +0.210 HD
ENDBRANCH  51  52
ENDBRANCH   4  51
BRANCH   1  54
ATOM     54  O   UNL     1       9.167  -0.840  24.960  0.00  0.00    -0.338 OA
BRANCH  54  57
ATOM     55  C   UNL     1       8.160  -3.591  27.075  0.00  0.00    +0.190 C 
ATOM     56  O   UNL     1       8.589  -2.339  26.567  0.00  0.00    -0.339 OA
ATOM     57  C   UNL     1       8.714  -2.190  25.169  0.00  0.00    +0.282 C 
ATOM     58  C   UNL     1       9.632  -3.272  24.547  0.00  0.00    +0.201 C 
ATOM     59  C   UNL     1       9.144  -4.672  24.934  0.00  0.00    +0.179 C 
ATOM     60  C   UNL     1       8.913  -4.783  26.451  0.00  0.00    +0.178 C 
BRANCH  58  61
ATOM     61  O   UNL     1       9.744  -3.108  23.123  0.00  0.00    -0.384 OA
ATOM     62  H   UNL     1      10.587  -2.655  22.933  0.00  0.00    +0.210 HD
ENDBRANCH  58  61
BRANCH  59  63
ATOM     63  O   UNL     1      10.129  -5.638  24.507  0.00  0.00    -0.386 OA
ATOM     64  H   UNL     1      10.590  -5.299  23.715  0.00  0.00    +0.210 HD
ENDBRANCH  59  63
BRANCH  60  65
ATOM     65  O   UNL     1       8.259  -6.012  26.758  0.00  0.00    -0.386 OA
ATOM     66  H   UNL     1       8.856  -6.738  26.498  0.00  0.00    +0.210 HD
ENDBRANCH  60  65
BRANCH  55  67
ATOM     67  C   UNL     1       6.624  -3.584  27.100  0.00  0.00    +0.266 C 
BRANCH  67  68
ATOM     68  O   UNL     1       6.121  -4.715  27.881  0.00  0.00    -0.459 OA
BRANCH  68  69
ATOM     69  C   UNL     1       5.020  -4.465  28.649  0.00  0.00    +0.332 C 
ATOM     70  O   UNL     1       4.958  -3.645  29.545  0.00  0.00    -0.246 OA
BRANCH  69  72
ATOM     71  C   UNL     1       4.086  -6.222  27.234  0.00  0.00    +0.015 C 
ATOM     72  C   UNL     1       3.905  -5.366  28.259  0.00  0.00    +0.092 C 
BRANCH  71  74
ATOM     73  C   UNL     1       1.907  -7.513  27.322  0.00  0.00    +0.011 A 
ATOM     74  C   UNL     1       3.080  -7.134  26.655  0.00  0.00    -0.025 A 
ATOM     75  C   UNL     1       3.336  -7.696  25.391  0.00  0.00    +0.011 A 
ATOM     76  C   UNL     1       2.440  -8.594  24.805  0.00  0.00    +0.046 A 
ATOM     77  C   UNL     1       1.284  -8.952  25.484  0.00  0.00    +0.117 A 
ATOM     78  C   UNL     1       1.009  -8.418  26.739  0.00  0.00    +0.046 A 
BRANCH  77  79
ATOM     79  O   UNL     1       0.445  -9.845  24.887  0.00  0.00    -0.507 OA
ATOM     80  H   UNL     1      -0.073  -9.381  24.209  0.00  0.00    +0.292 HD
ENDBRANCH  77  79
ENDBRANCH  71  74
ENDBRANCH  69  72
ENDBRANCH  68  69
ENDBRANCH  67  68
ENDBRANCH  55  67
ENDBRANCH  54  57
ENDBRANCH   1  54
TORSDOF 28
ENDMDL
MODEL 8
REMARK VINA RESULT:      -5.2      2.034      7.188
REMARK  Name = 
REMARK  28 active torsions:
REMARK  status: ('A' for Active; 'I' for Inactive)
REMARK    1  A    between atoms: C_3  and  O_74
REMARK    2  A    between atoms: C_6  and  C_7
REMARK    3  A    between atoms: C_8  and  C_9
REMARK    4  A    between atoms: C_9  and  O_11
REMARK    5  A    between atoms: O_11  and  C_12
REMARK    6  A    between atoms: C_12  and  C_13
REMARK    7  A    between atoms: C_14  and  O_73
REMARK    8  A    between atoms: C_16  and  O_72
REMARK    9  A    between atoms: C_17  and  O_71
REMARK   10  A    between atoms: C_19  and  O_22
REMARK   11  A    between atoms: O_22  and  C_23
REMARK   12  A    between atoms: C_24  and  O_35
REMARK   13  A    between atoms: C_27  and  C_33
REMARK   14  A    between atoms: C_28  and  O_32
REMARK   15  A    between atoms: C_30  and  O_31
REMARK   16  A    between atoms: C_33  and  O_34
REMARK   17  A    between atoms: O_35  and  C_36
REMARK   18  A    between atoms: C_37  and  O_70
REMARK   19  A    between atoms: C_39  and  O_69
REMARK   20  A    between atoms: C_41  and  C_67
REMARK   21  A    between atoms: C_43  and  O_45
REMARK   22  A    between atoms: O_45  and  C_46
REMARK   23  A    between atoms: C_47  and  C_59
REMARK   24  A    between atoms: C_51  and  O_58
REMARK   25  A    between atoms: C_53  and  O_57
REMARK   26  A    between atoms: C_61  and  O_66
REMARK   27  A    between atoms: C_62  and  O_65
REMARK   28  A    between atoms: C_67  and  O_68
REMARK                            x       y       z     vdW  Elec       q    Type
REMARK                         _______ _______ _______ _____ _____    ______ ____
ROOT
ATOM      1  C   UNL     1       4.261   3.156  27.007  0.00  0.00    +0.208 C 
ATOM      2  C   UNL     1       3.375   3.631  25.835  0.00  0.00    +0.179 C 
ATOM      3  C   UNL     1       2.001   4.046  26.385  0.00  0.00    +0.177 C 
ATOM      4  C   UNL     1       1.320   2.883  27.104  0.00  0.00    +0.178 C 
ATOM      5  O   UNL     1       2.157   2.390  28.155  0.00  0.00    -0.341 OA
ATOM      6  C   UNL     1       3.503   2.044  27.789  0.00  0.00    +0.283 C 
ENDROOT
BRANCH   3   7
ATOM      7  O   UNL     1       1.177   4.605  25.367  0.00  0.00    -0.386 OA
ATOM      8  H   UNL     1       1.056   3.922  24.685  0.00  0.00    +0.210 HD
ENDBRANCH   3   7
BRANCH   2   9
ATOM      9  O   UNL     1       3.329   2.656  24.783  0.00  0.00    -0.386 OA
ATOM     10  H   UNL     1       3.549   3.077  23.933  0.00  0.00    +0.210 HD
ENDBRANCH   2   9
BRANCH   6  11
ATOM     11  O   UNL     1       3.479   0.805  27.061  0.00  0.00    -0.337 OA
BRANCH  11  12
ATOM     12  C   UNL     1       4.168  -0.327  27.651  0.00  0.00    +0.221 C 
ATOM     13  C   UNL     1       3.857  -1.637  26.828  0.00  0.00    +0.340 C 
ATOM     14  O   UNL     1       2.508  -2.097  27.031  0.00  0.00    -0.331 OA
ATOM     15  C   UNL     1       2.043  -2.172  28.397  0.00  0.00    +0.179 C 
ATOM     16  C   UNL     1       2.260  -0.838  29.134  0.00  0.00    +0.177 C 
ATOM     17  C   UNL     1       3.762  -0.539  29.119  0.00  0.00    +0.180 C 
BRANCH  16  18
ATOM     18  O   UNL     1       1.787  -0.869  30.484  0.00  0.00    -0.386 OA
ATOM     19  H   UNL     1       2.572  -0.639  31.025  0.00  0.00    +0.210 HD
ENDBRANCH  16  18
BRANCH  17  20
ATOM     20  O   UNL     1       4.036   0.563  29.993  0.00  0.00    -0.386 OA
ATOM     21  H   UNL     1       3.250   0.729  30.548  0.00  0.00    +0.210 HD
ENDBRANCH  17  20
BRANCH  13  22
ATOM     22  O   UNL     1       4.117  -1.351  25.418  0.00  0.00    -0.453 OA
BRANCH  22  23
ATOM     23  C   UNL     1       4.933  -2.173  24.622  0.00  0.00    +0.214 A 
ATOM     24  C   UNL     1       4.480  -3.541  24.171  0.00  0.00    +0.238 A 
ATOM     25  O   UNL     1       3.363  -3.957  24.442  0.00  0.00    -0.283 OA
ATOM     26  C   UNL     1       5.472  -4.436  23.490  0.00  0.00    +0.109 A 
ATOM     27  C   UNL     1       6.757  -3.950  23.307  0.00  0.00    +0.147 A 
ATOM     28  C   UNL     1       7.778  -4.750  22.757  0.00  0.00    +0.092 A 
ATOM     29  C   UNL     1       7.486  -6.044  22.360  0.00  0.00    +0.124 A 
ATOM     30  C   UNL     1       6.199  -6.546  22.502  0.00  0.00    +0.091 A 
ATOM     31  O   UNL     1       7.111  -2.688  23.655  0.00  0.00    -0.451 OA
ATOM     32  C   UNL     1       5.197  -5.746  23.070  0.00  0.00    +0.135 A 
ATOM     33  C   UNL     1       6.237  -1.883  24.382  0.00  0.00    +0.181 A 
BRANCH  33  34
ATOM     34  C   UNL     1       7.058  -0.783  24.949  0.00  0.00    +0.025 A 
ATOM     35  C   UNL     1       6.687   0.524  24.582  0.00  0.00    +0.015 A 
ATOM     36  C   UNL     1       6.863   1.594  25.470  0.00  0.00    +0.050 A 
ATOM     37  C   UNL     1       7.463   1.363  26.697  0.00  0.00    +0.158 A 
ATOM     38  C   UNL     1       7.979   0.109  26.999  0.00  0.00    +0.159 A 
ATOM     39  C   UNL     1       7.768  -0.979  26.149  0.00  0.00    +0.060 A 
BRANCH  37  40
ATOM     40  O   UNL     1       7.488   2.363  27.628  0.00  0.00    -0.503 OA
ATOM     41  H   UNL     1       6.767   2.971  27.368  0.00  0.00    +0.292 HD
ENDBRANCH  37  40
BRANCH  38  42
ATOM     42  O   UNL     1       8.644  -0.045  28.182  0.00  0.00    -0.503 OA
ATOM     43  H   UNL     1       9.542   0.297  28.009  0.00  0.00    +0.292 HD
ENDBRANCH  38  42
ENDBRANCH  33  34
BRANCH  32  44
ATOM     44  O   UNL     1       3.944  -6.277  23.200  0.00  0.00    -0.506 OA
ATOM     45  H   UNL     1       3.852  -6.704  24.067  0.00  0.00    +0.292 HD
ENDBRANCH  32  44
BRANCH  29  46
ATOM     46  O   UNL     1       8.431  -6.865  21.819  0.00  0.00    -0.507 OA
ATOM     47  H   UNL     1       8.120  -7.197  20.960  0.00  0.00    +0.292 HD
ENDBRANCH  29  46
ENDBRANCH  22  23
ENDBRANCH  13  22
BRANCH  15  48
ATOM     48  C   UNL     1       2.606  -3.365  29.211  0.00  0.00    +0.190 C 
BRANCH  48  49
ATOM     49  O   UNL     1       2.916  -4.483  28.381  0.00  0.00    -0.392 OA
ATOM     50  H   UNL     1       3.834  -4.785  28.610  0.00  0.00    +0.210 HD
ENDBRANCH  48  49
ENDBRANCH  15  48
ENDBRANCH  11  12
ENDBRANCH   6  11
BRANCH   4  51
ATOM     51  C   UNL     1       0.798   1.758  26.196  0.00  0.00    +0.190 C 
BRANCH  51  52
ATOM     52  O   UNL     1       0.545   2.283  24.889  0.00  0.00    -0.392 OA
ATOM     53  H   UNL     1       1.384   2.702  24.616  0.00  0.00    +0.210 HD
ENDBRANCH  51  52
ENDBRANCH   4  51
BRANCH   1  54
ATOM     54  O   UNL     1       4.727   4.184  27.902  0.00  0.00    -0.338 OA
BRANCH  54  57
ATOM     55  C   UNL     1       6.977   5.319  25.312  0.00  0.00    +0.190 C 
ATOM     56  O   UNL     1       6.086   4.569  26.122  0.00  0.00    -0.339 OA
ATOM     57  C   UNL     1       5.582   5.170  27.296  0.00  0.00    +0.282 C 
ATOM     58  C   UNL     1       6.713   5.685  28.220  0.00  0.00    +0.201 C 
ATOM     59  C   UNL     1       7.646   6.626  27.448  0.00  0.00    +0.179 C 
ATOM     60  C   UNL     1       8.101   5.995  26.121  0.00  0.00    +0.178 C 
BRANCH  58  61
ATOM     61  O   UNL     1       6.182   6.298  29.407  0.00  0.00    -0.384 OA
ATOM     62  H   UNL     1       5.352   5.839  29.642  0.00  0.00    +0.210 HD
ENDBRANCH  58  61
BRANCH  59  63
ATOM     63  O   UNL     1       8.789   6.925  28.277  0.00  0.00    -0.386 OA
ATOM     64  H   UNL     1       9.066   7.849  28.123  0.00  0.00    +0.210 HD
ENDBRANCH  59  63
BRANCH  60  65
ATOM     65  O   UNL     1       8.783   6.963  25.328  0.00  0.00    -0.386 OA
ATOM     66  H   UNL     1       8.195   7.206  24.588  0.00  0.00    +0.210 HD
ENDBRANCH  60  65
BRANCH  55  67
ATOM     67  C   UNL     1       6.132   6.148  24.332  0.00  0.00    +0.266 C 
BRANCH  67  68
ATOM     68  O   UNL     1       6.003   5.450  23.052  0.00  0.00    -0.459 OA
BRANCH  68  69
ATOM     69  C   UNL     1       7.170   5.206  22.386  0.00  0.00    +0.332 C 
ATOM     70  O   UNL     1       7.858   6.048  21.840  0.00  0.00    -0.246 OA
BRANCH  69  72
ATOM     71  C   UNL     1       8.723   3.346  22.687  0.00  0.00    +0.015 C 
ATOM     72  C   UNL     1       7.472   3.752  22.391  0.00  0.00    +0.092 C 
BRANCH  71  74
ATOM     73  C   UNL     1      10.096   1.442  23.641  0.00  0.00    +0.011 A 
ATOM     74  C   UNL     1       9.231   1.960  22.668  0.00  0.00    -0.025 A 
ATOM     75  C   UNL     1       8.873   1.132  21.589  0.00  0.00    +0.011 A 
ATOM     76  C   UNL     1       9.351  -0.179  21.495  0.00  0.00    +0.046 A 
ATOM     77  C   UNL     1      10.205  -0.669  22.472  0.00  0.00    +0.117 A 
ATOM     78  C   UNL     1      10.582   0.131  23.547  0.00  0.00    +0.046 A 
BRANCH  77  79
ATOM     79  O   UNL     1      10.664  -1.945  22.335  0.00  0.00    -0.507 OA
ATOM     80  H   UNL     1      10.115  -2.406  21.679  0.00  0.00    +0.292 HD
ENDBRANCH  77  79
ENDBRANCH  71  74
ENDBRANCH  69  72
ENDBRANCH  68  69
ENDBRANCH  67  68
ENDBRANCH  55  67
ENDBRANCH  54  57
ENDBRANCH   1  54
TORSDOF 28
ENDMDL
MODEL 9
REMARK VINA RESULT:      -5.2      1.847      3.095
REMARK  Name = 
REMARK  28 active torsions:
REMARK  status: ('A' for Active; 'I' for Inactive)
REMARK    1  A    between atoms: C_3  and  O_74
REMARK    2  A    between atoms: C_6  and  C_7
REMARK    3  A    between atoms: C_8  and  C_9
REMARK    4  A    between atoms: C_9  and  O_11
REMARK    5  A    between atoms: O_11  and  C_12
REMARK    6  A    between atoms: C_12  and  C_13
REMARK    7  A    between atoms: C_14  and  O_73
REMARK    8  A    between atoms: C_16  and  O_72
REMARK    9  A    between atoms: C_17  and  O_71
REMARK   10  A    between atoms: C_19  and  O_22
REMARK   11  A    between atoms: O_22  and  C_23
REMARK   12  A    between atoms: C_24  and  O_35
REMARK   13  A    between atoms: C_27  and  C_33
REMARK   14  A    between atoms: C_28  and  O_32
REMARK   15  A    between atoms: C_30  and  O_31
REMARK   16  A    between atoms: C_33  and  O_34
REMARK   17  A    between atoms: O_35  and  C_36
REMARK   18  A    between atoms: C_37  and  O_70
REMARK   19  A    between atoms: C_39  and  O_69
REMARK   20  A    between atoms: C_41  and  C_67
REMARK   21  A    between atoms: C_43  and  O_45
REMARK   22  A    between atoms: O_45  and  C_46
REMARK   23  A    between atoms: C_47  and  C_59
REMARK   24  A    between atoms: C_51  and  O_58
REMARK   25  A    between atoms: C_53  and  O_57
REMARK   26  A    between atoms: C_61  and  O_66
REMARK   27  A    between atoms: C_62  and  O_65
REMARK   28  A    between atoms: C_67  and  O_68
REMARK                            x       y       z     vdW  Elec       q    Type
REMARK                         _______ _______ _______ _____ _____    ______ ____
ROOT
ATOM      1  C   UNL     1       3.908   1.168  26.928  0.00  0.00    +0.208 C 
ATOM      2  C   UNL     1       4.321   1.820  28.266  0.00  0.00    +0.179 C 
ATOM      3  C   UNL     1       3.275   2.878  28.649  0.00  0.00    +0.177 C 
ATOM      4  C   UNL     1       3.155   3.953  27.571  0.00  0.00    +0.178 C 
ATOM      5  O   UNL     1       2.834   3.358  26.309  0.00  0.00    -0.341 OA
ATOM      6  C   UNL     1       3.690   2.290  25.872  0.00  0.00    +0.283 C 
ENDROOT
BRANCH   3   7
ATOM      7  O   UNL     1       3.537   3.433  29.934  0.00  0.00    -0.386 OA
ATOM      8  H   UNL     1       2.721   3.872  30.231  0.00  0.00    +0.210 HD
ENDBRANCH   3   7
BRANCH   2   9
ATOM      9  O   UNL     1       5.672   2.304  28.220  0.00  0.00    -0.386 OA
ATOM     10  H   UNL     1       6.018   2.403  29.124  0.00  0.00    +0.210 HD
ENDBRANCH   2   9
BRANCH   6  11
ATOM     11  O   UNL     1       4.937   2.851  25.427  0.00  0.00    -0.337 OA
BRANCH  11  12
ATOM     12  C   UNL     1       5.206   2.827  24.002  0.00  0.00    +0.221 C 
ATOM     13  C   UNL     1       6.635   2.212  23.734  0.00  0.00    +0.340 C 
ATOM     14  O   UNL     1       7.692   3.107  24.121  0.00  0.00    -0.331 OA
ATOM     15  C   UNL     1       7.582   4.478  23.676  0.00  0.00    +0.179 C 
ATOM     16  C   UNL     1       6.217   5.080  24.057  0.00  0.00    +0.177 C 
ATOM     17  C   UNL     1       5.133   4.233  23.384  0.00  0.00    +0.180 C 
BRANCH  16  18
ATOM     18  O   UNL     1       6.084   6.446  23.654  0.00  0.00    -0.386 OA
ATOM     19  H   UNL     1       6.048   6.411  22.674  0.00  0.00    +0.210 HD
ENDBRANCH  16  18
BRANCH  17  20
ATOM     20  O   UNL     1       3.867   4.891  23.514  0.00  0.00    -0.386 OA
ATOM     21  H   UNL     1       3.989   5.846  23.349  0.00  0.00    +0.210 HD
ENDBRANCH  17  20
BRANCH  13  22
ATOM     22  O   UNL     1       6.718   0.943  24.456  0.00  0.00    -0.453 OA
BRANCH  22  23
ATOM     23  C   UNL     1       6.657  -0.300  23.803  0.00  0.00    +0.214 A 
ATOM     24  C   UNL     1       5.611  -1.329  24.154  0.00  0.00    +0.238 A 
ATOM     25  O   UNL     1       4.746  -1.093  24.986  0.00  0.00    -0.283 OA
ATOM     26  C   UNL     1       5.724  -2.700  23.557  0.00  0.00    +0.109 A 
ATOM     27  C   UNL     1       6.789  -2.943  22.704  0.00  0.00    +0.147 A 
ATOM     28  C   UNL     1       7.027  -4.223  22.164  0.00  0.00    +0.092 A 
ATOM     29  C   UNL     1       6.159  -5.258  22.467  0.00  0.00    +0.124 A 
ATOM     30  C   UNL     1       5.065  -5.035  23.293  0.00  0.00    +0.091 A 
ATOM     31  O   UNL     1       7.670  -1.974  22.348  0.00  0.00    -0.451 OA
ATOM     32  C   UNL     1       4.852  -3.761  23.840  0.00  0.00    +0.135 A 
ATOM     33  C   UNL     1       7.642  -0.730  22.974  0.00  0.00    +0.181 A 
BRANCH  33  34
ATOM     34  C   UNL     1       8.948  -0.087  22.680  0.00  0.00    +0.025 A 
ATOM     35  C   UNL     1       8.966   0.831  21.613  0.00  0.00    +0.015 A 
ATOM     36  C   UNL     1       9.822   1.939  21.636  0.00  0.00    +0.050 A 
ATOM     37  C   UNL     1      10.700   2.095  22.697  0.00  0.00    +0.158 A 
ATOM     38  C   UNL     1      10.802   1.108  23.669  0.00  0.00    +0.159 A 
ATOM     39  C   UNL     1       9.922   0.023  23.690  0.00  0.00    +0.060 A 
BRANCH  37  40
ATOM     40  O   UNL     1      11.416   3.252  22.807  0.00  0.00    -0.503 OA
ATOM     41  H   UNL     1      11.167   3.624  23.678  0.00  0.00    +0.292 HD
ENDBRANCH  37  40
BRANCH  38  42
ATOM     42  O   UNL     1      11.747   1.262  24.644  0.00  0.00    -0.503 OA
ATOM     43  H   UNL     1      12.530   1.613  24.178  0.00  0.00    +0.292 HD
ENDBRANCH  38  42
ENDBRANCH  33  34
BRANCH  32  44
ATOM     44  O   UNL     1       3.768  -3.582  24.654  0.00  0.00    -0.506 OA
ATOM     45  H   UNL     1       3.474  -4.436  25.009  0.00  0.00    +0.292 HD
ENDBRANCH  32  44
BRANCH  29  46
ATOM     46  O   UNL     1       6.335  -6.517  21.974  0.00  0.00    -0.507 OA
ATOM     47  H   UNL     1       6.989  -6.496  21.254  0.00  0.00    +0.292 HD
ENDBRANCH  29  46
ENDBRANCH  22  23
ENDBRANCH  13  22
BRANCH  15  48
ATOM     48  C   UNL     1       7.899   4.701  22.176  0.00  0.00    +0.190 C 
BRANCH  48  49
ATOM     49  O   UNL     1       8.210   6.064  21.889  0.00  0.00    -0.392 OA
ATOM     50  H   UNL     1       9.161   6.214  22.127  0.00  0.00    +0.210 HD
ENDBRANCH  48  49
ENDBRANCH  15  48
ENDBRANCH  11  12
ENDBRANCH   6  11
BRANCH   4  51
ATOM     51  C   UNL     1       4.341   4.926  27.472  0.00  0.00    +0.190 C 
BRANCH  51  52
ATOM     52  O   UNL     1       3.912   6.237  27.853  0.00  0.00    -0.392 OA
ATOM     53  H   UNL     1       4.726   6.775  27.874  0.00  0.00    +0.210 HD
ENDBRANCH  51  52
ENDBRANCH   4  51
BRANCH   1  54
ATOM     54  O   UNL     1       2.771   0.287  26.981  0.00  0.00    -0.338 OA
BRANCH  54  57
ATOM     55  C   UNL     1       3.248  -3.142  28.017  0.00  0.00    +0.190 C 
ATOM     56  O   UNL     1       3.121  -1.939  27.277  0.00  0.00    -0.339 OA
ATOM     57  C   UNL     1       2.853  -0.745  27.981  0.00  0.00    +0.282 C 
ATOM     58  C   UNL     1       1.594  -0.865  28.875  0.00  0.00    +0.201 C 
ATOM     59  C   UNL     1       1.719  -2.070  29.814  0.00  0.00    +0.179 C 
ATOM     60  C   UNL     1       2.114  -3.340  29.043  0.00  0.00    +0.178 C 
BRANCH  58  61
ATOM     61  O   UNL     1       1.339   0.358  29.587  0.00  0.00    -0.384 OA
ATOM     62  H   UNL     1       1.523   0.205  30.534  0.00  0.00    +0.210 HD
ENDBRANCH  58  61
BRANCH  59  63
ATOM     63  O   UNL     1       0.455  -2.265  30.484  0.00  0.00    -0.386 OA
ATOM     64  H   UNL     1      -0.057  -2.951  30.013  0.00  0.00    +0.210 HD
ENDBRANCH  59  63
BRANCH  60  65
ATOM     65  O   UNL     1       2.435  -4.387  29.955  0.00  0.00    -0.386 OA
ATOM     66  H   UNL     1       3.027  -4.015  30.636  0.00  0.00    +0.210 HD
ENDBRANCH  60  65
BRANCH  55  67
ATOM     67  C   UNL     1       4.714  -3.264  28.462  0.00  0.00    +0.266 C 
BRANCH  67  68
ATOM     68  O   UNL     1       5.069  -4.669  28.669  0.00  0.00    -0.459 OA
BRANCH  68  69
ATOM     69  C   UNL     1       5.881  -5.224  27.723  0.00  0.00    +0.332 C 
ATOM     70  O   UNL     1       7.051  -4.941  27.545  0.00  0.00    -0.246 OA
BRANCH  69  72
ATOM     71  C   UNL     1       3.777  -6.195  26.953  0.00  0.00    +0.015 C 
ATOM     72  C   UNL     1       5.124  -6.208  26.908  0.00  0.00    +0.092 C 
BRANCH  71  74
ATOM     73  C   UNL     1       1.680  -7.615  26.865  0.00  0.00    +0.011 A 
ATOM     74  C   UNL     1       2.859  -7.134  26.280  0.00  0.00    -0.025 A 
ATOM     75  C   UNL     1       3.211  -7.616  25.006  0.00  0.00    +0.011 A 
ATOM     76  C   UNL     1       2.402  -8.535  24.332  0.00  0.00    +0.046 A 
ATOM     77  C   UNL     1       1.239  -8.995  24.932  0.00  0.00    +0.117 A 
ATOM     78  C   UNL     1       0.870  -8.541  26.195  0.00  0.00    +0.046 A 
BRANCH  77  79
ATOM     79  O   UNL     1       0.487  -9.905  24.251  0.00  0.00    -0.507 OA
ATOM     80  H   UNL     1       0.558 -10.765  24.696  0.00  0.00    +0.292 HD
ENDBRANCH  77  79
ENDBRANCH  71  74
ENDBRANCH  69  72
ENDBRANCH  68  69
ENDBRANCH  67  68
ENDBRANCH  55  67
ENDBRANCH  54  57
ENDBRANCH   1  54
TORSDOF 28
ENDMDL
