MODEL 1
REMARK VINA RESULT:      -7.2      0.000      0.000
REMARK  Name = 
REMARK  20 active torsions:
REMARK  status: ('A' for Active; 'I' for Inactive)
REMARK    1  A    between atoms: C_3  and  O_44
REMARK    2  A    between atoms: C_4  and  O_43
REMARK    3  A    between atoms: C_6  and  C_7
REMARK    4  A    between atoms: C_8  and  O_42
REMARK    5  A    between atoms: C_14  and  S_20
REMARK    6  A    between atoms: C_15  and  O_19
REMARK    7  A    between atoms: C_17  and  O_18
REMARK    8  A    between atoms: S_20  and  C_21
REMARK    9  A    between atoms: C_21  and  C_22
REMARK   10  A    between atoms: C_22  and  C_24
REMARK   11  A    between atoms: C_22  and  N_31
REMARK   12  A    between atoms: N_26  and  CA_27
REMARK   13  A    between atoms: CA_27  and  C_28
REMARK   14  A    between atoms: C_28  and  OXT_30
REMARK   15  A    between atoms: C_32  and  C_34
REMARK   16  A    between atoms: C_34  and  C_35
REMARK   17  A    between atoms: C_35  and  C_36
REMARK   18  A    between atoms: C_36  and  C_38
REMARK   19  A    between atoms: C_36  and  N_41
REMARK   20  A    between atoms: C_38  and  O_40
REMARK                            x       y       z     vdW  Elec       q    Type
REMARK                         _______ _______ _______ _____ _____    ______ ____
ROOT
ATOM      1  C   UNK A   1       7.672  -1.156  22.964  0.00  0.00    +0.181 A 
ATOM      2  O   UNK A   1       7.074  -0.476  24.020  0.00  0.00    -0.450 OA
ATOM      3  C   UNK A   1       7.471   0.815  24.319  0.00  0.00    +0.160 A 
ATOM      4  C   UNK A   1       6.752   1.518  25.313  0.00  0.00    +0.093 A 
ATOM      5  C   UNK A   1       7.204   2.796  25.687  0.00  0.00    +0.137 A 
ATOM      6  C   UNK A   1       8.295   3.392  25.064  0.00  0.00    +0.092 A 
ATOM      7  C   UNK A   1       8.977   2.705  24.068  0.00  0.00    +0.135 A 
ATOM      8  C   UNK A   1       8.574   1.415  23.691  0.00  0.00    +0.110 A 
ATOM      9  C   UNK A   1       9.270   0.665  22.629  0.00  0.00    +0.238 A 
ATOM     10  O   UNK A   1      10.271   1.082  22.056  0.00  0.00    -0.283 OA
ATOM     11  C   UNK A   1       8.681  -0.641  22.235  0.00  0.00    +0.208 A 
ENDROOT
BRANCH   1  13
ATOM     12  C   UNK A   1       5.681  -2.654  22.477  0.00  0.00    +0.015 A 
ATOM     13  C   UNK A   1       7.071  -2.498  22.681  0.00  0.00    +0.025 A 
ATOM     14  C   UNK A   1       7.868  -3.654  22.635  0.00  0.00    +0.060 A 
ATOM     15  C   UNK A   1       7.273  -4.907  22.500  0.00  0.00    +0.159 A 
ATOM     16  C   UNK A   1       5.889  -5.039  22.407  0.00  0.00    +0.158 A 
ATOM     17  C   UNK A   1       5.083  -3.914  22.377  0.00  0.00    +0.050 A 
BRANCH  16  18
ATOM     18  O   UNK A   1       5.368  -6.302  22.353  0.00  0.00    -0.503 OA
ATOM     19  H   UNK A   1       6.109  -6.935  22.352  0.00  0.00    +0.292 HD
ENDBRANCH  16  18
BRANCH  15  20
ATOM     20  O   UNK A   1       8.050  -6.037  22.482  0.00  0.00    -0.503 OA
ATOM     21  H   UNK A   1       7.452  -6.714  22.103  0.00  0.00    +0.292 HD
ENDBRANCH  15  20
ENDBRANCH   1  13
BRANCH  11  22
ATOM     22  O   UNK A   1       9.218  -1.230  21.100  0.00  0.00    -0.501 OA
ATOM     23  H   UNK A   1       9.216  -0.557  20.399  0.00  0.00    +0.292 HD
ENDBRANCH  11  22
BRANCH   7  24
ATOM     24  O   UNK A   1      10.052   3.308  23.483  0.00  0.00    -0.506 OA
ATOM     25  H   UNK A   1      10.884   2.937  23.816  0.00  0.00    +0.292 HD
ENDBRANCH   7  24
BRANCH   5  26
ATOM     26  O   UNK A   1       6.653   3.511  26.713  0.00  0.00    -0.505 OA
ATOM     27  H   UNK A   1       6.916   3.087  27.547  0.00  0.00    +0.292 HD
ENDBRANCH   5  26
BRANCH   4  28
ATOM     28  S   UNK A   1       5.356   0.738  26.134  0.00  0.00    -0.116 S 
BRANCH  28  29
ATOM     29  C   UNK A   1       6.128  -0.651  27.061  0.00  0.00    +0.106 C 
BRANCH  29  30
ATOM     30  C   UNK A   1       6.293  -2.005  26.345  0.00  0.00    +0.169 C 
BRANCH  30  31
ATOM     31  N   UNK A   1       5.376  -3.018  26.918  0.00  0.00    -0.303 N 
ATOM     32  H   UNK A   1       5.802  -3.815  27.384  0.00  0.00    +0.149 HD
ATOM     33  C   UNK A   1       4.131  -3.229  26.370  0.00  0.00    +0.214 C 
ATOM     34  O   UNK A   1       3.682  -2.551  25.453  0.00  0.00    -0.276 OA
BRANCH  33  35
ATOM     35  C   UNK A   1       3.324  -4.308  27.047  0.00  0.00    +0.098 C 
BRANCH  35  36
ATOM     36  C   UNK A   1       4.201  -5.231  27.918  0.00  0.00    +0.039 C 
BRANCH  36  37
ATOM     37  C   UNK A   1       4.339  -6.664  27.387  0.00  0.00    +0.161 C 
BRANCH  37  38
ATOM     38  N   UNK A   1       5.228  -7.464  28.286  0.00  0.00    -0.318 NA
ATOM     39  H   UNK A   1       4.755  -7.578  29.190  0.00  0.00    +0.119 HD
ATOM     40  H   UNK A   1       5.275  -8.416  27.908  0.00  0.00    +0.119 HD
ENDBRANCH  37  38
BRANCH  37  41
ATOM     41  C   UNK A   1       4.924  -6.754  25.963  0.00  0.00    +0.322 C 
ATOM     42  O   UNK A   1       4.425  -7.340  25.015  0.00  0.00    -0.249 OA
BRANCH  41  43
ATOM     43  O   UNK A   1       6.123  -6.118  25.895  0.00  0.00    -0.480 OA
ATOM     44  H   UNK A   1       6.540  -6.409  25.045  0.00  0.00    +0.295 HD
ENDBRANCH  41  43
ENDBRANCH  37  41
ENDBRANCH  36  37
ENDBRANCH  35  36
ENDBRANCH  33  35
ENDBRANCH  30  31
BRANCH  30  45
ATOM     45  C   UNK A   1       7.728  -2.535  26.498  0.00  0.00    +0.235 C 
ATOM     46  N   GLY A   2       7.848  -3.906  26.459  0.00  0.00    -0.303 N 
ATOM     47  H   GLY A   2       7.044  -4.490  26.241  0.00  0.00    +0.149 HD
ATOM     48  O   UNK A   1       8.686  -1.799  26.714  0.00  0.00    -0.274 OA
BRANCH  46  49
ATOM     49  CA  GLY A   2       9.123  -4.564  26.677  0.00  0.00    +0.224 C 
BRANCH  49  50
ATOM     50  C   GLY A   2       9.753  -4.922  25.341  0.00  0.00    +0.322 C 
ATOM     51  O   GLY A   2      10.267  -4.100  24.593  0.00  0.00    -0.249 OA
BRANCH  50  52
ATOM     52  OXT GLY A   2       9.718  -6.243  25.057  0.00  0.00    -0.480 OA
ATOM     53  HXT GLY A   2      10.597  -6.675  25.068  0.00  0.00    +0.295 HD
ENDBRANCH  50  52
ENDBRANCH  49  50
ENDBRANCH  46  49
ENDBRANCH  30  45
ENDBRANCH  29  30
ENDBRANCH  28  29
ENDBRANCH   4  28
TORSDOF 20
ENDMDL
MODEL 2
REMARK VINA RESULT:      -6.9      1.830      5.245
REMARK  Name = 
REMARK  20 active torsions:
REMARK  status: ('A' for Active; 'I' for Inactive)
REMARK    1  A    between atoms: C_3  and  O_44
REMARK    2  A    between atoms: C_4  and  O_43
REMARK    3  A    between atoms: C_6  and  C_7
REMARK    4  A    between atoms: C_8  and  O_42
REMARK    5  A    between atoms: C_14  and  S_20
REMARK    6  A    between atoms: C_15  and  O_19
REMARK    7  A    between atoms: C_17  and  O_18
REMARK    8  A    between atoms: S_20  and  C_21
REMARK    9  A    between atoms: C_21  and  C_22
REMARK   10  A    between atoms: C_22  and  C_24
REMARK   11  A    between atoms: C_22  and  N_31
REMARK   12  A    between atoms: N_26  and  CA_27
REMARK   13  A    between atoms: CA_27  and  C_28
REMARK   14  A    between atoms: C_28  and  OXT_30
REMARK   15  A    between atoms: C_32  and  C_34
REMARK   16  A    between atoms: C_34  and  C_35
REMARK   17  A    between atoms: C_35  and  C_36
REMARK   18  A    between atoms: C_36  and  C_38
REMARK   19  A    between atoms: C_36  and  N_41
REMARK   20  A    between atoms: C_38  and  O_40
REMARK                            x       y       z     vdW  Elec       q    Type
REMARK                         _______ _______ _______ _____ _____    ______ ____
ROOT
ATOM      1  C   UNK A   1       8.577  -0.334  23.986  0.00  0.00    +0.181 A 
ATOM      2  O   UNK A   1       7.718  -0.901  24.922  0.00  0.00    -0.450 OA
ATOM      3  C   UNK A   1       7.991  -2.157  25.435  0.00  0.00    +0.160 A 
ATOM      4  C   UNK A   1       7.168  -2.642  26.476  0.00  0.00    +0.093 A 
ATOM      5  C   UNK A   1       7.382  -3.952  26.942  0.00  0.00    +0.137 A 
ATOM      6  C   UNK A   1       8.412  -4.742  26.442  0.00  0.00    +0.092 A 
ATOM      7  C   UNK A   1       9.233  -4.244  25.439  0.00  0.00    +0.135 A 
ATOM      8  C   UNK A   1       9.029  -2.954  24.927  0.00  0.00    +0.110 A 
ATOM      9  C   UNK A   1       9.893  -2.393  23.871  0.00  0.00    +0.238 A 
ATOM     10  O   UNK A   1      10.793  -3.028  23.331  0.00  0.00    -0.283 OA
ATOM     11  C   UNK A   1       9.655  -0.975  23.494  0.00  0.00    +0.208 A 
ENDROOT
BRANCH   1  13
ATOM     12  C   UNK A   1       7.244   1.337  22.617  0.00  0.00    +0.015 A 
ATOM     13  C   UNK A   1       8.224   1.068  23.600  0.00  0.00    +0.025 A 
ATOM     14  C   UNK A   1       8.875   2.167  24.186  0.00  0.00    +0.060 A 
ATOM     15  C   UNK A   1       8.623   3.457  23.720  0.00  0.00    +0.159 A 
ATOM     16  C   UNK A   1       7.730   3.681  22.675  0.00  0.00    +0.158 A 
ATOM     17  C   UNK A   1       7.020   2.628  22.127  0.00  0.00    +0.050 A 
BRANCH  16  18
ATOM     18  O   UNK A   1       7.588   4.963  22.217  0.00  0.00    -0.503 OA
ATOM     19  H   UNK A   1       8.302   5.135  21.577  0.00  0.00    +0.292 HD
ENDBRANCH  16  18
BRANCH  15  20
ATOM     20  O   UNK A   1       9.280   4.526  24.274  0.00  0.00    -0.503 OA
ATOM     21  H   UNK A   1       9.194   4.366  25.238  0.00  0.00    +0.292 HD
ENDBRANCH  15  20
ENDBRANCH   1  13
BRANCH  11  22
ATOM     22  O   UNK A   1      10.604  -0.404  22.660  0.00  0.00    -0.501 OA
ATOM     23  H   UNK A   1      11.322  -0.074  23.225  0.00  0.00    +0.292 HD
ENDBRANCH  11  22
BRANCH   7  24
ATOM     24  O   UNK A   1      10.227  -5.046  24.956  0.00  0.00    -0.506 OA
ATOM     25  H   UNK A   1       9.866  -5.744  24.386  0.00  0.00    +0.292 HD
ENDBRANCH   7  24
BRANCH   5  26
ATOM     26  O   UNK A   1       6.573  -4.558  27.862  0.00  0.00    -0.505 OA
ATOM     27  H   UNK A   1       6.001  -3.876  28.251  0.00  0.00    +0.292 HD
ENDBRANCH   5  26
BRANCH   4  28
ATOM     28  S   UNK A   1       5.823  -1.630  27.107  0.00  0.00    -0.116 S 
BRANCH  28  29
ATOM     29  C   UNK A   1       4.665  -1.521  25.681  0.00  0.00    +0.106 C 
BRANCH  29  30
ATOM     30  C   UNK A   1       4.128  -2.831  25.074  0.00  0.00    +0.169 C 
BRANCH  30  31
ATOM     31  N   UNK A   1       4.057  -3.896  26.101  0.00  0.00    -0.303 N 
ATOM     32  H   UNK A   1       4.642  -4.717  25.957  0.00  0.00    +0.149 HD
ATOM     33  C   UNK A   1       2.910  -4.090  26.836  0.00  0.00    +0.214 C 
ATOM     34  O   UNK A   1       1.930  -3.359  26.748  0.00  0.00    -0.276 OA
BRANCH  33  35
ATOM     35  C   UNK A   1       2.983  -5.227  27.824  0.00  0.00    +0.098 C 
BRANCH  35  36
ATOM     36  C   UNK A   1       2.424  -6.541  27.242  0.00  0.00    +0.039 C 
BRANCH  36  37
ATOM     37  C   UNK A   1       3.379  -7.273  26.289  0.00  0.00    +0.161 C 
BRANCH  37  38
ATOM     38  N   UNK A   1       4.780  -6.788  26.489  0.00  0.00    -0.318 NA
ATOM     39  H   UNK A   1       5.404  -7.603  26.506  0.00  0.00    +0.119 HD
ATOM     40  H   UNK A   1       5.055  -6.281  25.642  0.00  0.00    +0.119 HD
ENDBRANCH  37  38
BRANCH  37  41
ATOM     41  C   UNK A   1       3.037  -7.093  24.796  0.00  0.00    +0.322 C 
ATOM     42  O   UNK A   1       2.659  -6.062  24.263  0.00  0.00    -0.249 OA
BRANCH  41  43
ATOM     43  O   UNK A   1       3.169  -8.269  24.127  0.00  0.00    -0.480 OA
ATOM     44  H   UNK A   1       3.573  -8.043  23.252  0.00  0.00    +0.295 HD
ENDBRANCH  41  43
ENDBRANCH  37  41
ENDBRANCH  36  37
ENDBRANCH  35  36
ENDBRANCH  33  35
ENDBRANCH  30  31
BRANCH  30  45
ATOM     45  C   UNK A   1       5.046  -3.331  23.947  0.00  0.00    +0.235 C 
ATOM     46  N   GLY A   2       5.427  -4.649  24.049  0.00  0.00    -0.303 N 
ATOM     47  H   GLY A   2       5.033  -5.248  24.771  0.00  0.00    +0.149 HD
ATOM     48  O   UNK A   1       5.469  -2.593  23.061  0.00  0.00    -0.274 OA
BRANCH  46  49
ATOM     49  CA  GLY A   2       6.363  -5.245  23.113  0.00  0.00    +0.224 C 
BRANCH  49  50
ATOM     50  C   GLY A   2       5.635  -5.638  21.838  0.00  0.00    +0.322 C 
ATOM     51  O   GLY A   2       6.034  -5.353  20.715  0.00  0.00    -0.249 OA
BRANCH  50  52
ATOM     52  OXT GLY A   2       4.511  -6.358  22.050  0.00  0.00    -0.480 OA
ATOM     53  HXT GLY A   2       4.435  -7.153  21.483  0.00  0.00    +0.295 HD
ENDBRANCH  50  52
ENDBRANCH  49  50
ENDBRANCH  46  49
ENDBRANCH  30  45
ENDBRANCH  29  30
ENDBRANCH  28  29
ENDBRANCH   4  28
TORSDOF 20
ENDMDL
MODEL 3
REMARK VINA RESULT:      -6.8      1.815      5.108
REMARK  Name = 
REMARK  20 active torsions:
REMARK  status: ('A' for Active; 'I' for Inactive)
REMARK    1  A    between atoms: C_3  and  O_44
REMARK    2  A    between atoms: C_4  and  O_43
REMARK    3  A    between atoms: C_6  and  C_7
REMARK    4  A    between atoms: C_8  and  O_42
REMARK    5  A    between atoms: C_14  and  S_20
REMARK    6  A    between atoms: C_15  and  O_19
REMARK    7  A    between atoms: C_17  and  O_18
REMARK    8  A    between atoms: S_20  and  C_21
REMARK    9  A    between atoms: C_21  and  C_22
REMARK   10  A    between atoms: C_22  and  C_24
REMARK   11  A    between atoms: C_22  and  N_31
REMARK   12  A    between atoms: N_26  and  CA_27
REMARK   13  A    between atoms: CA_27  and  C_28
REMARK   14  A    between atoms: C_28  and  OXT_30
REMARK   15  A    between atoms: C_32  and  C_34
REMARK   16  A    between atoms: C_34  and  C_35
REMARK   17  A    between atoms: C_35  and  C_36
REMARK   18  A    between atoms: C_36  and  C_38
REMARK   19  A    between atoms: C_36  and  N_41
REMARK   20  A    between atoms: C_38  and  O_40
REMARK                            x       y       z     vdW  Elec       q    Type
REMARK                         _______ _______ _______ _____ _____    ______ ____
ROOT
ATOM      1  C   UNK A   1       8.324   0.077  23.692  0.00  0.00    +0.181 A 
ATOM      2  O   UNK A   1       7.566  -0.502  24.704  0.00  0.00    -0.450 OA
ATOM      3  C   UNK A   1       7.926  -1.738  25.211  0.00  0.00    +0.160 A 
ATOM      4  C   UNK A   1       7.211  -2.234  26.325  0.00  0.00    +0.093 A 
ATOM      5  C   UNK A   1       7.510  -3.526  26.791  0.00  0.00    +0.137 A 
ATOM      6  C   UNK A   1       8.523  -4.289  26.218  0.00  0.00    +0.092 A 
ATOM      7  C   UNK A   1       9.240  -3.781  25.142  0.00  0.00    +0.135 A 
ATOM      8  C   UNK A   1       8.947  -2.508  24.631  0.00  0.00    +0.110 A 
ATOM      9  C   UNK A   1       9.699  -1.936  23.498  0.00  0.00    +0.238 A 
ATOM     10  O   UNK A   1      10.573  -2.548  22.894  0.00  0.00    -0.283 OA
ATOM     11  C   UNK A   1       9.380  -0.534  23.121  0.00  0.00    +0.208 A 
ENDROOT
BRANCH   1  13
ATOM     12  C   UNK A   1       6.664   1.690  22.649  0.00  0.00    +0.015 A 
ATOM     13  C   UNK A   1       7.889   1.459  23.316  0.00  0.00    +0.025 A 
ATOM     14  C   UNK A   1       8.698   2.574  23.592  0.00  0.00    +0.060 A 
ATOM     15  C   UNK A   1       8.335   3.834  23.119  0.00  0.00    +0.159 A 
ATOM     16  C   UNK A   1       7.174   4.014  22.371  0.00  0.00    +0.158 A 
ATOM     17  C   UNK A   1       6.320   2.948  22.144  0.00  0.00    +0.050 A 
BRANCH  16  18
ATOM     18  O   UNK A   1       6.918   5.262  21.874  0.00  0.00    -0.503 OA
ATOM     19  H   UNK A   1       6.770   5.862  22.627  0.00  0.00    +0.292 HD
ENDBRANCH  16  18
BRANCH  15  20
ATOM     20  O   UNK A   1       9.140   4.917  23.366  0.00  0.00    -0.503 OA
ATOM     21  H   UNK A   1       8.772   5.284  24.198  0.00  0.00    +0.292 HD
ENDBRANCH  15  20
ENDBRANCH   1  13
BRANCH  11  22
ATOM     22  O   UNK A   1      10.234   0.055  22.202  0.00  0.00    -0.501 OA
ATOM     23  H   UNK A   1      11.095  -0.389  22.284  0.00  0.00    +0.292 HD
ENDBRANCH  11  22
BRANCH   7  24
ATOM     24  O   UNK A   1      10.218  -4.556  24.590  0.00  0.00    -0.506 OA
ATOM     25  H   UNK A   1      10.636  -4.108  23.839  0.00  0.00    +0.292 HD
ENDBRANCH   7  24
BRANCH   5  26
ATOM     26  O   UNK A   1       6.803  -4.144  27.784  0.00  0.00    -0.505 OA
ATOM     27  H   UNK A   1       6.590  -3.477  28.457  0.00  0.00    +0.292 HD
ENDBRANCH   5  26
BRANCH   4  28
ATOM     28  S   UNK A   1       5.887  -1.258  27.051  0.00  0.00    -0.116 S 
BRANCH  28  29
ATOM     29  C   UNK A   1       4.478  -1.527  25.900  0.00  0.00    +0.106 C 
BRANCH  29  30
ATOM     30  C   UNK A   1       3.711  -2.860  25.981  0.00  0.00    +0.169 C 
BRANCH  30  31
ATOM     31  N   UNK A   1       4.115  -3.626  27.183  0.00  0.00    -0.303 N 
ATOM     32  H   UNK A   1       4.983  -4.153  27.125  0.00  0.00    +0.149 HD
ATOM     33  C   UNK A   1       3.170  -4.107  28.061  0.00  0.00    +0.214 C 
ATOM     34  O   UNK A   1       1.973  -3.866  27.952  0.00  0.00    -0.276 OA
BRANCH  33  35
ATOM     35  C   UNK A   1       3.734  -4.888  29.221  0.00  0.00    +0.098 C 
BRANCH  35  36
ATOM     36  C   UNK A   1       3.481  -6.403  29.082  0.00  0.00    +0.039 C 
BRANCH  36  37
ATOM     37  C   UNK A   1       4.634  -7.185  28.438  0.00  0.00    +0.161 C 
BRANCH  37  38
ATOM     38  N   UNK A   1       5.932  -6.815  29.081  0.00  0.00    -0.318 NA
ATOM     39  H   UNK A   1       5.859  -5.850  29.424  0.00  0.00    +0.119 HD
ATOM     40  H   UNK A   1       6.026  -7.376  29.934  0.00  0.00    +0.119 HD
ENDBRANCH  37  38
BRANCH  37  41
ATOM     41  C   UNK A   1       4.786  -6.945  26.922  0.00  0.00    +0.322 C 
ATOM     42  O   UNK A   1       5.743  -6.432  26.366  0.00  0.00    -0.249 OA
BRANCH  41  43
ATOM     43  O   UNK A   1       3.670  -7.348  26.257  0.00  0.00    -0.480 OA
ATOM     44  H   UNK A   1       2.907  -6.912  26.713  0.00  0.00    +0.295 HD
ENDBRANCH  41  43
ENDBRANCH  37  41
ENDBRANCH  36  37
ENDBRANCH  35  36
ENDBRANCH  33  35
ENDBRANCH  30  31
BRANCH  30  45
ATOM     45  C   UNK A   1       3.998  -3.735  24.751  0.00  0.00    +0.235 C 
ATOM     46  N   GLY A   2       4.886  -3.195  23.849  0.00  0.00    -0.303 N 
ATOM     47  H   GLY A   2       5.375  -2.329  24.058  0.00  0.00    +0.149 HD
ATOM     48  O   UNK A   1       3.425  -4.802  24.549  0.00  0.00    -0.274 OA
BRANCH  46  49
ATOM     49  CA  GLY A   2       5.194  -3.858  22.594  0.00  0.00    +0.224 C 
BRANCH  49  50
ATOM     50  C   GLY A   2       6.471  -4.669  22.740  0.00  0.00    +0.322 C 
ATOM     51  O   GLY A   2       7.483  -4.462  22.082  0.00  0.00    -0.249 OA
BRANCH  50  52
ATOM     52  OXT GLY A   2       6.401  -5.633  23.684  0.00  0.00    -0.480 OA
ATOM     53  HXT GLY A   2       5.583  -5.605  24.222  0.00  0.00    +0.295 HD
ENDBRANCH  50  52
ENDBRANCH  49  50
ENDBRANCH  46  49
ENDBRANCH  30  45
ENDBRANCH  29  30
ENDBRANCH  28  29
ENDBRANCH   4  28
TORSDOF 20
ENDMDL
MODEL 4
REMARK VINA RESULT:      -6.8      2.172      7.784
REMARK  Name = 
REMARK  20 active torsions:
REMARK  status: ('A' for Active; 'I' for Inactive)
REMARK    1  A    between atoms: C_3  and  O_44
REMARK    2  A    between atoms: C_4  and  O_43
REMARK    3  A    between atoms: C_6  and  C_7
REMARK    4  A    between atoms: C_8  and  O_42
REMARK    5  A    between atoms: C_14  and  S_20
REMARK    6  A    between atoms: C_15  and  O_19
REMARK    7  A    between atoms: C_17  and  O_18
REMARK    8  A    between atoms: S_20  and  C_21
REMARK    9  A    between atoms: C_21  and  C_22
REMARK   10  A    between atoms: C_22  and  C_24
REMARK   11  A    between atoms: C_22  and  N_31
REMARK   12  A    between atoms: N_26  and  CA_27
REMARK   13  A    between atoms: CA_27  and  C_28
REMARK   14  A    between atoms: C_28  and  OXT_30
REMARK   15  A    between atoms: C_32  and  C_34
REMARK   16  A    between atoms: C_34  and  C_35
REMARK   17  A    between atoms: C_35  and  C_36
REMARK   18  A    between atoms: C_36  and  C_38
REMARK   19  A    between atoms: C_36  and  N_41
REMARK   20  A    between atoms: C_38  and  O_40
REMARK                            x       y       z     vdW  Elec       q    Type
REMARK                         _______ _______ _______ _____ _____    ______ ____
ROOT
ATOM      1  C   UNK A   1       5.038  -2.383  26.331  0.00  0.00    +0.181 A 
ATOM      2  O   UNK A   1       5.272  -2.771  25.016  0.00  0.00    -0.450 OA
ATOM      3  C   UNK A   1       5.044  -4.081  24.634  0.00  0.00    +0.160 A 
ATOM      4  C   UNK A   1       5.168  -4.404  23.263  0.00  0.00    +0.093 A 
ATOM      5  C   UNK A   1       5.026  -5.749  22.879  0.00  0.00    +0.137 A 
ATOM      6  C   UNK A   1       4.713  -6.741  23.803  0.00  0.00    +0.092 A 
ATOM      7  C   UNK A   1       4.564  -6.407  25.143  0.00  0.00    +0.135 A 
ATOM      8  C   UNK A   1       4.730  -5.081  25.568  0.00  0.00    +0.110 A 
ATOM      9  C   UNK A   1       4.566  -4.693  26.981  0.00  0.00    +0.238 A 
ATOM     10  O   UNK A   1       4.341  -5.500  27.878  0.00  0.00    -0.283 OA
ATOM     11  C   UNK A   1       4.648  -3.242  27.293  0.00  0.00    +0.208 A 
ENDROOT
BRANCH   1  13
ATOM     12  C   UNK A   1       4.112  -0.041  26.649  0.00  0.00    +0.015 A 
ATOM     13  C   UNK A   1       5.218  -0.918  26.579  0.00  0.00    +0.025 A 
ATOM     14  C   UNK A   1       6.500  -0.361  26.725  0.00  0.00    +0.060 A 
ATOM     15  C   UNK A   1       6.652   1.022  26.825  0.00  0.00    +0.159 A 
ATOM     16  C   UNK A   1       5.548   1.871  26.784  0.00  0.00    +0.158 A 
ATOM     17  C   UNK A   1       4.269   1.348  26.713  0.00  0.00    +0.050 A 
BRANCH  16  18
ATOM     18  O   UNK A   1       5.776   3.220  26.810  0.00  0.00    -0.503 OA
ATOM     19  H   UNK A   1       6.414   3.432  26.105  0.00  0.00    +0.292 HD
ENDBRANCH  16  18
BRANCH  15  20
ATOM     20  O   UNK A   1       7.905   1.567  26.941  0.00  0.00    -0.503 OA
ATOM     21  H   UNK A   1       7.894   1.966  27.837  0.00  0.00    +0.292 HD
ENDBRANCH  15  20
ENDBRANCH   1  13
BRANCH  11  22
ATOM     22  O   UNK A   1       4.285  -2.878  28.580  0.00  0.00    -0.501 OA
ATOM     23  H   UNK A   1       3.638  -3.533  28.892  0.00  0.00    +0.292 HD
ENDBRANCH  11  22
BRANCH   7  24
ATOM     24  O   UNK A   1       4.271  -7.402  26.030  0.00  0.00    -0.506 OA
ATOM     25  H   UNK A   1       4.915  -8.124  25.970  0.00  0.00    +0.292 HD
ENDBRANCH   7  24
BRANCH   5  26
ATOM     26  O   UNK A   1       5.239  -6.187  21.601  0.00  0.00    -0.505 OA
ATOM     27  H   UNK A   1       4.601  -6.896  21.419  0.00  0.00    +0.292 HD
ENDBRANCH   5  26
BRANCH   4  28
ATOM     28  S   UNK A   1       5.595  -3.128  22.072  0.00  0.00    -0.116 S 
BRANCH  28  29
ATOM     29  C   UNK A   1       7.368  -2.789  22.426  0.00  0.00    +0.106 C 
BRANCH  29  30
ATOM     30  C   UNK A   1       7.714  -1.648  23.400  0.00  0.00    +0.169 C 
BRANCH  30  31
ATOM     31  N   UNK A   1       8.401  -0.542  22.693  0.00  0.00    -0.303 N 
ATOM     32  H   UNK A   1       9.418  -0.547  22.704  0.00  0.00    +0.149 HD
ATOM     33  C   UNK A   1       7.801   0.690  22.564  0.00  0.00    +0.214 C 
ATOM     34  O   UNK A   1       6.658   0.919  22.943  0.00  0.00    -0.276 OA
BRANCH  33  35
ATOM     35  C   UNK A   1       8.633   1.719  21.841  0.00  0.00    +0.098 C 
BRANCH  35  36
ATOM     36  C   UNK A   1      10.085   1.762  22.359  0.00  0.00    +0.039 C 
BRANCH  36  37
ATOM     37  C   UNK A   1      10.248   2.405  23.744  0.00  0.00    +0.161 C 
BRANCH  37  38
ATOM     38  N   UNK A   1       9.958   1.402  24.815  0.00  0.00    -0.318 NA
ATOM     39  H   UNK A   1       8.947   1.397  24.988  0.00  0.00    +0.119 HD
ATOM     40  H   UNK A   1      10.151   0.473  24.429  0.00  0.00    +0.119 HD
ENDBRANCH  37  38
BRANCH  37  41
ATOM     41  C   UNK A   1       9.328   3.618  23.986  0.00  0.00    +0.322 C 
ATOM     42  O   UNK A   1       9.445   4.723  23.482  0.00  0.00    -0.249 OA
BRANCH  41  43
ATOM     43  O   UNK A   1       8.361   3.315  24.893  0.00  0.00    -0.480 OA
ATOM     44  H   UNK A   1       8.165   2.353  24.773  0.00  0.00    +0.295 HD
ENDBRANCH  41  43
ENDBRANCH  37  41
ENDBRANCH  36  37
ENDBRANCH  35  36
ENDBRANCH  33  35
ENDBRANCH  30  31
BRANCH  30  45
ATOM     45  C   UNK A   1       8.652  -2.142  24.514  0.00  0.00    +0.235 C 
ATOM     46  N   GLY A   2       8.234  -3.282  25.162  0.00  0.00    -0.303 N 
ATOM     47  H   GLY A   2       7.416  -3.792  24.837  0.00  0.00    +0.149 HD
ATOM     48  O   UNK A   1       9.659  -1.527  24.852  0.00  0.00    -0.274 OA
BRANCH  46  49
ATOM     49  CA  GLY A   2       8.963  -3.824  26.295  0.00  0.00    +0.224 C 
BRANCH  49  50
ATOM     50  C   GLY A   2       8.737  -5.324  26.382  0.00  0.00    +0.322 C 
ATOM     51  O   GLY A   2       7.828  -5.835  27.026  0.00  0.00    -0.249 OA
BRANCH  50  52
ATOM     52  OXT GLY A   2       9.619  -6.053  25.664  0.00  0.00    -0.480 OA
ATOM     53  HXT GLY A   2      10.223  -6.597  26.210  0.00  0.00    +0.295 HD
ENDBRANCH  50  52
ENDBRANCH  49  50
ENDBRANCH  46  49
ENDBRANCH  30  45
ENDBRANCH  29  30
ENDBRANCH  28  29
ENDBRANCH   4  28
TORSDOF 20
ENDMDL
MODEL 5
REMARK VINA RESULT:      -6.6      2.236      6.095
REMARK  Name = 
REMARK  20 active torsions:
REMARK  status: ('A' for Active; 'I' for Inactive)
REMARK    1  A    between atoms: C_3  and  O_44
REMARK    2  A    between atoms: C_4  and  O_43
REMARK    3  A    between atoms: C_6  and  C_7
REMARK    4  A    between atoms: C_8  and  O_42
REMARK    5  A    between atoms: C_14  and  S_20
REMARK    6  A    between atoms: C_15  and  O_19
REMARK    7  A    between atoms: C_17  and  O_18
REMARK    8  A    between atoms: S_20  and  C_21
REMARK    9  A    between atoms: C_21  and  C_22
REMARK   10  A    between atoms: C_22  and  C_24
REMARK   11  A    between atoms: C_22  and  N_31
REMARK   12  A    between atoms: N_26  and  CA_27
REMARK   13  A    between atoms: CA_27  and  C_28
REMARK   14  A    between atoms: C_28  and  OXT_30
REMARK   15  A    between atoms: C_32  and  C_34
REMARK   16  A    between atoms: C_34  and  C_35
REMARK   17  A    between atoms: C_35  and  C_36
REMARK   18  A    between atoms: C_36  and  C_38
REMARK   19  A    between atoms: C_36  and  N_41
REMARK   20  A    between atoms: C_38  and  O_40
REMARK                            x       y       z     vdW  Elec       q    Type
REMARK                         _______ _______ _______ _____ _____    ______ ____
ROOT
ATOM      1  C   UNK A   1       7.315   2.764  25.878  0.00  0.00    +0.181 A 
ATOM      2  O   UNK A   1       7.029   1.504  25.362  0.00  0.00    -0.450 OA
ATOM      3  C   UNK A   1       7.743   1.028  24.277  0.00  0.00    +0.160 A 
ATOM      4  C   UNK A   1       7.513  -0.305  23.864  0.00  0.00    +0.093 A 
ATOM      5  C   UNK A   1       8.167  -0.769  22.709  0.00  0.00    +0.137 A 
ATOM      6  C   UNK A   1       9.066   0.032  22.011  0.00  0.00    +0.092 A 
ATOM      7  C   UNK A   1       9.307   1.330  22.442  0.00  0.00    +0.135 A 
ATOM      8  C   UNK A   1       8.648   1.837  23.572  0.00  0.00    +0.110 A 
ATOM      9  C   UNK A   1       8.892   3.207  24.062  0.00  0.00    +0.238 A 
ATOM     10  O   UNK A   1       9.626   4.005  23.488  0.00  0.00    -0.283 OA
ATOM     11  C   UNK A   1       8.228   3.592  25.334  0.00  0.00    +0.208 A 
ENDROOT
BRANCH   1  13
ATOM     12  C   UNK A   1       6.905   2.575  28.376  0.00  0.00    +0.015 A 
ATOM     13  C   UNK A   1       6.547   3.107  27.116  0.00  0.00    +0.025 A 
ATOM     14  C   UNK A   1       5.425   3.951  27.062  0.00  0.00    +0.060 A 
ATOM     15  C   UNK A   1       4.649   4.153  28.203  0.00  0.00    +0.159 A 
ATOM     16  C   UNK A   1       4.966   3.529  29.408  0.00  0.00    +0.158 A 
ATOM     17  C   UNK A   1       6.104   2.750  29.510  0.00  0.00    +0.050 A 
BRANCH  16  18
ATOM     18  O   UNK A   1       4.118   3.711  30.465  0.00  0.00    -0.503 OA
ATOM     19  H   UNK A   1       3.601   2.893  30.582  0.00  0.00    +0.292 HD
ENDBRANCH  16  18
BRANCH  15  20
ATOM     20  O   UNK A   1       3.538   4.956  28.142  0.00  0.00    -0.503 OA
ATOM     21  H   UNK A   1       2.816   4.324  27.938  0.00  0.00    +0.292 HD
ENDBRANCH  15  20
ENDBRANCH   1  13
BRANCH  11  22
ATOM     22  O   UNK A   1       8.632   4.798  25.887  0.00  0.00    -0.501 OA
ATOM     23  H   UNK A   1       9.530   4.977  25.560  0.00  0.00    +0.292 HD
ENDBRANCH  11  22
BRANCH   7  24
ATOM     24  O   UNK A   1      10.182   2.098  21.731  0.00  0.00    -0.506 OA
ATOM     25  H   UNK A   1       9.838   2.289  20.844  0.00  0.00    +0.292 HD
ENDBRANCH   7  24
BRANCH   5  26
ATOM     26  O   UNK A   1       7.929  -1.998  22.159  0.00  0.00    -0.505 OA
ATOM     27  H   UNK A   1       8.056  -1.923  21.199  0.00  0.00    +0.292 HD
ENDBRANCH   5  26
BRANCH   4  28
ATOM     28  S   UNK A   1       6.335  -1.332  24.752  0.00  0.00    -0.116 S 
BRANCH  28  29
ATOM     29  C   UNK A   1       7.361  -2.134  26.051  0.00  0.00    +0.106 C 
BRANCH  29  30
ATOM     30  C   UNK A   1       7.817  -3.588  25.829  0.00  0.00    +0.169 C 
BRANCH  30  31
ATOM     31  N   UNK A   1       7.419  -4.064  24.483  0.00  0.00    -0.303 N 
ATOM     32  H   UNK A   1       6.435  -3.986  24.237  0.00  0.00    +0.149 HD
ATOM     33  C   UNK A   1       8.125  -5.064  23.854  0.00  0.00    +0.214 C 
ATOM     34  O   UNK A   1       9.149  -5.553  24.319  0.00  0.00    -0.276 OA
BRANCH  33  35
ATOM     35  C   UNK A   1       7.585  -5.456  22.502  0.00  0.00    +0.098 C 
BRANCH  35  36
ATOM     36  C   UNK A   1       6.190  -6.106  22.598  0.00  0.00    +0.039 C 
BRANCH  36  37
ATOM     37  C   UNK A   1       5.031  -5.193  22.175  0.00  0.00    +0.161 C 
BRANCH  37  38
ATOM     38  N   UNK A   1       5.543  -3.825  21.851  0.00  0.00    -0.318 NA
ATOM     39  H   UNK A   1       6.466  -3.714  22.286  0.00  0.00    +0.119 HD
ATOM     40  H   UNK A   1       5.737  -3.797  20.845  0.00  0.00    +0.119 HD
ENDBRANCH  37  38
BRANCH  37  41
ATOM     41  C   UNK A   1       3.934  -5.033  23.246  0.00  0.00    +0.322 C 
ATOM     42  O   UNK A   1       2.731  -5.136  23.066  0.00  0.00    -0.249 OA
BRANCH  41  43
ATOM     43  O   UNK A   1       4.479  -4.710  24.449  0.00  0.00    -0.480 OA
ATOM     44  H   UNK A   1       3.824  -4.117  24.896  0.00  0.00    +0.295 HD
ENDBRANCH  41  43
ENDBRANCH  37  41
ENDBRANCH  36  37
ENDBRANCH  35  36
ENDBRANCH  33  35
ENDBRANCH  30  31
BRANCH  30  45
ATOM     45  C   UNK A   1       7.177  -4.528  26.863  0.00  0.00    +0.235 C 
ATOM     46  N   GLY A   2       5.813  -4.401  26.999  0.00  0.00    -0.303 N 
ATOM     47  H   GLY A   2       5.285  -3.795  26.375  0.00  0.00    +0.149 HD
ATOM     48  O   UNK A   1       7.838  -5.284  27.569  0.00  0.00    -0.274 OA
BRANCH  46  49
ATOM     49  CA  GLY A   2       5.074  -5.153  27.996  0.00  0.00    +0.224 C 
BRANCH  49  50
ATOM     50  C   GLY A   2       4.880  -6.584  27.522  0.00  0.00    +0.322 C 
ATOM     51  O   GLY A   2       4.210  -6.888  26.542  0.00  0.00    -0.249 OA
BRANCH  50  52
ATOM     52  OXT GLY A   2       5.537  -7.500  28.266  0.00  0.00    -0.480 OA
ATOM     53  HXT GLY A   2       6.452  -7.678  27.963  0.00  0.00    +0.295 HD
ENDBRANCH  50  52
ENDBRANCH  49  50
ENDBRANCH  46  49
ENDBRANCH  30  45
ENDBRANCH  29  30
ENDBRANCH  28  29
ENDBRANCH   4  28
TORSDOF 20
ENDMDL
MODEL 6
REMARK VINA RESULT:      -6.6      2.009      3.067
REMARK  Name = 
REMARK  20 active torsions:
REMARK  status: ('A' for Active; 'I' for Inactive)
REMARK    1  A    between atoms: C_3  and  O_44
REMARK    2  A    between atoms: C_4  and  O_43
REMARK    3  A    between atoms: C_6  and  C_7
REMARK    4  A    between atoms: C_8  and  O_42
REMARK    5  A    between atoms: C_14  and  S_20
REMARK    6  A    between atoms: C_15  and  O_19
REMARK    7  A    between atoms: C_17  and  O_18
REMARK    8  A    between atoms: S_20  and  C_21
REMARK    9  A    between atoms: C_21  and  C_22
REMARK   10  A    between atoms: C_22  and  C_24
REMARK   11  A    between atoms: C_22  and  N_31
REMARK   12  A    between atoms: N_26  and  CA_27
REMARK   13  A    between atoms: CA_27  and  C_28
REMARK   14  A    between atoms: C_28  and  OXT_30
REMARK   15  A    between atoms: C_32  and  C_34
REMARK   16  A    between atoms: C_34  and  C_35
REMARK   17  A    between atoms: C_35  and  C_36
REMARK   18  A    between atoms: C_36  and  C_38
REMARK   19  A    between atoms: C_36  and  N_41
REMARK   20  A    between atoms: C_38  and  O_40
REMARK                            x       y       z     vdW  Elec       q    Type
REMARK                         _______ _______ _______ _____ _____    ______ ____
ROOT
ATOM      1  C   UNK A   1       8.064  -1.691  23.304  0.00  0.00    +0.181 A 
ATOM      2  O   UNK A   1       7.303  -1.047  24.275  0.00  0.00    -0.450 OA
ATOM      3  C   UNK A   1       7.552   0.280  24.576  0.00  0.00    +0.160 A 
ATOM      4  C   UNK A   1       6.675   0.934  25.471  0.00  0.00    +0.093 A 
ATOM      5  C   UNK A   1       6.971   2.255  25.852  0.00  0.00    +0.137 A 
ATOM      6  C   UNK A   1       8.063   2.936  25.324  0.00  0.00    +0.092 A 
ATOM      7  C   UNK A   1       8.901   2.295  24.421  0.00  0.00    +0.135 A 
ATOM      8  C   UNK A   1       8.655   0.966  24.043  0.00  0.00    +0.110 A 
ATOM      9  C   UNK A   1       9.519   0.262  23.078  0.00  0.00    +0.238 A 
ATOM     10  O   UNK A   1      10.533   0.758  22.596  0.00  0.00    -0.283 OA
ATOM     11  C   UNK A   1       9.092  -1.100  22.664  0.00  0.00    +0.208 A 
ENDROOT
BRANCH   1  13
ATOM     12  C   UNK A   1       8.042  -4.183  23.786  0.00  0.00    +0.015 A 
ATOM     13  C   UNK A   1       7.616  -3.087  23.001  0.00  0.00    +0.025 A 
ATOM     14  C   UNK A   1       6.777  -3.357  21.908  0.00  0.00    +0.060 A 
ATOM     15  C   UNK A   1       6.478  -4.676  21.567  0.00  0.00    +0.159 A 
ATOM     16  C   UNK A   1       7.000  -5.742  22.296  0.00  0.00    +0.158 A 
ATOM     17  C   UNK A   1       7.771  -5.506  23.421  0.00  0.00    +0.050 A 
BRANCH  16  18
ATOM     18  O   UNK A   1       6.728  -7.010  21.861  0.00  0.00    -0.503 OA
ATOM     19  H   UNK A   1       7.194  -7.145  21.015  0.00  0.00    +0.292 HD
ENDBRANCH  16  18
BRANCH  15  20
ATOM     20  O   UNK A   1       5.680  -4.940  20.483  0.00  0.00    -0.503 OA
ATOM     21  H   UNK A   1       4.997  -5.540  20.849  0.00  0.00    +0.292 HD
ENDBRANCH  15  20
ENDBRANCH   1  13
BRANCH  11  22
ATOM     22  O   UNK A   1       9.792  -1.659  21.607  0.00  0.00    -0.501 OA
ATOM     23  H   UNK A   1       9.749  -1.029  20.868  0.00  0.00    +0.292 HD
ENDBRANCH  11  22
BRANCH   7  24
ATOM     24  O   UNK A   1       9.973   2.982  23.929  0.00  0.00    -0.506 OA
ATOM     25  H   UNK A   1       9.795   3.311  23.034  0.00  0.00    +0.292 HD
ENDBRANCH   7  24
BRANCH   5  26
ATOM     26  O   UNK A   1       6.257   2.937  26.797  0.00  0.00    -0.505 OA
ATOM     27  H   UNK A   1       6.255   2.406  27.610  0.00  0.00    +0.292 HD
ENDBRANCH   5  26
BRANCH   4  28
ATOM     28  S   UNK A   1       5.278   0.047  26.172  0.00  0.00    -0.116 S 
BRANCH  28  29
ATOM     29  C   UNK A   1       6.071  -1.253  27.205  0.00  0.00    +0.106 C 
BRANCH  29  30
ATOM     30  C   UNK A   1       5.778  -2.729  26.875  0.00  0.00    +0.169 C 
BRANCH  30  31
ATOM     31  N   UNK A   1       4.938  -2.839  25.660  0.00  0.00    -0.303 N 
ATOM     32  H   UNK A   1       4.245  -2.110  25.509  0.00  0.00    +0.149 HD
ATOM     33  C   UNK A   1       4.653  -4.069  25.111  0.00  0.00    +0.214 C 
ATOM     34  O   UNK A   1       5.133  -5.115  25.532  0.00  0.00    -0.276 OA
BRANCH  33  35
ATOM     35  C   UNK A   1       3.767  -4.021  23.892  0.00  0.00    +0.098 C 
BRANCH  35  36
ATOM     36  C   UNK A   1       2.557  -4.969  24.014  0.00  0.00    +0.039 C 
BRANCH  36  37
ATOM     37  C   UNK A   1       2.642  -6.225  23.136  0.00  0.00    +0.161 C 
BRANCH  37  38
ATOM     38  N   UNK A   1       1.292  -6.565  22.589  0.00  0.00    -0.318 NA
ATOM     39  H   UNK A   1       1.397  -6.809  21.598  0.00  0.00    +0.119 HD
ATOM     40  H   UNK A   1       0.990  -7.440  23.031  0.00  0.00    +0.119 HD
ENDBRANCH  37  38
BRANCH  37  41
ATOM     41  C   UNK A   1       3.168  -7.473  23.874  0.00  0.00    +0.322 C 
ATOM     42  O   UNK A   1       2.488  -8.344  24.391  0.00  0.00    -0.249 OA
BRANCH  41  43
ATOM     43  O   UNK A   1       4.526  -7.466  23.922  0.00  0.00    -0.480 OA
ATOM     44  H   UNK A   1       4.834  -7.519  22.983  0.00  0.00    +0.295 HD
ENDBRANCH  41  43
ENDBRANCH  37  41
ENDBRANCH  36  37
ENDBRANCH  35  36
ENDBRANCH  33  35
ENDBRANCH  30  31
BRANCH  30  45
ATOM     45  C   UNK A   1       5.022  -3.409  28.028  0.00  0.00    +0.235 C 
ATOM     46  N   GLY A   2       5.542  -4.617  28.432  0.00  0.00    -0.303 N 
ATOM     47  H   GLY A   2       6.420  -4.958  28.047  0.00  0.00    +0.149 HD
ATOM     48  O   UNK A   1       3.988  -2.948  28.505  0.00  0.00    -0.274 OA
BRANCH  46  49
ATOM     49  CA  GLY A   2       4.892  -5.425  29.448  0.00  0.00    +0.224 C 
BRANCH  49  50
ATOM     50  C   GLY A   2       4.921  -6.888  29.039  0.00  0.00    +0.322 C 
ATOM     51  O   GLY A   2       5.910  -7.441  28.573  0.00  0.00    -0.249 OA
BRANCH  50  52
ATOM     52  OXT GLY A   2       3.758  -7.540  29.257  0.00  0.00    -0.480 OA
ATOM     53  HXT GLY A   2       3.769  -8.120  30.046  0.00  0.00    +0.295 HD
ENDBRANCH  50  52
ENDBRANCH  49  50
ENDBRANCH  46  49
ENDBRANCH  30  45
ENDBRANCH  29  30
ENDBRANCH  28  29
ENDBRANCH   4  28
TORSDOF 20
ENDMDL
MODEL 7
REMARK VINA RESULT:      -6.5      2.254      7.266
REMARK  Name = 
REMARK  20 active torsions:
REMARK  status: ('A' for Active; 'I' for Inactive)
REMARK    1  A    between atoms: C_3  and  O_44
REMARK    2  A    between atoms: C_4  and  O_43
REMARK    3  A    between atoms: C_6  and  C_7
REMARK    4  A    between atoms: C_8  and  O_42
REMARK    5  A    between atoms: C_14  and  S_20
REMARK    6  A    between atoms: C_15  and  O_19
REMARK    7  A    between atoms: C_17  and  O_18
REMARK    8  A    between atoms: S_20  and  C_21
REMARK    9  A    between atoms: C_21  and  C_22
REMARK   10  A    between atoms: C_22  and  C_24
REMARK   11  A    between atoms: C_22  and  N_31
REMARK   12  A    between atoms: N_26  and  CA_27
REMARK   13  A    between atoms: CA_27  and  C_28
REMARK   14  A    between atoms: C_28  and  OXT_30
REMARK   15  A    between atoms: C_32  and  C_34
REMARK   16  A    between atoms: C_34  and  C_35
REMARK   17  A    between atoms: C_35  and  C_36
REMARK   18  A    between atoms: C_36  and  C_38
REMARK   19  A    between atoms: C_36  and  N_41
REMARK   20  A    between atoms: C_38  and  O_40
REMARK                            x       y       z     vdW  Elec       q    Type
REMARK                         _______ _______ _______ _____ _____    ______ ____
ROOT
ATOM      1  C   UNK A   1       7.593  -1.320  23.230  0.00  0.00    +0.181 A 
ATOM      2  O   UNK A   1       6.506  -1.162  24.084  0.00  0.00    -0.450 OA
ATOM      3  C   UNK A   1       5.692  -2.244  24.368  0.00  0.00    +0.160 A 
ATOM      4  C   UNK A   1       4.679  -2.075  25.339  0.00  0.00    +0.093 A 
ATOM      5  C   UNK A   1       3.790  -3.141  25.569  0.00  0.00    +0.137 A 
ATOM      6  C   UNK A   1       3.927  -4.358  24.909  0.00  0.00    +0.092 A 
ATOM      7  C   UNK A   1       4.944  -4.523  23.978  0.00  0.00    +0.135 A 
ATOM      8  C   UNK A   1       5.830  -3.471  23.699  0.00  0.00    +0.110 A 
ATOM      9  C   UNK A   1       6.928  -3.619  22.726  0.00  0.00    +0.238 A 
ATOM     10  O   UNK A   1       7.101  -4.633  22.057  0.00  0.00    -0.283 OA
ATOM     11  C   UNK A   1       7.873  -2.479  22.602  0.00  0.00    +0.208 A 
ENDROOT
BRANCH   1  13
ATOM     12  C   UNK A   1       9.693   0.001  23.766  0.00  0.00    +0.015 A 
ATOM     13  C   UNK A   1       8.451  -0.101  23.098  0.00  0.00    +0.025 A 
ATOM     14  C   UNK A   1       8.037   0.996  22.325  0.00  0.00    +0.060 A 
ATOM     15  C   UNK A   1       8.789   2.171  22.321  0.00  0.00    +0.159 A 
ATOM     16  C   UNK A   1       9.955   2.280  23.076  0.00  0.00    +0.158 A 
ATOM     17  C   UNK A   1      10.426   1.192  23.790  0.00  0.00    +0.050 A 
BRANCH  16  18
ATOM     18  O   UNK A   1      10.602   3.485  23.085  0.00  0.00    -0.503 OA
ATOM     19  H   UNK A   1      11.366   3.423  22.484  0.00  0.00    +0.292 HD
ENDBRANCH  16  18
BRANCH  15  20
ATOM     20  O   UNK A   1       8.369   3.251  21.587  0.00  0.00    -0.503 OA
ATOM     21  H   UNK A   1       9.202   3.734  21.404  0.00  0.00    +0.292 HD
ENDBRANCH  15  20
ENDBRANCH   1  13
BRANCH  11  22
ATOM     22  O   UNK A   1       9.010  -2.715  21.845  0.00  0.00    -0.501 OA
ATOM     23  H   UNK A   1       9.162  -3.675  21.846  0.00  0.00    +0.292 HD
ENDBRANCH  11  22
BRANCH   7  24
ATOM     24  O   UNK A   1       5.047  -5.722  23.335  0.00  0.00    -0.506 OA
ATOM     25  H   UNK A   1       5.522  -6.370  23.878  0.00  0.00    +0.292 HD
ENDBRANCH   7  24
BRANCH   5  26
ATOM     26  O   UNK A   1       2.708  -3.044  26.399  0.00  0.00    -0.505 OA
ATOM     27  H   UNK A   1       2.625  -3.884  26.880  0.00  0.00    +0.292 HD
ENDBRANCH   5  26
BRANCH   4  28
ATOM     28  S   UNK A   1       4.487  -0.496  26.175  0.00  0.00    -0.116 S 
BRANCH  28  29
ATOM     29  C   UNK A   1       5.727  -0.577  27.531  0.00  0.00    +0.106 C 
BRANCH  29  30
ATOM     30  C   UNK A   1       7.094   0.098  27.313  0.00  0.00    +0.169 C 
BRANCH  30  31
ATOM     31  N   UNK A   1       7.041   1.033  26.165  0.00  0.00    -0.303 N 
ATOM     32  H   UNK A   1       7.369   0.683  25.268  0.00  0.00    +0.149 HD
ATOM     33  C   UNK A   1       7.143   2.392  26.360  0.00  0.00    +0.214 C 
ATOM     34  O   UNK A   1       7.197   2.905  27.472  0.00  0.00    -0.276 OA
BRANCH  33  35
ATOM     35  C   UNK A   1       7.097   3.211  25.095  0.00  0.00    +0.098 C 
BRANCH  35  36
ATOM     36  C   UNK A   1       7.919   4.511  25.212  0.00  0.00    +0.039 C 
BRANCH  36  37
ATOM     37  C   UNK A   1       7.518   5.610  24.218  0.00  0.00    +0.161 C 
BRANCH  37  38
ATOM     38  N   UNK A   1       6.442   5.114  23.306  0.00  0.00    -0.318 NA
ATOM     39  H   UNK A   1       6.095   4.220  23.672  0.00  0.00    +0.119 HD
ATOM     40  H   UNK A   1       5.642   5.748  23.397  0.00  0.00    +0.119 HD
ENDBRANCH  37  38
BRANCH  37  41
ATOM     41  C   UNK A   1       8.678   6.111  23.334  0.00  0.00    +0.322 C 
ATOM     42  O   UNK A   1       9.810   6.370  23.710  0.00  0.00    -0.249 OA
BRANCH  41  43
ATOM     43  O   UNK A   1       8.266   6.278  22.050  0.00  0.00    -0.480 OA
ATOM     44  H   UNK A   1       7.289   6.430  22.093  0.00  0.00    +0.295 HD
ENDBRANCH  41  43
ENDBRANCH  37  41
ENDBRANCH  36  37
ENDBRANCH  35  36
ENDBRANCH  33  35
ENDBRANCH  30  31
BRANCH  30  45
ATOM     45  C   UNK A   1       8.181  -0.947  27.013  0.00  0.00    +0.235 C 
ATOM     46  N   GLY A   2       7.711  -2.206  26.717  0.00  0.00    -0.303 N 
ATOM     47  H   GLY A   2       6.713  -2.375  26.613  0.00  0.00    +0.149 HD
ATOM     48  O   UNK A   1       9.380  -0.699  27.102  0.00  0.00    -0.274 OA
BRANCH  46  49
ATOM     49  CA  GLY A   2       8.611  -3.323  26.498  0.00  0.00    +0.224 C 
BRANCH  49  50
ATOM     50  C   GLY A   2       7.875  -4.632  26.730  0.00  0.00    +0.322 C 
ATOM     51  O   GLY A   2       6.739  -4.698  27.186  0.00  0.00    -0.249 OA
BRANCH  50  52
ATOM     52  OXT GLY A   2       8.577  -5.727  26.364  0.00  0.00    -0.480 OA
ATOM     53  HXT GLY A   2       8.987  -5.658  25.477  0.00  0.00    +0.295 HD
ENDBRANCH  50  52
ENDBRANCH  49  50
ENDBRANCH  46  49
ENDBRANCH  30  45
ENDBRANCH  29  30
ENDBRANCH  28  29
ENDBRANCH   4  28
TORSDOF 20
ENDMDL
MODEL 8
REMARK VINA RESULT:      -6.5      3.031      7.926
REMARK  Name = 
REMARK  20 active torsions:
REMARK  status: ('A' for Active; 'I' for Inactive)
REMARK    1  A    between atoms: C_3  and  O_44
REMARK    2  A    between atoms: C_4  and  O_43
REMARK    3  A    between atoms: C_6  and  C_7
REMARK    4  A    between atoms: C_8  and  O_42
REMARK    5  A    between atoms: C_14  and  S_20
REMARK    6  A    between atoms: C_15  and  O_19
REMARK    7  A    between atoms: C_17  and  O_18
REMARK    8  A    between atoms: S_20  and  C_21
REMARK    9  A    between atoms: C_21  and  C_22
REMARK   10  A    between atoms: C_22  and  C_24
REMARK   11  A    between atoms: C_22  and  N_31
REMARK   12  A    between atoms: N_26  and  CA_27
REMARK   13  A    between atoms: CA_27  and  C_28
REMARK   14  A    between atoms: C_28  and  OXT_30
REMARK   15  A    between atoms: C_32  and  C_34
REMARK   16  A    between atoms: C_34  and  C_35
REMARK   17  A    between atoms: C_35  and  C_36
REMARK   18  A    between atoms: C_36  and  C_38
REMARK   19  A    between atoms: C_36  and  N_41
REMARK   20  A    between atoms: C_38  and  O_40
REMARK                            x       y       z     vdW  Elec       q    Type
REMARK                         _______ _______ _______ _____ _____    ______ ____
ROOT
ATOM      1  C   UNK A   1       8.305  -1.983  24.664  0.00  0.00    +0.181 A 
ATOM      2  O   UNK A   1       7.096  -1.816  25.333  0.00  0.00    -0.450 OA
ATOM      3  C   UNK A   1       6.671  -2.776  26.234  0.00  0.00    +0.160 A 
ATOM      4  C   UNK A   1       5.506  -2.509  26.989  0.00  0.00    +0.093 A 
ATOM      5  C   UNK A   1       5.016  -3.515  27.840  0.00  0.00    +0.137 A 
ATOM      6  C   UNK A   1       5.683  -4.727  27.993  0.00  0.00    +0.092 A 
ATOM      7  C   UNK A   1       6.843  -4.967  27.269  0.00  0.00    +0.135 A 
ATOM      8  C   UNK A   1       7.343  -4.000  26.385  0.00  0.00    +0.110 A 
ATOM      9  C   UNK A   1       8.580  -4.221  25.612  0.00  0.00    +0.238 A 
ATOM     10  O   UNK A   1       9.210  -5.273  25.639  0.00  0.00    -0.283 OA
ATOM     11  C   UNK A   1       9.076  -3.079  24.801  0.00  0.00    +0.208 A 
ENDROOT
BRANCH   1  13
ATOM     12  C   UNK A   1       8.460  -0.822  22.412  0.00  0.00    +0.015 A 
ATOM     13  C   UNK A   1       8.695  -0.820  23.806  0.00  0.00    +0.025 A 
ATOM     14  C   UNK A   1       9.335   0.303  24.356  0.00  0.00    +0.060 A 
ATOM     15  C   UNK A   1       9.806   1.316  23.521  0.00  0.00    +0.159 A 
ATOM     16  C   UNK A   1       9.653   1.237  22.138  0.00  0.00    +0.158 A 
ATOM     17  C   UNK A   1       8.965   0.178  21.574  0.00  0.00    +0.050 A 
BRANCH  16  18
ATOM     18  O   UNK A   1      10.206   2.228  21.375  0.00  0.00    -0.503 OA
ATOM     19  H   UNK A   1       9.957   3.085  21.767  0.00  0.00    +0.292 HD
ENDBRANCH  16  18
BRANCH  15  20
ATOM     20  O   UNK A   1      10.454   2.400  24.057  0.00  0.00    -0.503 OA
ATOM     21  H   UNK A   1      11.128   1.991  24.640  0.00  0.00    +0.292 HD
ENDBRANCH  15  20
ENDBRANCH   1  13
BRANCH  11  22
ATOM     22  O   UNK A   1      10.341  -3.230  24.253  0.00  0.00    -0.501 OA
ATOM     23  H   UNK A   1      10.237  -3.725  23.423  0.00  0.00    +0.292 HD
ENDBRANCH  11  22
BRANCH   7  24
ATOM     24  O   UNK A   1       7.469  -6.170  27.427  0.00  0.00    -0.506 OA
ATOM     25  H   UNK A   1       6.976  -6.742  28.036  0.00  0.00    +0.292 HD
ENDBRANCH   7  24
BRANCH   5  26
ATOM     26  O   UNK A   1       3.838  -3.405  28.525  0.00  0.00    -0.505 OA
ATOM     27  H   UNK A   1       3.258  -2.807  28.025  0.00  0.00    +0.292 HD
ENDBRANCH   5  26
BRANCH   4  28
ATOM     28  S   UNK A   1       4.632  -0.953  26.775  0.00  0.00    -0.116 S 
BRANCH  28  29
ATOM     29  C   UNK A   1       5.810   0.294  27.439  0.00  0.00    +0.106 C 
BRANCH  29  30
ATOM     30  C   UNK A   1       5.716   1.740  26.917  0.00  0.00    +0.169 C 
BRANCH  30  31
ATOM     31  N   UNK A   1       6.297   1.848  25.559  0.00  0.00    -0.303 N 
ATOM     32  H   UNK A   1       7.230   2.246  25.487  0.00  0.00    +0.149 HD
ATOM     33  C   UNK A   1       5.487   1.996  24.456  0.00  0.00    +0.214 C 
ATOM     34  O   UNK A   1       4.263   1.963  24.519  0.00  0.00    -0.276 OA
BRANCH  33  35
ATOM     35  C   UNK A   1       6.226   2.117  23.148  0.00  0.00    +0.098 C 
BRANCH  35  36
ATOM     36  C   UNK A   1       5.888   3.427  22.408  0.00  0.00    +0.039 C 
BRANCH  36  37
ATOM     37  C   UNK A   1       6.485   4.690  23.045  0.00  0.00    +0.161 C 
BRANCH  37  38
ATOM     38  N   UNK A   1       6.594   5.780  22.026  0.00  0.00    -0.318 NA
ATOM     39  H   UNK A   1       5.687   6.255  21.963  0.00  0.00    +0.119 HD
ATOM     40  H   UNK A   1       7.224   6.494  22.404  0.00  0.00    +0.119 HD
ENDBRANCH  37  38
BRANCH  37  41
ATOM     41  C   UNK A   1       7.886   4.485  23.654  0.00  0.00    +0.322 C 
ATOM     42  O   UNK A   1       8.136   4.267  24.828  0.00  0.00    -0.249 OA
BRANCH  41  43
ATOM     43  O   UNK A   1       8.848   4.626  22.704  0.00  0.00    -0.480 OA
ATOM     44  H   UNK A   1       8.657   5.482  22.245  0.00  0.00    +0.295 HD
ENDBRANCH  41  43
ENDBRANCH  37  41
ENDBRANCH  36  37
ENDBRANCH  35  36
ENDBRANCH  33  35
ENDBRANCH  30  31
BRANCH  30  45
ATOM     45  C   UNK A   1       6.486   2.705  27.833  0.00  0.00    +0.235 C 
ATOM     46  N   GLY A   2       6.324   4.040  27.537  0.00  0.00    -0.303 N 
ATOM     47  H   GLY A   2       5.659   4.336  26.826  0.00  0.00    +0.149 HD
ATOM     48  O   UNK A   1       7.246   2.317  28.715  0.00  0.00    -0.274 OA
BRANCH  46  49
ATOM     49  CA  GLY A   2       7.054   5.071  28.251  0.00  0.00    +0.224 C 
BRANCH  49  50
ATOM     50  C   GLY A   2       7.456   6.177  27.290  0.00  0.00    +0.322 C 
ATOM     51  O   GLY A   2       6.669   7.000  26.837  0.00  0.00    -0.249 OA
BRANCH  50  52
ATOM     52  OXT GLY A   2       8.774   6.192  26.994  0.00  0.00    -0.480 OA
ATOM     53  HXT GLY A   2       9.347   6.456  27.743  0.00  0.00    +0.295 HD
ENDBRANCH  50  52
ENDBRANCH  49  50
ENDBRANCH  46  49
ENDBRANCH  30  45
ENDBRANCH  29  30
ENDBRANCH  28  29
ENDBRANCH   4  28
TORSDOF 20
ENDMDL
MODEL 9
REMARK VINA RESULT:      -6.5      2.284      6.790
REMARK  Name = 
REMARK  20 active torsions:
REMARK  status: ('A' for Active; 'I' for Inactive)
REMARK    1  A    between atoms: C_3  and  O_44
REMARK    2  A    between atoms: C_4  and  O_43
REMARK    3  A    between atoms: C_6  and  C_7
REMARK    4  A    between atoms: C_8  and  O_42
REMARK    5  A    between atoms: C_14  and  S_20
REMARK    6  A    between atoms: C_15  and  O_19
REMARK    7  A    between atoms: C_17  and  O_18
REMARK    8  A    between atoms: S_20  and  C_21
REMARK    9  A    between atoms: C_21  and  C_22
REMARK   10  A    between atoms: C_22  and  C_24
REMARK   11  A    between atoms: C_22  and  N_31
REMARK   12  A    between atoms: N_26  and  CA_27
REMARK   13  A    between atoms: CA_27  and  C_28
REMARK   14  A    between atoms: C_28  and  OXT_30
REMARK   15  A    between atoms: C_32  and  C_34
REMARK   16  A    between atoms: C_34  and  C_35
REMARK   17  A    between atoms: C_35  and  C_36
REMARK   18  A    between atoms: C_36  and  C_38
REMARK   19  A    between atoms: C_36  and  N_41
REMARK   20  A    between atoms: C_38  and  O_40
REMARK                            x       y       z     vdW  Elec       q    Type
REMARK                         _______ _______ _______ _____ _____    ______ ____
ROOT
ATOM      1  C   UNK A   1       5.793  -0.407  26.475  0.00  0.00    +0.181 A 
ATOM      2  O   UNK A   1       6.738  -1.423  26.587  0.00  0.00    -0.450 OA
ATOM      3  C   UNK A   1       6.323  -2.737  26.709  0.00  0.00    +0.160 A 
ATOM      4  C   UNK A   1       7.310  -3.749  26.688  0.00  0.00    +0.093 A 
ATOM      5  C   UNK A   1       6.907  -5.080  26.902  0.00  0.00    +0.137 A 
ATOM      6  C   UNK A   1       5.567  -5.416  27.072  0.00  0.00    +0.092 A 
ATOM      7  C   UNK A   1       4.603  -4.416  27.061  0.00  0.00    +0.135 A 
ATOM      8  C   UNK A   1       4.971  -3.075  26.883  0.00  0.00    +0.110 A 
ATOM      9  C   UNK A   1       3.969  -1.993  26.854  0.00  0.00    +0.238 A 
ATOM     10  O   UNK A   1       2.772  -2.180  27.045  0.00  0.00    -0.283 OA
ATOM     11  C   UNK A   1       4.466  -0.628  26.540  0.00  0.00    +0.208 A 
ENDROOT
BRANCH   1  13
ATOM     12  C   UNK A   1       6.788   1.773  27.311  0.00  0.00    +0.015 A 
ATOM     13  C   UNK A   1       6.378   0.949  26.237  0.00  0.00    +0.025 A 
ATOM     14  C   UNK A   1       6.515   1.461  24.936  0.00  0.00    +0.060 A 
ATOM     15  C   UNK A   1       6.941   2.776  24.745  0.00  0.00    +0.159 A 
ATOM     16  C   UNK A   1       7.236   3.600  25.829  0.00  0.00    +0.158 A 
ATOM     17  C   UNK A   1       7.180   3.102  27.118  0.00  0.00    +0.050 A 
BRANCH  16  18
ATOM     18  O   UNK A   1       7.574   4.900  25.571  0.00  0.00    -0.503 OA
ATOM     19  H   UNK A   1       8.371   5.113  26.089  0.00  0.00    +0.292 HD
ENDBRANCH  16  18
BRANCH  15  20
ATOM     20  O   UNK A   1       7.049   3.283  23.475  0.00  0.00    -0.503 OA
ATOM     21  H   UNK A   1       7.979   3.591  23.436  0.00  0.00    +0.292 HD
ENDBRANCH  15  20
ENDBRANCH   1  13
BRANCH  11  22
ATOM     22  O   UNK A   1       3.492   0.332  26.309  0.00  0.00    -0.501 OA
ATOM     23  H   UNK A   1       2.891  -0.025  25.634  0.00  0.00    +0.292 HD
ENDBRANCH  11  22
BRANCH   7  24
ATOM     24  O   UNK A   1       3.298  -4.772  27.245  0.00  0.00    -0.506 OA
ATOM     25  H   UNK A   1       2.835  -4.853  26.396  0.00  0.00    +0.292 HD
ENDBRANCH   7  24
BRANCH   5  26
ATOM     26  O   UNK A   1       7.789  -6.118  27.016  0.00  0.00    -0.505 OA
ATOM     27  H   UNK A   1       8.117  -6.329  26.126  0.00  0.00    +0.292 HD
ENDBRANCH   5  26
BRANCH   4  28
ATOM     28  S   UNK A   1       9.042  -3.314  26.492  0.00  0.00    -0.116 S 
BRANCH  28  29
ATOM     29  C   UNK A   1       9.332  -3.519  24.686  0.00  0.00    +0.106 C 
BRANCH  29  30
ATOM     30  C   UNK A   1       8.494  -2.673  23.710  0.00  0.00    +0.169 C 
BRANCH  30  31
ATOM     31  N   UNK A   1       7.705  -3.541  22.806  0.00  0.00    -0.303 N 
ATOM     32  H   UNK A   1       8.199  -3.960  22.021  0.00  0.00    +0.149 HD
ATOM     33  C   UNK A   1       6.355  -3.336  22.634  0.00  0.00    +0.214 C 
ATOM     34  O   UNK A   1       5.721  -2.499  23.266  0.00  0.00    -0.276 OA
BRANCH  33  35
ATOM     35  C   UNK A   1       5.696  -4.284  21.664  0.00  0.00    +0.098 C 
BRANCH  35  36
ATOM     36  C   UNK A   1       5.595  -5.716  22.226  0.00  0.00    +0.039 C 
BRANCH  36  37
ATOM     37  C   UNK A   1       4.808  -5.831  23.538  0.00  0.00    +0.161 C 
BRANCH  37  38
ATOM     38  N   UNK A   1       4.658  -7.268  23.927  0.00  0.00    -0.318 NA
ATOM     39  H   UNK A   1       3.915  -7.336  24.632  0.00  0.00    +0.119 HD
ATOM     40  H   UNK A   1       4.280  -7.769  23.117  0.00  0.00    +0.119 HD
ENDBRANCH  37  38
BRANCH  37  41
ATOM     41  C   UNK A   1       3.393  -5.219  23.479  0.00  0.00    +0.322 C 
ATOM     42  O   UNK A   1       2.988  -4.277  24.140  0.00  0.00    -0.249 OA
BRANCH  41  43
ATOM     43  O   UNK A   1       2.610  -5.905  22.604  0.00  0.00    -0.480 OA
ATOM     44  H   UNK A   1       1.742  -5.429  22.583  0.00  0.00    +0.295 HD
ENDBRANCH  41  43
ENDBRANCH  37  41
ENDBRANCH  36  37
ENDBRANCH  35  36
ENDBRANCH  33  35
ENDBRANCH  30  31
BRANCH  30  45
ATOM     45  C   UNK A   1       9.396  -1.787  22.837  0.00  0.00    +0.235 C 
ATOM     46  N   GLY A   2       8.799  -0.644  22.357  0.00  0.00    -0.303 N 
ATOM     47  H   GLY A   2       7.863  -0.382  22.659  0.00  0.00    +0.149 HD
ATOM     48  O   UNK A   1      10.540  -2.108  22.528  0.00  0.00    -0.274 OA
BRANCH  46  49
ATOM     49  CA  GLY A   2       9.489   0.251  21.446  0.00  0.00    +0.224 C 
BRANCH  49  50
ATOM     50  C   GLY A   2       9.722   1.593  22.121  0.00  0.00    +0.322 C 
ATOM     51  O   GLY A   2      10.477   1.751  23.073  0.00  0.00    -0.249 OA
BRANCH  50  52
ATOM     52  OXT GLY A   2       9.035   2.613  21.560  0.00  0.00    -0.480 OA
ATOM     53  HXT GLY A   2       8.865   2.498  20.602  0.00  0.00    +0.295 HD
ENDBRANCH  50  52
ENDBRANCH  49  50
ENDBRANCH  46  49
ENDBRANCH  30  45
ENDBRANCH  29  30
ENDBRANCH  28  29
ENDBRANCH   4  28
TORSDOF 20
ENDMDL
