MODEL 1
REMARK VINA RESULT:      -7.6      0.000      0.000
REMARK  Name = 
REMARK  17 active torsions:
REMARK  status: ('A' for Active; 'I' for Inactive)
REMARK    1  A    between atoms: C_1  and  C_2
REMARK    2  A    between atoms: C_4  and  O_53
REMARK    3  A    between atoms: C_6  and  O_52
REMARK    4  A    between atoms: C_8  and  O_51
REMARK    5  A    between atoms: C_10  and  O_13
REMARK    6  A    between atoms: O_13  and  C_14
REMARK    7  A    between atoms: C_16  and  O_50
REMARK    8  A    between atoms: C_21  and  C_42
REMARK    9  A    between atoms: C_22  and  O_25
REMARK   10  A    between atoms: O_25  and  C_26
REMARK   11  A    between atoms: C_28  and  O_41
REMARK   12  A    between atoms: C_30  and  O_40
REMARK   13  A    between atoms: C_32  and  O_39
REMARK   14  A    between atoms: C_34  and  C_37
REMARK   15  A    between atoms: C_37  and  O_38
REMARK   16  A    between atoms: C_44  and  O_49
REMARK   17  A    between atoms: C_45  and  O_48
REMARK                            x       y       z     vdW  Elec       q    Type
REMARK                         _______ _______ _______ _____ _____    ______ ____
ROOT
ATOM      1  C   UNL     1       9.807   1.498  23.891  0.00  0.00    +0.131 A 
ATOM      2  C   UNL     1       9.320   0.547  24.781  0.00  0.00    +0.093 A 
ATOM      3  C   UNL     1       8.809  -0.665  24.309  0.00  0.00    +0.147 A 
ATOM      4  O   UNL     1       8.342  -1.509  25.272  0.00  0.00    -0.451 OA
ATOM      5  C   UNL     1       7.642  -2.643  24.907  0.00  0.00    +0.181 A 
ATOM      6  C   UNL     1       7.513  -3.090  23.636  0.00  0.00    +0.214 A 
ATOM      7  C   UNL     1       8.198  -2.269  22.564  0.00  0.00    +0.238 A 
ATOM      8  O   UNL     1       8.262  -2.690  21.415  0.00  0.00    -0.283 OA
ATOM      9  C   UNL     1       8.786  -0.966  22.956  0.00  0.00    +0.109 A 
ATOM     10  C   UNL     1       9.311  -0.021  22.059  0.00  0.00    +0.135 A 
ATOM     11  C   UNL     1       9.816   1.198  22.526  0.00  0.00    +0.092 A 
ENDROOT
BRANCH   5  12
ATOM     12  C   UNL     1       7.069  -3.222  26.130  0.00  0.00    +0.025 A 
ATOM     13  C   UNL     1       5.922  -2.630  26.692  0.00  0.00    +0.015 A 
ATOM     14  C   UNL     1       5.247  -3.258  27.737  0.00  0.00    +0.050 A 
ATOM     15  C   UNL     1       5.702  -4.486  28.193  0.00  0.00    +0.158 A 
ATOM     16  C   UNL     1       6.863  -5.057  27.678  0.00  0.00    +0.159 A 
ATOM     17  C   UNL     1       7.557  -4.433  26.645  0.00  0.00    +0.060 A 
BRANCH  15  18
ATOM     18  O   UNL     1       4.970  -5.153  29.132  0.00  0.00    -0.503 OA
ATOM     19  H   UNL     1       4.646  -4.456  29.736  0.00  0.00    +0.292 HD
ENDBRANCH  15  18
BRANCH  16  20
ATOM     20  O   UNL     1       7.270  -6.251  28.206  0.00  0.00    -0.503 OA
ATOM     21  H   UNL     1       6.720  -6.957  27.824  0.00  0.00    +0.292 HD
ENDBRANCH  16  20
ENDBRANCH   5  12
BRANCH  10  22
ATOM     22  O   UNL     1       9.329  -0.260  20.716  0.00  0.00    -0.506 OA
ATOM     23  H   UNL     1      10.066   0.207  20.296  0.00  0.00    +0.292 HD
ENDBRANCH  10  22
BRANCH   6  24
ATOM     24  O   UNL     1       6.835  -4.193  23.163  0.00  0.00    -0.453 OA
BRANCH  24  25
ATOM     25  C   UNL     1       5.660  -4.739  23.769  0.00  0.00    +0.340 C 
ATOM     26  O   UNL     1       4.506  -4.218  23.104  0.00  0.00    -0.331 OA
ATOM     27  C   UNL     1       3.234  -4.662  23.622  0.00  0.00    +0.179 C 
ATOM     28  C   UNL     1       3.138  -6.203  23.619  0.00  0.00    +0.177 C 
ATOM     29  C   UNL     1       4.376  -6.858  24.269  0.00  0.00    +0.180 C 
ATOM     30  C   UNL     1       5.672  -6.282  23.674  0.00  0.00    +0.214 C 
BRANCH  28  31
ATOM     31  O   UNL     1       3.020  -6.631  22.253  0.00  0.00    -0.386 OA
ATOM     32  H   UNL     1       3.911  -6.839  21.921  0.00  0.00    +0.210 HD
ENDBRANCH  28  31
BRANCH  29  33
ATOM     33  O   UNL     1       4.306  -6.759  25.695  0.00  0.00    -0.386 OA
ATOM     34  H   UNL     1       4.623  -5.895  26.001  0.00  0.00    +0.210 HD
ENDBRANCH  29  33
BRANCH  30  35
ATOM     35  O   UNL     1       5.780  -6.728  22.311  0.00  0.00    -0.383 OA
ATOM     36  H   UNL     1       6.115  -5.966  21.792  0.00  0.00    +0.210 HD
ENDBRANCH  30  35
BRANCH  27  37
ATOM     37  C   UNL     1       2.862  -4.070  24.998  0.00  0.00    +0.190 C 
BRANCH  37  38
ATOM     38  O   UNL     1       1.950  -4.906  25.704  0.00  0.00    -0.392 OA
ATOM     39  H   UNL     1       2.035  -4.679  26.647  0.00  0.00    +0.210 HD
ENDBRANCH  37  38
ENDBRANCH  27  37
ENDBRANCH  24  25
ENDBRANCH   6  24
BRANCH   1  40
ATOM     40  O   UNL     1      10.271   2.740  24.223  0.00  0.00    -0.461 OA
BRANCH  40  44
ATOM     41  C   UNL     1       6.536   4.678  25.324  0.00  0.00    +0.041 C 
ATOM     42  C   UNL     1       6.992   4.365  23.902  0.00  0.00    +0.150 C 
ATOM     43  O   UNL     1       8.029   3.380  23.867  0.00  0.00    -0.334 OA
ATOM     44  C   UNL     1       9.312   3.805  24.345  0.00  0.00    +0.339 C 
ATOM     45  C   UNL     1       9.835   5.008  23.525  0.00  0.00    +0.214 C 
ATOM     46  C   UNL     1       8.783   6.125  23.425  0.00  0.00    +0.180 C 
ATOM     47  C   UNL     1       7.400   5.577  23.054  0.00  0.00    +0.174 C 
BRANCH  47  48
ATOM     48  O   UNL     1       7.440   5.160  21.677  0.00  0.00    -0.387 OA
ATOM     49  H   UNL     1       6.625   5.479  21.241  0.00  0.00    +0.210 HD
ENDBRANCH  47  48
BRANCH  46  50
ATOM     50  O   UNL     1       8.755   6.907  24.629  0.00  0.00    -0.386 OA
ATOM     51  H   UNL     1       9.322   7.689  24.542  0.00  0.00    +0.210 HD
ENDBRANCH  46  50
BRANCH  45  52
ATOM     52  O   UNL     1      11.041   5.536  24.103  0.00  0.00    -0.383 OA
ATOM     53  H   UNL     1      10.965   6.510  24.108  0.00  0.00    +0.210 HD
ENDBRANCH  45  52
ENDBRANCH  40  44
ENDBRANCH   1  40
TORSDOF 16
ENDMDL
MODEL 2
REMARK VINA RESULT:      -7.4      1.603      2.105
REMARK  Name = 
REMARK  17 active torsions:
REMARK  status: ('A' for Active; 'I' for Inactive)
REMARK    1  A    between atoms: C_1  and  C_2
REMARK    2  A    between atoms: C_4  and  O_53
REMARK    3  A    between atoms: C_6  and  O_52
REMARK    4  A    between atoms: C_8  and  O_51
REMARK    5  A    between atoms: C_10  and  O_13
REMARK    6  A    between atoms: O_13  and  C_14
REMARK    7  A    between atoms: C_16  and  O_50
REMARK    8  A    between atoms: C_21  and  C_42
REMARK    9  A    between atoms: C_22  and  O_25
REMARK   10  A    between atoms: O_25  and  C_26
REMARK   11  A    between atoms: C_28  and  O_41
REMARK   12  A    between atoms: C_30  and  O_40
REMARK   13  A    between atoms: C_32  and  O_39
REMARK   14  A    between atoms: C_34  and  C_37
REMARK   15  A    between atoms: C_37  and  O_38
REMARK   16  A    between atoms: C_44  and  O_49
REMARK   17  A    between atoms: C_45  and  O_48
REMARK                            x       y       z     vdW  Elec       q    Type
REMARK                         _______ _______ _______ _____ _____    ______ ____
ROOT
ATOM      1  C   UNL     1       9.588   1.842  23.697  0.00  0.00    +0.131 A 
ATOM      2  C   UNL     1       8.738   1.380  24.695  0.00  0.00    +0.093 A 
ATOM      3  C   UNL     1       8.551   0.008  24.883  0.00  0.00    +0.147 A 
ATOM      4  O   UNL     1       7.680  -0.325  25.877  0.00  0.00    -0.451 OA
ATOM      5  C   UNL     1       7.274  -1.638  26.019  0.00  0.00    +0.181 A 
ATOM      6  C   UNL     1       7.805  -2.683  25.342  0.00  0.00    +0.214 A 
ATOM      7  C   UNL     1       8.920  -2.357  24.372  0.00  0.00    +0.238 A 
ATOM      8  O   UNL     1       9.556  -3.260  23.841  0.00  0.00    -0.283 OA
ATOM      9  C   UNL     1       9.211  -0.929  24.103  0.00  0.00    +0.109 A 
ATOM     10  C   UNL     1      10.099  -0.463  23.120  0.00  0.00    +0.135 A 
ATOM     11  C   UNL     1      10.282   0.910  22.921  0.00  0.00    +0.092 A 
ENDROOT
BRANCH   5  12
ATOM     12  C   UNL     1       6.177  -1.659  26.996  0.00  0.00    +0.025 A 
ATOM     13  C   UNL     1       5.662  -0.438  27.470  0.00  0.00    +0.015 A 
ATOM     14  C   UNL     1       4.506  -0.416  28.249  0.00  0.00    +0.050 A 
ATOM     15  C   UNL     1       3.855  -1.610  28.524  0.00  0.00    +0.158 A 
ATOM     16  C   UNL     1       4.383  -2.828  28.102  0.00  0.00    +0.159 A 
ATOM     17  C   UNL     1       5.545  -2.866  27.337  0.00  0.00    +0.060 A 
BRANCH  15  18
ATOM     18  O   UNL     1       2.661  -1.573  29.183  0.00  0.00    -0.503 OA
ATOM     19  H   UNL     1       2.877  -1.827  30.103  0.00  0.00    +0.292 HD
ENDBRANCH  15  18
BRANCH  16  20
ATOM     20  O   UNL     1       3.705  -3.965  28.445  0.00  0.00    -0.503 OA
ATOM     21  H   UNL     1       3.809  -4.612  27.726  0.00  0.00    +0.292 HD
ENDBRANCH  16  20
ENDBRANCH   5  12
BRANCH  10  22
ATOM     22  O   UNL     1      10.789  -1.332  22.326  0.00  0.00    -0.506 OA
ATOM     23  H   UNL     1      11.743  -1.197  22.421  0.00  0.00    +0.292 HD
ENDBRANCH  10  22
BRANCH   6  24
ATOM     24  O   UNL     1       7.472  -4.020  25.400  0.00  0.00    -0.453 OA
BRANCH  24  25
ATOM     25  C   UNL     1       6.420  -4.622  24.641  0.00  0.00    +0.340 C 
ATOM     26  O   UNL     1       5.813  -3.626  23.812  0.00  0.00    -0.331 OA
ATOM     27  C   UNL     1       4.711  -4.080  22.997  0.00  0.00    +0.179 C 
ATOM     28  C   UNL     1       5.132  -5.264  22.099  0.00  0.00    +0.177 C 
ATOM     29  C   UNL     1       5.852  -6.368  22.902  0.00  0.00    +0.180 C 
ATOM     30  C   UNL     1       6.976  -5.769  23.764  0.00  0.00    +0.214 C 
BRANCH  28  31
ATOM     31  O   UNL     1       6.007  -4.750  21.082  0.00  0.00    -0.386 OA
ATOM     32  H   UNL     1       5.479  -4.198  20.477  0.00  0.00    +0.210 HD
ENDBRANCH  28  31
BRANCH  29  33
ATOM     33  O   UNL     1       4.908  -7.143  23.647  0.00  0.00    -0.386 OA
ATOM     34  H   UNL     1       4.671  -7.956  23.173  0.00  0.00    +0.210 HD
ENDBRANCH  29  33
BRANCH  30  35
ATOM     35  O   UNL     1       8.020  -5.309  22.889  0.00  0.00    -0.383 OA
ATOM     36  H   UNL     1       8.739  -4.969  23.463  0.00  0.00    +0.210 HD
ENDBRANCH  30  35
BRANCH  27  37
ATOM     37  C   UNL     1       3.420  -4.392  23.783  0.00  0.00    +0.190 C 
BRANCH  37  38
ATOM     38  O   UNL     1       2.554  -5.257  23.055  0.00  0.00    -0.392 OA
ATOM     39  H   UNL     1       2.689  -5.058  22.111  0.00  0.00    +0.210 HD
ENDBRANCH  37  38
ENDBRANCH  27  37
ENDBRANCH  24  25
ENDBRANCH   6  24
BRANCH   1  40
ATOM     40  O   UNL     1       9.804   3.153  23.375  0.00  0.00    -0.461 OA
BRANCH  40  44
ATOM     41  C   UNL     1       5.710   4.496  23.971  0.00  0.00    +0.041 C 
ATOM     42  C   UNL     1       6.560   4.755  22.732  0.00  0.00    +0.150 C 
ATOM     43  O   UNL     1       7.678   3.866  22.642  0.00  0.00    -0.334 OA
ATOM     44  C   UNL     1       8.728   4.084  23.593  0.00  0.00    +0.339 C 
ATOM     45  C   UNL     1       9.306   5.512  23.458  0.00  0.00    +0.214 C 
ATOM     46  C   UNL     1       8.195   6.576  23.472  0.00  0.00    +0.180 C 
ATOM     47  C   UNL     1       7.034   6.202  22.542  0.00  0.00    +0.174 C 
BRANCH  47  48
ATOM     48  O   UNL     1       7.487   6.345  21.184  0.00  0.00    -0.387 OA
ATOM     49  H   UNL     1       8.392   5.982  21.127  0.00  0.00    +0.210 HD
ENDBRANCH  47  48
BRANCH  46  50
ATOM     50  O   UNL     1       7.757   6.836  24.814  0.00  0.00    -0.386 OA
ATOM     51  H   UNL     1       7.336   7.708  24.874  0.00  0.00    +0.210 HD
ENDBRANCH  46  50
BRANCH  45  52
ATOM     52  O   UNL     1      10.245   5.787  24.512  0.00  0.00    -0.383 OA
ATOM     53  H   UNL     1      11.143   5.712  24.135  0.00  0.00    +0.210 HD
ENDBRANCH  45  52
ENDBRANCH  40  44
ENDBRANCH   1  40
TORSDOF 16
ENDMDL
MODEL 3
REMARK VINA RESULT:      -7.3      1.666      2.439
REMARK  Name = 
REMARK  17 active torsions:
REMARK  status: ('A' for Active; 'I' for Inactive)
REMARK    1  A    between atoms: C_1  and  C_2
REMARK    2  A    between atoms: C_4  and  O_53
REMARK    3  A    between atoms: C_6  and  O_52
REMARK    4  A    between atoms: C_8  and  O_51
REMARK    5  A    between atoms: C_10  and  O_13
REMARK    6  A    between atoms: O_13  and  C_14
REMARK    7  A    between atoms: C_16  and  O_50
REMARK    8  A    between atoms: C_21  and  C_42
REMARK    9  A    between atoms: C_22  and  O_25
REMARK   10  A    between atoms: O_25  and  C_26
REMARK   11  A    between atoms: C_28  and  O_41
REMARK   12  A    between atoms: C_30  and  O_40
REMARK   13  A    between atoms: C_32  and  O_39
REMARK   14  A    between atoms: C_34  and  C_37
REMARK   15  A    between atoms: C_37  and  O_38
REMARK   16  A    between atoms: C_44  and  O_49
REMARK   17  A    between atoms: C_45  and  O_48
REMARK                            x       y       z     vdW  Elec       q    Type
REMARK                         _______ _______ _______ _____ _____    ______ ____
ROOT
ATOM      1  C   UNL     1       8.936   2.064  24.517  0.00  0.00    +0.131 A 
ATOM      2  C   UNL     1       8.440   1.078  25.362  0.00  0.00    +0.093 A 
ATOM      3  C   UNL     1       8.645  -0.273  25.068  0.00  0.00    +0.147 A 
ATOM      4  O   UNL     1       8.095  -1.148  25.956  0.00  0.00    -0.451 OA
ATOM      5  C   UNL     1       8.070  -2.497  25.661  0.00  0.00    +0.181 A 
ATOM      6  C   UNL     1       8.707  -3.066  24.610  0.00  0.00    +0.214 A 
ATOM      7  C   UNL     1       9.494  -2.130  23.718  0.00  0.00    +0.238 A 
ATOM      8  O   UNL     1      10.224  -2.583  22.843  0.00  0.00    -0.283 OA
ATOM      9  C   UNL     1       9.358  -0.672  23.947  0.00  0.00    +0.109 A 
ATOM     10  C   UNL     1       9.891   0.324  23.114  0.00  0.00    +0.135 A 
ATOM     11  C   UNL     1       9.680   1.678  23.399  0.00  0.00    +0.092 A 
ENDROOT
BRANCH   5  12
ATOM     12  C   UNL     1       7.223  -3.155  26.666  0.00  0.00    +0.025 A 
ATOM     13  C   UNL     1       5.976  -2.586  26.984  0.00  0.00    +0.015 A 
ATOM     14  C   UNL     1       5.072  -3.278  27.789  0.00  0.00    +0.050 A 
ATOM     15  C   UNL     1       5.407  -4.544  28.245  0.00  0.00    +0.158 A 
ATOM     16  C   UNL     1       6.657  -5.095  27.978  0.00  0.00    +0.159 A 
ATOM     17  C   UNL     1       7.576  -4.410  27.189  0.00  0.00    +0.060 A 
BRANCH  15  18
ATOM     18  O   UNL     1       4.473  -5.265  28.931  0.00  0.00    -0.503 OA
ATOM     19  H   UNL     1       4.418  -4.833  29.806  0.00  0.00    +0.292 HD
ENDBRANCH  15  18
BRANCH  16  20
ATOM     20  O   UNL     1       6.928  -6.332  28.495  0.00  0.00    -0.503 OA
ATOM     21  H   UNL     1       7.186  -6.919  27.763  0.00  0.00    +0.292 HD
ENDBRANCH  16  20
ENDBRANCH   5  12
BRANCH  10  22
ATOM     22  O   UNL     1      10.612  -0.000  22.001  0.00  0.00    -0.506 OA
ATOM     23  H   UNL     1      11.479   0.433  22.018  0.00  0.00    +0.292 HD
ENDBRANCH  10  22
BRANCH   6  24
ATOM     24  O   UNL     1       8.740  -4.388  24.220  0.00  0.00    -0.453 OA
BRANCH  24  25
ATOM     25  C   UNL     1       7.606  -5.116  23.741  0.00  0.00    +0.340 C 
ATOM     26  O   UNL     1       6.426  -4.614  24.376  0.00  0.00    -0.331 OA
ATOM     27  C   UNL     1       5.194  -5.269  24.009  0.00  0.00    +0.179 C 
ATOM     28  C   UNL     1       4.974  -5.228  22.480  0.00  0.00    +0.177 C 
ATOM     29  C   UNL     1       6.224  -5.700  21.706  0.00  0.00    +0.180 C 
ATOM     30  C   UNL     1       7.482  -4.970  22.206  0.00  0.00    +0.214 C 
BRANCH  28  31
ATOM     31  O   UNL     1       4.660  -3.874  22.121  0.00  0.00    -0.386 OA
ATOM     32  H   UNL     1       3.728  -3.842  21.837  0.00  0.00    +0.210 HD
ENDBRANCH  28  31
BRANCH  29  33
ATOM     33  O   UNL     1       6.333  -7.126  21.750  0.00  0.00    -0.386 OA
ATOM     34  H   UNL     1       6.440  -7.496  20.860  0.00  0.00    +0.210 HD
ENDBRANCH  29  33
BRANCH  30  35
ATOM     35  O   UNL     1       7.390  -3.590  21.811  0.00  0.00    -0.383 OA
ATOM     36  H   UNL     1       7.076  -3.585  20.881  0.00  0.00    +0.210 HD
ENDBRANCH  30  35
BRANCH  27  37
ATOM     37  C   UNL     1       5.038  -6.699  24.568  0.00  0.00    +0.190 C 
BRANCH  37  38
ATOM     38  O   UNL     1       4.112  -7.467  23.806  0.00  0.00    -0.392 OA
ATOM     39  H   UNL     1       4.588  -8.263  23.508  0.00  0.00    +0.210 HD
ENDBRANCH  37  38
ENDBRANCH  27  37
ENDBRANCH  24  25
ENDBRANCH   6  24
BRANCH   1  40
ATOM     40  O   UNL     1       8.747   3.410  24.662  0.00  0.00    -0.461 OA
BRANCH  40  44
ATOM     41  C   UNL     1       4.953   5.339  25.558  0.00  0.00    +0.041 C 
ATOM     42  C   UNL     1       5.145   3.862  25.228  0.00  0.00    +0.150 C 
ATOM     43  O   UNL     1       6.503   3.440  25.387  0.00  0.00    -0.334 OA
ATOM     44  C   UNL     1       7.430   3.934  24.412  0.00  0.00    +0.339 C 
ATOM     45  C   UNL     1       7.013   3.503  22.987  0.00  0.00    +0.214 C 
ATOM     46  C   UNL     1       5.540   3.841  22.702  0.00  0.00    +0.180 C 
ATOM     47  C   UNL     1       4.623   3.417  23.855  0.00  0.00    +0.174 C 
BRANCH  47  48
ATOM     48  O   UNL     1       4.544   1.980  23.857  0.00  0.00    -0.387 OA
ATOM     49  H   UNL     1       3.601   1.729  23.797  0.00  0.00    +0.210 HD
ENDBRANCH  47  48
BRANCH  46  50
ATOM     50  O   UNL     1       5.392   5.230  22.369  0.00  0.00    -0.386 OA
ATOM     51  H   UNL     1       5.230   5.338  21.419  0.00  0.00    +0.210 HD
ENDBRANCH  46  50
BRANCH  45  52
ATOM     52  O   UNL     1       7.848   4.129  21.997  0.00  0.00    -0.383 OA
ATOM     53  H   UNL     1       7.910   5.079  22.220  0.00  0.00    +0.210 HD
ENDBRANCH  45  52
ENDBRANCH  40  44
ENDBRANCH   1  40
TORSDOF 16
ENDMDL
MODEL 4
REMARK VINA RESULT:      -7.3      2.329      4.234
REMARK  Name = 
REMARK  17 active torsions:
REMARK  status: ('A' for Active; 'I' for Inactive)
REMARK    1  A    between atoms: C_1  and  C_2
REMARK    2  A    between atoms: C_4  and  O_53
REMARK    3  A    between atoms: C_6  and  O_52
REMARK    4  A    between atoms: C_8  and  O_51
REMARK    5  A    between atoms: C_10  and  O_13
REMARK    6  A    between atoms: O_13  and  C_14
REMARK    7  A    between atoms: C_16  and  O_50
REMARK    8  A    between atoms: C_21  and  C_42
REMARK    9  A    between atoms: C_22  and  O_25
REMARK   10  A    between atoms: O_25  and  C_26
REMARK   11  A    between atoms: C_28  and  O_41
REMARK   12  A    between atoms: C_30  and  O_40
REMARK   13  A    between atoms: C_32  and  O_39
REMARK   14  A    between atoms: C_34  and  C_37
REMARK   15  A    between atoms: C_37  and  O_38
REMARK   16  A    between atoms: C_44  and  O_49
REMARK   17  A    between atoms: C_45  and  O_48
REMARK                            x       y       z     vdW  Elec       q    Type
REMARK                         _______ _______ _______ _____ _____    ______ ____
ROOT
ATOM      1  C   UNL     1       9.311  -1.883  24.810  0.00  0.00    +0.131 A 
ATOM      2  C   UNL     1       8.201  -1.633  25.608  0.00  0.00    +0.093 A 
ATOM      3  C   UNL     1       7.338  -2.674  25.962  0.00  0.00    +0.147 A 
ATOM      4  O   UNL     1       6.273  -2.306  26.730  0.00  0.00    -0.451 OA
ATOM      5  C   UNL     1       5.259  -3.212  26.973  0.00  0.00    +0.181 A 
ATOM      6  C   UNL     1       5.305  -4.523  26.641  0.00  0.00    +0.214 A 
ATOM      7  C   UNL     1       6.572  -4.998  25.962  0.00  0.00    +0.238 A 
ATOM      8  O   UNL     1       6.756  -6.196  25.774  0.00  0.00    -0.283 OA
ATOM      9  C   UNL     1       7.565  -3.978  25.550  0.00  0.00    +0.109 A 
ATOM     10  C   UNL     1       8.706  -4.237  24.774  0.00  0.00    +0.135 A 
ATOM     11  C   UNL     1       9.569  -3.197  24.410  0.00  0.00    +0.092 A 
ENDROOT
BRANCH   5  12
ATOM     12  C   UNL     1       4.156  -2.481  27.613  0.00  0.00    +0.025 A 
ATOM     13  C   UNL     1       4.180  -2.296  29.008  0.00  0.00    +0.015 A 
ATOM     14  C   UNL     1       3.254  -1.455  29.623  0.00  0.00    +0.050 A 
ATOM     15  C   UNL     1       2.331  -0.780  28.837  0.00  0.00    +0.158 A 
ATOM     16  C   UNL     1       2.267  -0.994  27.462  0.00  0.00    +0.159 A 
ATOM     17  C   UNL     1       3.174  -1.844  26.838  0.00  0.00    +0.060 A 
BRANCH  15  18
ATOM     18  O   UNL     1       1.507   0.133  29.428  0.00  0.00    -0.503 OA
ATOM     19  H   UNL     1       1.857   0.235  30.335  0.00  0.00    +0.292 HD
ENDBRANCH  15  18
BRANCH  16  20
ATOM     20  O   UNL     1       1.304  -0.322  26.762  0.00  0.00    -0.503 OA
ATOM     21  H   UNL     1       0.778   0.202  27.392  0.00  0.00    +0.292 HD
ENDBRANCH  16  20
ENDBRANCH   5  12
BRANCH  10  22
ATOM     22  O   UNL     1       8.994  -5.500  24.345  0.00  0.00    -0.506 OA
ATOM     23  H   UNL     1       9.255  -5.492  23.412  0.00  0.00    +0.292 HD
ENDBRANCH  10  22
BRANCH   6  24
ATOM     24  O   UNL     1       4.355  -5.505  26.827  0.00  0.00    -0.453 OA
BRANCH  24  25
ATOM     25  C   UNL     1       3.214  -5.692  25.984  0.00  0.00    +0.340 C 
ATOM     26  O   UNL     1       3.259  -4.738  24.918  0.00  0.00    -0.331 OA
ATOM     27  C   UNL     1       2.155  -4.787  23.990  0.00  0.00    +0.179 C 
ATOM     28  C   UNL     1       2.008  -6.195  23.372  0.00  0.00    +0.177 C 
ATOM     29  C   UNL     1       2.009  -7.300  24.450  0.00  0.00    +0.180 C 
ATOM     30  C   UNL     1       3.201  -7.127  25.406  0.00  0.00    +0.214 C 
BRANCH  28  31
ATOM     31  O   UNL     1       3.108  -6.392  22.469  0.00  0.00    -0.386 OA
ATOM     32  H   UNL     1       3.530  -7.243  22.684  0.00  0.00    +0.210 HD
ENDBRANCH  28  31
BRANCH  29  33
ATOM     33  O   UNL     1       0.743  -7.354  25.114  0.00  0.00    -0.386 OA
ATOM     34  H   UNL     1       0.742  -6.798  25.910  0.00  0.00    +0.210 HD
ENDBRANCH  29  33
BRANCH  30  35
ATOM     35  O   UNL     1       4.408  -7.418  24.681  0.00  0.00    -0.383 OA
ATOM     36  H   UNL     1       5.144  -7.007  25.183  0.00  0.00    +0.210 HD
ENDBRANCH  30  35
BRANCH  27  37
ATOM     37  C   UNL     1       0.816  -4.273  24.561  0.00  0.00    +0.190 C 
BRANCH  37  38
ATOM     38  O   UNL     1       0.865  -2.880  24.852  0.00  0.00    -0.392 OA
ATOM     39  H   UNL     1       0.416  -2.756  25.707  0.00  0.00    +0.210 HD
ENDBRANCH  37  38
ENDBRANCH  27  37
ENDBRANCH  24  25
ENDBRANCH   6  24
BRANCH   1  40
ATOM     40  O   UNL     1      10.189  -0.944  24.346  0.00  0.00    -0.461 OA
BRANCH  40  44
ATOM     41  C   UNL     1       9.042   3.245  24.116  0.00  0.00    +0.041 C 
ATOM     42  C   UNL     1       8.082   2.062  24.196  0.00  0.00    +0.150 C 
ATOM     43  O   UNL     1       8.721   0.873  24.671  0.00  0.00    -0.334 OA
ATOM     44  C   UNL     1       9.646   0.256  23.766  0.00  0.00    +0.339 C 
ATOM     45  C   UNL     1       8.946  -0.135  22.444  0.00  0.00    +0.214 C 
ATOM     46  C   UNL     1       8.157   1.046  21.851  0.00  0.00    +0.180 C 
ATOM     47  C   UNL     1       7.303   1.752  22.911  0.00  0.00    +0.174 C 
BRANCH  47  48
ATOM     48  O   UNL     1       6.209   0.882  23.255  0.00  0.00    -0.387 OA
ATOM     49  H   UNL     1       6.456   0.392  24.064  0.00  0.00    +0.210 HD
ENDBRANCH  47  48
BRANCH  46  50
ATOM     50  O   UNL     1       9.036   1.952  21.166  0.00  0.00    -0.386 OA
ATOM     51  H   UNL     1       9.282   1.598  20.297  0.00  0.00    +0.210 HD
ENDBRANCH  46  50
BRANCH  45  52
ATOM     52  O   UNL     1       9.901  -0.605  21.477  0.00  0.00    -0.383 OA
ATOM     53  H   UNL     1      10.755  -0.172  21.671  0.00  0.00    +0.210 HD
ENDBRANCH  45  52
ENDBRANCH  40  44
ENDBRANCH   1  40
TORSDOF 16
ENDMDL
MODEL 5
REMARK VINA RESULT:      -7.2      1.754      4.166
REMARK  Name = 
REMARK  17 active torsions:
REMARK  status: ('A' for Active; 'I' for Inactive)
REMARK    1  A    between atoms: C_1  and  C_2
REMARK    2  A    between atoms: C_4  and  O_53
REMARK    3  A    between atoms: C_6  and  O_52
REMARK    4  A    between atoms: C_8  and  O_51
REMARK    5  A    between atoms: C_10  and  O_13
REMARK    6  A    between atoms: O_13  and  C_14
REMARK    7  A    between atoms: C_16  and  O_50
REMARK    8  A    between atoms: C_21  and  C_42
REMARK    9  A    between atoms: C_22  and  O_25
REMARK   10  A    between atoms: O_25  and  C_26
REMARK   11  A    between atoms: C_28  and  O_41
REMARK   12  A    between atoms: C_30  and  O_40
REMARK   13  A    between atoms: C_32  and  O_39
REMARK   14  A    between atoms: C_34  and  C_37
REMARK   15  A    between atoms: C_37  and  O_38
REMARK   16  A    between atoms: C_44  and  O_49
REMARK   17  A    between atoms: C_45  and  O_48
REMARK                            x       y       z     vdW  Elec       q    Type
REMARK                         _______ _______ _______ _____ _____    ______ ____
ROOT
ATOM      1  C   UNL     1       8.059   1.225  22.862  0.00  0.00    +0.131 A 
ATOM      2  C   UNL     1       7.116   0.208  22.781  0.00  0.00    +0.093 A 
ATOM      3  C   UNL     1       7.092  -0.810  23.738  0.00  0.00    +0.147 A 
ATOM      4  O   UNL     1       6.137  -1.764  23.544  0.00  0.00    -0.451 OA
ATOM      5  C   UNL     1       6.150  -2.911  24.313  0.00  0.00    +0.181 A 
ATOM      6  C   UNL     1       6.953  -3.108  25.386  0.00  0.00    +0.214 A 
ATOM      7  C   UNL     1       7.886  -1.971  25.741  0.00  0.00    +0.238 A 
ATOM      8  O   UNL     1       8.528  -2.006  26.785  0.00  0.00    -0.283 OA
ATOM      9  C   UNL     1       7.985  -0.831  24.799  0.00  0.00    +0.109 A 
ATOM     10  C   UNL     1       8.913   0.217  24.902  0.00  0.00    +0.135 A 
ATOM     11  C   UNL     1       8.947   1.234  23.941  0.00  0.00    +0.092 A 
ENDROOT
BRANCH   5  12
ATOM     12  C   UNL     1       5.173  -3.844  23.734  0.00  0.00    +0.025 A 
ATOM     13  C   UNL     1       5.636  -4.909  22.939  0.00  0.00    +0.015 A 
ATOM     14  C   UNL     1       4.760  -5.914  22.529  0.00  0.00    +0.050 A 
ATOM     15  C   UNL     1       3.437  -5.864  22.942  0.00  0.00    +0.158 A 
ATOM     16  C   UNL     1       2.958  -4.790  23.687  0.00  0.00    +0.159 A 
ATOM     17  C   UNL     1       3.817  -3.772  24.089  0.00  0.00    +0.060 A 
BRANCH  15  18
ATOM     18  O   UNL     1       2.614  -6.910  22.640  0.00  0.00    -0.503 OA
ATOM     19  H   UNL     1       3.147  -7.709  22.825  0.00  0.00    +0.292 HD
ENDBRANCH  15  18
BRANCH  16  20
ATOM     20  O   UNL     1       1.632  -4.793  24.023  0.00  0.00    -0.503 OA
ATOM     21  H   UNL     1       1.325  -5.717  24.043  0.00  0.00    +0.292 HD
ENDBRANCH  16  20
ENDBRANCH   5  12
BRANCH  10  22
ATOM     22  O   UNL     1       9.812   0.263  25.928  0.00  0.00    -0.506 OA
ATOM     23  H   UNL     1      10.675   0.571  25.612  0.00  0.00    +0.292 HD
ENDBRANCH  10  22
BRANCH   6  24
ATOM     24  O   UNL     1       7.053  -4.208  26.211  0.00  0.00    -0.453 OA
BRANCH  24  25
ATOM     25  C   UNL     1       6.021  -4.646  27.100  0.00  0.00    +0.340 C 
ATOM     26  O   UNL     1       5.248  -5.661  26.454  0.00  0.00    -0.331 OA
ATOM     27  C   UNL     1       4.147  -6.190  27.222  0.00  0.00    +0.179 C 
ATOM     28  C   UNL     1       4.629  -6.742  28.582  0.00  0.00    +0.177 C 
ATOM     29  C   UNL     1       5.525  -5.731  29.329  0.00  0.00    +0.180 C 
ATOM     30  C   UNL     1       6.636  -5.202  28.406  0.00  0.00    +0.214 C 
BRANCH  28  31
ATOM     31  O   UNL     1       5.364  -7.950  28.326  0.00  0.00    -0.386 OA
ATOM     32  H   UNL     1       6.266  -7.705  28.051  0.00  0.00    +0.210 HD
ENDBRANCH  28  31
BRANCH  29  33
ATOM     33  O   UNL     1       4.731  -4.699  29.920  0.00  0.00    -0.386 OA
ATOM     34  H   UNL     1       3.844  -5.024  30.143  0.00  0.00    +0.210 HD
ENDBRANCH  29  33
BRANCH  30  35
ATOM     35  O   UNL     1       7.554  -6.277  28.144  0.00  0.00    -0.383 OA
ATOM     36  H   UNL     1       7.601  -6.375  27.168  0.00  0.00    +0.210 HD
ENDBRANCH  30  35
BRANCH  27  37
ATOM     37  C   UNL     1       2.960  -5.218  27.392  0.00  0.00    +0.190 C 
BRANCH  37  38
ATOM     38  O   UNL     1       2.211  -5.498  28.570  0.00  0.00    -0.392 OA
ATOM     39  H   UNL     1       1.573  -6.196  28.337  0.00  0.00    +0.210 HD
ENDBRANCH  37  38
ENDBRANCH  27  37
ENDBRANCH  24  25
ENDBRANCH   6  24
BRANCH   1  40
ATOM     40  O   UNL     1       8.224   2.236  21.957  0.00  0.00    -0.461 OA
BRANCH  40  44
ATOM     41  C   UNL     1       8.880   6.378  23.112  0.00  0.00    +0.041 C 
ATOM     42  C   UNL     1       8.400   5.261  24.034  0.00  0.00    +0.150 C 
ATOM     43  O   UNL     1       8.670   3.961  23.502  0.00  0.00    -0.334 OA
ATOM     44  C   UNL     1       7.881   3.571  22.371  0.00  0.00    +0.339 C 
ATOM     45  C   UNL     1       6.374   3.586  22.718  0.00  0.00    +0.214 C 
ATOM     46  C   UNL     1       5.957   4.917  23.366  0.00  0.00    +0.180 C 
ATOM     47  C   UNL     1       6.930   5.347  24.469  0.00  0.00    +0.174 C 
BRANCH  47  48
ATOM     48  O   UNL     1       6.749   4.465  25.592  0.00  0.00    -0.387 OA
ATOM     49  H   UNL     1       6.070   3.805  25.352  0.00  0.00    +0.210 HD
ENDBRANCH  47  48
BRANCH  46  50
ATOM     50  O   UNL     1       5.778   5.934  22.368  0.00  0.00    -0.386 OA
ATOM     51  H   UNL     1       6.554   6.514  22.328  0.00  0.00    +0.210 HD
ENDBRANCH  46  50
BRANCH  45  52
ATOM     52  O   UNL     1       5.576   3.353  21.545  0.00  0.00    -0.383 OA
ATOM     53  H   UNL     1       5.981   2.612  21.053  0.00  0.00    +0.210 HD
ENDBRANCH  45  52
ENDBRANCH  40  44
ENDBRANCH   1  40
TORSDOF 16
ENDMDL
MODEL 6
REMARK VINA RESULT:      -7.2      1.827      2.263
REMARK  Name = 
REMARK  17 active torsions:
REMARK  status: ('A' for Active; 'I' for Inactive)
REMARK    1  A    between atoms: C_1  and  C_2
REMARK    2  A    between atoms: C_4  and  O_53
REMARK    3  A    between atoms: C_6  and  O_52
REMARK    4  A    between atoms: C_8  and  O_51
REMARK    5  A    between atoms: C_10  and  O_13
REMARK    6  A    between atoms: O_13  and  C_14
REMARK    7  A    between atoms: C_16  and  O_50
REMARK    8  A    between atoms: C_21  and  C_42
REMARK    9  A    between atoms: C_22  and  O_25
REMARK   10  A    between atoms: O_25  and  C_26
REMARK   11  A    between atoms: C_28  and  O_41
REMARK   12  A    between atoms: C_30  and  O_40
REMARK   13  A    between atoms: C_32  and  O_39
REMARK   14  A    between atoms: C_34  and  C_37
REMARK   15  A    between atoms: C_37  and  O_38
REMARK   16  A    between atoms: C_44  and  O_49
REMARK   17  A    between atoms: C_45  and  O_48
REMARK                            x       y       z     vdW  Elec       q    Type
REMARK                         _______ _______ _______ _____ _____    ______ ____
ROOT
ATOM      1  C   UNL     1       9.978   1.514  23.459  0.00  0.00    +0.131 A 
ATOM      2  C   UNL     1       9.068   1.181  24.455  0.00  0.00    +0.093 A 
ATOM      3  C   UNL     1       8.210   0.089  24.291  0.00  0.00    +0.147 A 
ATOM      4  O   UNL     1       7.348  -0.129  25.324  0.00  0.00    -0.451 OA
ATOM      5  C   UNL     1       6.332  -1.055  25.183  0.00  0.00    +0.181 A 
ATOM      6  C   UNL     1       6.209  -1.907  24.139  0.00  0.00    +0.214 A 
ATOM      7  C   UNL     1       7.278  -1.816  23.071  0.00  0.00    +0.238 A 
ATOM      8  O   UNL     1       7.327  -2.655  22.178  0.00  0.00    -0.283 OA
ATOM      9  C   UNL     1       8.249  -0.699  23.152  0.00  0.00    +0.109 A 
ATOM     10  C   UNL     1       9.194  -0.385  22.161  0.00  0.00    +0.135 A 
ATOM     11  C   UNL     1      10.048   0.712  22.318  0.00  0.00    +0.092 A 
ENDROOT
BRANCH   5  12
ATOM     12  C   UNL     1       5.436  -0.909  26.338  0.00  0.00    +0.025 A 
ATOM     13  C   UNL     1       4.599   0.221  26.414  0.00  0.00    +0.015 A 
ATOM     14  C   UNL     1       3.610   0.300  27.394  0.00  0.00    +0.050 A 
ATOM     15  C   UNL     1       3.443  -0.762  28.270  0.00  0.00    +0.158 A 
ATOM     16  C   UNL     1       4.297  -1.862  28.236  0.00  0.00    +0.159 A 
ATOM     17  C   UNL     1       5.299  -1.946  27.274  0.00  0.00    +0.060 A 
BRANCH  15  18
ATOM     18  O   UNL     1       2.399  -0.733  29.147  0.00  0.00    -0.503 OA
ATOM     19  H   UNL     1       2.091  -1.660  29.199  0.00  0.00    +0.292 HD
ENDBRANCH  15  18
BRANCH  16  20
ATOM     20  O   UNL     1       4.094  -2.850  29.158  0.00  0.00    -0.503 OA
ATOM     21  H   UNL     1       4.789  -2.783  29.836  0.00  0.00    +0.292 HD
ENDBRANCH  16  20
ENDBRANCH   5  12
BRANCH  10  22
ATOM     22  O   UNL     1       9.292  -1.127  21.021  0.00  0.00    -0.506 OA
ATOM     23  H   UNL     1       9.782  -0.643  20.339  0.00  0.00    +0.292 HD
ENDBRANCH  10  22
BRANCH   6  24
ATOM     24  O   UNL     1       5.239  -2.856  23.895  0.00  0.00    -0.453 OA
BRANCH  24  25
ATOM     25  C   UNL     1       5.011  -4.005  24.715  0.00  0.00    +0.340 C 
ATOM     26  O   UNL     1       3.752  -4.588  24.364  0.00  0.00    -0.331 OA
ATOM     27  C   UNL     1       3.369  -5.752  25.126  0.00  0.00    +0.179 C 
ATOM     28  C   UNL     1       4.450  -6.852  25.045  0.00  0.00    +0.177 C 
ATOM     29  C   UNL     1       5.858  -6.300  25.353  0.00  0.00    +0.180 C 
ATOM     30  C   UNL     1       6.143  -5.040  24.519  0.00  0.00    +0.214 C 
BRANCH  28  31
ATOM     31  O   UNL     1       4.419  -7.397  23.716  0.00  0.00    -0.386 OA
ATOM     32  H   UNL     1       3.649  -7.022  23.251  0.00  0.00    +0.210 HD
ENDBRANCH  28  31
BRANCH  29  33
ATOM     33  O   UNL     1       6.024  -6.106  26.761  0.00  0.00    -0.386 OA
ATOM     34  H   UNL     1       6.530  -6.833  27.157  0.00  0.00    +0.210 HD
ENDBRANCH  29  33
BRANCH  30  35
ATOM     35  O   UNL     1       6.272  -5.430  23.141  0.00  0.00    -0.383 OA
ATOM     36  H   UNL     1       5.453  -5.135  22.688  0.00  0.00    +0.210 HD
ENDBRANCH  30  35
BRANCH  27  37
ATOM     37  C   UNL     1       2.967  -5.456  26.587  0.00  0.00    +0.190 C 
BRANCH  37  38
ATOM     38  O   UNL     1       3.125  -6.599  27.421  0.00  0.00    -0.392 OA
ATOM     39  H   UNL     1       2.232  -6.863  27.707  0.00  0.00    +0.210 HD
ENDBRANCH  37  38
ENDBRANCH  27  37
ENDBRANCH  24  25
ENDBRANCH   6  24
BRANCH   1  40
ATOM     40  O   UNL     1      10.820   2.591  23.476  0.00  0.00    -0.461 OA
BRANCH  40  44
ATOM     41  C   UNL     1       8.231   5.200  25.800  0.00  0.00    +0.041 C 
ATOM     42  C   UNL     1       8.300   5.141  24.278  0.00  0.00    +0.150 C 
ATOM     43  O   UNL     1       8.912   3.936  23.806  0.00  0.00    -0.334 OA
ATOM     44  C   UNL     1      10.324   3.825  24.025  0.00  0.00    +0.339 C 
ATOM     45  C   UNL     1      11.082   4.985  23.340  0.00  0.00    +0.214 C 
ATOM     46  C   UNL     1      10.480   6.351  23.711  0.00  0.00    +0.180 C 
ATOM     47  C   UNL     1       8.951   6.352  23.596  0.00  0.00    +0.174 C 
BRANCH  47  48
ATOM     48  O   UNL     1       8.608   6.310  22.199  0.00  0.00    -0.387 OA
ATOM     49  H   UNL     1       8.013   5.549  22.056  0.00  0.00    +0.210 HD
ENDBRANCH  47  48
BRANCH  46  50
ATOM     50  O   UNL     1      10.930   6.770  25.008  0.00  0.00    -0.386 OA
ATOM     51  H   UNL     1      10.759   6.081  25.669  0.00  0.00    +0.210 HD
ENDBRANCH  46  50
BRANCH  45  52
ATOM     52  O   UNL     1      12.476   4.965  23.691  0.00  0.00    -0.383 OA
ATOM     53  H   UNL     1      12.875   4.176  23.275  0.00  0.00    +0.210 HD
ENDBRANCH  45  52
ENDBRANCH  40  44
ENDBRANCH   1  40
TORSDOF 16
ENDMDL
MODEL 7
REMARK VINA RESULT:      -7.2      2.729      9.553
REMARK  Name = 
REMARK  17 active torsions:
REMARK  status: ('A' for Active; 'I' for Inactive)
REMARK    1  A    between atoms: C_1  and  C_2
REMARK    2  A    between atoms: C_4  and  O_53
REMARK    3  A    between atoms: C_6  and  O_52
REMARK    4  A    between atoms: C_8  and  O_51
REMARK    5  A    between atoms: C_10  and  O_13
REMARK    6  A    between atoms: O_13  and  C_14
REMARK    7  A    between atoms: C_16  and  O_50
REMARK    8  A    between atoms: C_21  and  C_42
REMARK    9  A    between atoms: C_22  and  O_25
REMARK   10  A    between atoms: O_25  and  C_26
REMARK   11  A    between atoms: C_28  and  O_41
REMARK   12  A    between atoms: C_30  and  O_40
REMARK   13  A    between atoms: C_32  and  O_39
REMARK   14  A    between atoms: C_34  and  C_37
REMARK   15  A    between atoms: C_37  and  O_38
REMARK   16  A    between atoms: C_44  and  O_49
REMARK   17  A    between atoms: C_45  and  O_48
REMARK                            x       y       z     vdW  Elec       q    Type
REMARK                         _______ _______ _______ _____ _____    ______ ____
ROOT
ATOM      1  C   UNL     1       5.647  -5.571  26.106  0.00  0.00    +0.131 A 
ATOM      2  C   UNL     1       5.445  -4.250  26.490  0.00  0.00    +0.093 A 
ATOM      3  C   UNL     1       6.339  -3.254  26.089  0.00  0.00    +0.147 A 
ATOM      4  O   UNL     1       6.051  -2.001  26.543  0.00  0.00    -0.451 OA
ATOM      5  C   UNL     1       6.969  -0.983  26.371  0.00  0.00    +0.181 A 
ATOM      6  C   UNL     1       8.094  -1.082  25.625  0.00  0.00    +0.214 A 
ATOM      7  C   UNL     1       8.332  -2.413  24.945  0.00  0.00    +0.238 A 
ATOM      8  O   UNL     1       9.240  -2.532  24.129  0.00  0.00    -0.283 OA
ATOM      9  C   UNL     1       7.435  -3.541  25.290  0.00  0.00    +0.109 A 
ATOM     10  C   UNL     1       7.619  -4.868  24.870  0.00  0.00    +0.135 A 
ATOM     11  C   UNL     1       6.731  -5.871  25.277  0.00  0.00    +0.092 A 
ENDROOT
BRANCH   5  12
ATOM     12  C   UNL     1       6.503   0.170  27.153  0.00  0.00    +0.025 A 
ATOM     13  C   UNL     1       5.120   0.411  27.255  0.00  0.00    +0.015 A 
ATOM     14  C   UNL     1       4.637   1.379  28.135  0.00  0.00    +0.050 A 
ATOM     15  C   UNL     1       5.535   2.077  28.928  0.00  0.00    +0.158 A 
ATOM     16  C   UNL     1       6.908   1.882  28.799  0.00  0.00    +0.159 A 
ATOM     17  C   UNL     1       7.405   0.931  27.914  0.00  0.00    +0.060 A 
BRANCH  15  18
ATOM     18  O   UNL     1       5.050   2.936  29.871  0.00  0.00    -0.503 OA
ATOM     19  H   UNL     1       5.389   3.814  29.606  0.00  0.00    +0.292 HD
ENDBRANCH  15  18
BRANCH  16  20
ATOM     20  O   UNL     1       7.731   2.637  29.588  0.00  0.00    -0.503 OA
ATOM     21  H   UNL     1       8.364   3.101  29.012  0.00  0.00    +0.292 HD
ENDBRANCH  16  20
ENDBRANCH   5  12
BRANCH  10  22
ATOM     22  O   UNL     1       8.670  -5.216  24.073  0.00  0.00    -0.506 OA
ATOM     23  H   UNL     1       8.892  -6.152  24.190  0.00  0.00    +0.292 HD
ENDBRANCH  10  22
BRANCH   6  24
ATOM     24  O   UNL     1       9.075  -0.140  25.395  0.00  0.00    -0.453 OA
BRANCH  24  25
ATOM     25  C   UNL     1       9.031   0.830  24.345  0.00  0.00    +0.340 C 
ATOM     26  O   UNL     1       9.037   2.141  24.918  0.00  0.00    -0.331 OA
ATOM     27  C   UNL     1       8.972   3.233  23.977  0.00  0.00    +0.179 C 
ATOM     28  C   UNL     1      10.120   3.151  22.947  0.00  0.00    +0.177 C 
ATOM     29  C   UNL     1      10.228   1.747  22.316  0.00  0.00    +0.180 C 
ATOM     30  C   UNL     1      10.247   0.660  23.404  0.00  0.00    +0.214 C 
BRANCH  28  31
ATOM     31  O   UNL     1      11.342   3.475  23.630  0.00  0.00    -0.386 OA
ATOM     32  H   UNL     1      11.170   3.452  24.588  0.00  0.00    +0.210 HD
ENDBRANCH  28  31
BRANCH  29  33
ATOM     33  O   UNL     1       9.204   1.558  21.334  0.00  0.00    -0.386 OA
ATOM     34  H   UNL     1       8.355   1.341  21.752  0.00  0.00    +0.210 HD
ENDBRANCH  29  33
BRANCH  30  35
ATOM     35  O   UNL     1      11.489   0.761  24.121  0.00  0.00    -0.383 OA
ATOM     36  H   UNL     1      11.266   0.737  25.076  0.00  0.00    +0.210 HD
ENDBRANCH  30  35
BRANCH  27  37
ATOM     37  C   UNL     1       7.601   3.404  23.289  0.00  0.00    +0.190 C 
BRANCH  37  38
ATOM     38  O   UNL     1       7.713   4.106  22.055  0.00  0.00    -0.392 OA
ATOM     39  H   UNL     1       7.467   3.478  21.353  0.00  0.00    +0.210 HD
ENDBRANCH  37  38
ENDBRANCH  27  37
ENDBRANCH  24  25
ENDBRANCH   6  24
BRANCH   1  40
ATOM     40  O   UNL     1       4.882  -6.638  26.485  0.00  0.00    -0.461 OA
BRANCH  40  44
ATOM     41  C   UNL     1       0.721  -5.384  26.659  0.00  0.00    +0.041 C 
ATOM     42  C   UNL     1       1.265  -6.732  27.120  0.00  0.00    +0.150 C 
ATOM     43  O   UNL     1       2.680  -6.707  27.328  0.00  0.00    -0.334 OA
ATOM     44  C   UNL     1       3.484  -6.618  26.144  0.00  0.00    +0.339 C 
ATOM     45  C   UNL     1       3.211  -7.813  25.201  0.00  0.00    +0.214 C 
ATOM     46  C   UNL     1       1.706  -7.998  24.944  0.00  0.00    +0.180 C 
ATOM     47  C   UNL     1       0.892  -7.934  26.241  0.00  0.00    +0.174 C 
BRANCH  47  48
ATOM     48  O   UNL     1       1.156  -9.132  26.993  0.00  0.00    -0.387 OA
ATOM     49  H   UNL     1       1.331  -9.854  26.359  0.00  0.00    +0.210 HD
ENDBRANCH  47  48
BRANCH  46  50
ATOM     50  O   UNL     1       1.240  -7.062  23.959  0.00  0.00    -0.386 OA
ATOM     51  H   UNL     1       0.483  -6.558  24.298  0.00  0.00    +0.210 HD
ENDBRANCH  46  50
BRANCH  45  52
ATOM     52  O   UNL     1       3.894  -7.642  23.947  0.00  0.00    -0.383 OA
ATOM     53  H   UNL     1       3.219  -7.451  23.266  0.00  0.00    +0.210 HD
ENDBRANCH  45  52
ENDBRANCH  40  44
ENDBRANCH   1  40
TORSDOF 16
ENDMDL
MODEL 8
REMARK VINA RESULT:      -7.2      2.000      3.127
REMARK  Name = 
REMARK  17 active torsions:
REMARK  status: ('A' for Active; 'I' for Inactive)
REMARK    1  A    between atoms: C_1  and  C_2
REMARK    2  A    between atoms: C_4  and  O_53
REMARK    3  A    between atoms: C_6  and  O_52
REMARK    4  A    between atoms: C_8  and  O_51
REMARK    5  A    between atoms: C_10  and  O_13
REMARK    6  A    between atoms: O_13  and  C_14
REMARK    7  A    between atoms: C_16  and  O_50
REMARK    8  A    between atoms: C_21  and  C_42
REMARK    9  A    between atoms: C_22  and  O_25
REMARK   10  A    between atoms: O_25  and  C_26
REMARK   11  A    between atoms: C_28  and  O_41
REMARK   12  A    between atoms: C_30  and  O_40
REMARK   13  A    between atoms: C_32  and  O_39
REMARK   14  A    between atoms: C_34  and  C_37
REMARK   15  A    between atoms: C_37  and  O_38
REMARK   16  A    between atoms: C_44  and  O_49
REMARK   17  A    between atoms: C_45  and  O_48
REMARK                            x       y       z     vdW  Elec       q    Type
REMARK                         _______ _______ _______ _____ _____    ______ ____
ROOT
ATOM      1  C   UNL     1       9.391   0.309  24.740  0.00  0.00    +0.131 A 
ATOM      2  C   UNL     1       8.278  -0.055  25.487  0.00  0.00    +0.093 A 
ATOM      3  C   UNL     1       7.857  -1.387  25.525  0.00  0.00    +0.147 A 
ATOM      4  O   UNL     1       6.742  -1.620  26.274  0.00  0.00    -0.451 OA
ATOM      5  C   UNL     1       6.130  -2.858  26.222  0.00  0.00    +0.181 A 
ATOM      6  C   UNL     1       6.646  -3.944  25.601  0.00  0.00    +0.214 A 
ATOM      7  C   UNL     1       7.989  -3.757  24.929  0.00  0.00    +0.238 A 
ATOM      8  O   UNL     1       8.594  -4.726  24.484  0.00  0.00    -0.283 OA
ATOM      9  C   UNL     1       8.537  -2.382  24.841  0.00  0.00    +0.109 A 
ATOM     10  C   UNL     1       9.684  -2.022  24.116  0.00  0.00    +0.135 A 
ATOM     11  C   UNL     1      10.104  -0.687  24.068  0.00  0.00    +0.092 A 
ENDROOT
BRANCH   5  12
ATOM     12  C   UNL     1       4.846  -2.747  26.928  0.00  0.00    +0.025 A 
ATOM     13  C   UNL     1       4.771  -3.152  28.274  0.00  0.00    +0.015 A 
ATOM     14  C   UNL     1       3.626  -2.890  29.025  0.00  0.00    +0.050 A 
ATOM     15  C   UNL     1       2.578  -2.198  28.437  0.00  0.00    +0.158 A 
ATOM     16  C   UNL     1       2.621  -1.836  27.092  0.00  0.00    +0.159 A 
ATOM     17  C   UNL     1       3.751  -2.106  26.327  0.00  0.00    +0.060 A 
BRANCH  15  18
ATOM     18  O   UNL     1       1.511  -1.839  29.208  0.00  0.00    -0.503 OA
ATOM     19  H   UNL     1       1.464  -2.524  29.904  0.00  0.00    +0.292 HD
ENDBRANCH  15  18
BRANCH  16  20
ATOM     20  O   UNL     1       1.533  -1.192  26.574  0.00  0.00    -0.503 OA
ATOM     21  H   UNL     1       1.463  -0.319  27.000  0.00  0.00    +0.292 HD
ENDBRANCH  16  20
ENDBRANCH   5  12
BRANCH  10  22
ATOM     22  O   UNL     1      10.406  -2.954  23.430  0.00  0.00    -0.506 OA
ATOM     23  H   UNL     1       9.933  -3.233  22.631  0.00  0.00    +0.292 HD
ENDBRANCH  10  22
BRANCH   6  24
ATOM     24  O   UNL     1       6.121  -5.214  25.482  0.00  0.00    -0.453 OA
BRANCH  24  25
ATOM     25  C   UNL     1       4.733  -5.496  25.284  0.00  0.00    +0.340 C 
ATOM     26  O   UNL     1       4.586  -6.341  24.139  0.00  0.00    -0.331 OA
ATOM     27  C   UNL     1       3.230  -6.697  23.795  0.00  0.00    +0.179 C 
ATOM     28  C   UNL     1       2.511  -7.368  24.986  0.00  0.00    +0.177 C 
ATOM     29  C   UNL     1       2.666  -6.552  26.287  0.00  0.00    +0.180 C 
ATOM     30  C   UNL     1       4.141  -6.192  26.532  0.00  0.00    +0.214 C 
BRANCH  28  31
ATOM     31  O   UNL     1       3.081  -8.675  25.159  0.00  0.00    -0.386 OA
ATOM     32  H   UNL     1       3.045  -8.900  26.106  0.00  0.00    +0.210 HD
ENDBRANCH  28  31
BRANCH  29  33
ATOM     33  O   UNL     1       1.794  -5.418  26.274  0.00  0.00    -0.386 OA
ATOM     34  H   UNL     1       1.399  -5.290  25.397  0.00  0.00    +0.210 HD
ENDBRANCH  29  33
BRANCH  30  35
ATOM     35  O   UNL     1       4.853  -7.400  26.852  0.00  0.00    -0.383 OA
ATOM     36  H   UNL     1       4.770  -7.526  27.822  0.00  0.00    +0.210 HD
ENDBRANCH  30  35
BRANCH  27  37
ATOM     37  C   UNL     1       2.396  -5.540  23.205  0.00  0.00    +0.190 C 
BRANCH  37  38
ATOM     38  O   UNL     1       0.997  -5.777  23.336  0.00  0.00    -0.392 OA
ATOM     39  H   UNL     1       0.710  -6.217  22.517  0.00  0.00    +0.210 HD
ENDBRANCH  37  38
ENDBRANCH  27  37
ENDBRANCH  24  25
ENDBRANCH   6  24
BRANCH   1  40
ATOM     40  O   UNL     1       9.861   1.582  24.574  0.00  0.00    -0.461 OA
BRANCH  40  44
ATOM     41  C   UNL     1       7.187   4.989  24.974  0.00  0.00    +0.041 C 
ATOM     42  C   UNL     1       6.761   3.551  24.699  0.00  0.00    +0.150 C 
ATOM     43  O   UNL     1       7.786   2.607  25.027  0.00  0.00    -0.334 OA
ATOM     44  C   UNL     1       8.926   2.595  24.159  0.00  0.00    +0.339 C 
ATOM     45  C   UNL     1       8.508   2.283  22.703  0.00  0.00    +0.214 C 
ATOM     46  C   UNL     1       7.356   3.191  22.239  0.00  0.00    +0.180 C 
ATOM     47  C   UNL     1       6.237   3.274  23.283  0.00  0.00    +0.174 C 
BRANCH  47  48
ATOM     48  O   UNL     1       5.552   2.008  23.305  0.00  0.00    -0.387 OA
ATOM     49  H   UNL     1       5.492   1.681  22.386  0.00  0.00    +0.210 HD
ENDBRANCH  47  48
BRANCH  46  50
ATOM     50  O   UNL     1       7.850   4.485  21.862  0.00  0.00    -0.386 OA
ATOM     51  H   UNL     1       8.730   4.640  22.240  0.00  0.00    +0.210 HD
ENDBRANCH  46  50
BRANCH  45  52
ATOM     52  O   UNL     1       9.624   2.428  21.807  0.00  0.00    -0.383 OA
ATOM     53  H   UNL     1      10.165   3.175  22.128  0.00  0.00    +0.210 HD
ENDBRANCH  45  52
ENDBRANCH  40  44
ENDBRANCH   1  40
TORSDOF 16
ENDMDL
MODEL 9
REMARK VINA RESULT:      -7.1      2.531      9.202
REMARK  Name = 
REMARK  17 active torsions:
REMARK  status: ('A' for Active; 'I' for Inactive)
REMARK    1  A    between atoms: C_1  and  C_2
REMARK    2  A    between atoms: C_4  and  O_53
REMARK    3  A    between atoms: C_6  and  O_52
REMARK    4  A    between atoms: C_8  and  O_51
REMARK    5  A    between atoms: C_10  and  O_13
REMARK    6  A    between atoms: O_13  and  C_14
REMARK    7  A    between atoms: C_16  and  O_50
REMARK    8  A    between atoms: C_21  and  C_42
REMARK    9  A    between atoms: C_22  and  O_25
REMARK   10  A    between atoms: O_25  and  C_26
REMARK   11  A    between atoms: C_28  and  O_41
REMARK   12  A    between atoms: C_30  and  O_40
REMARK   13  A    between atoms: C_32  and  O_39
REMARK   14  A    between atoms: C_34  and  C_37
REMARK   15  A    between atoms: C_37  and  O_38
REMARK   16  A    between atoms: C_44  and  O_49
REMARK   17  A    between atoms: C_45  and  O_48
REMARK                            x       y       z     vdW  Elec       q    Type
REMARK                         _______ _______ _______ _____ _____    ______ ____
ROOT
ATOM      1  C   UNL     1       6.706  -5.407  26.809  0.00  0.00    +0.131 A 
ATOM      2  C   UNL     1       6.356  -4.095  27.106  0.00  0.00    +0.093 A 
ATOM      3  C   UNL     1       7.101  -3.031  26.590  0.00  0.00    +0.147 A 
ATOM      4  O   UNL     1       6.676  -1.791  26.965  0.00  0.00    -0.451 OA
ATOM      5  C   UNL     1       7.451  -0.686  26.674  0.00  0.00    +0.181 A 
ATOM      6  C   UNL     1       8.550  -0.704  25.883  0.00  0.00    +0.214 A 
ATOM      7  C   UNL     1       8.926  -2.045  25.291  0.00  0.00    +0.238 A 
ATOM      8  O   UNL     1       9.808  -2.116  24.443  0.00  0.00    -0.283 OA
ATOM      9  C   UNL     1       8.192  -3.244  25.761  0.00  0.00    +0.109 A 
ATOM     10  C   UNL     1       8.523  -4.567  25.430  0.00  0.00    +0.135 A 
ATOM     11  C   UNL     1       7.785  -5.636  25.952  0.00  0.00    +0.092 A 
ENDROOT
BRANCH   5  12
ATOM     12  C   UNL     1       6.875   0.460  27.392  0.00  0.00    +0.025 A 
ATOM     13  C   UNL     1       7.401   0.811  28.650  0.00  0.00    +0.015 A 
ATOM     14  C   UNL     1       7.008   1.995  29.272  0.00  0.00    +0.050 A 
ATOM     15  C   UNL     1       6.118   2.835  28.620  0.00  0.00    +0.158 A 
ATOM     16  C   UNL     1       5.554   2.475  27.399  0.00  0.00    +0.159 A 
ATOM     17  C   UNL     1       5.925   1.288  26.775  0.00  0.00    +0.060 A 
BRANCH  15  18
ATOM     18  O   UNL     1       5.830   4.048  29.177  0.00  0.00    -0.503 OA
ATOM     19  H   UNL     1       6.696   4.407  29.453  0.00  0.00    +0.292 HD
ENDBRANCH  15  18
BRANCH  16  20
ATOM     20  O   UNL     1       4.654   3.338  26.838  0.00  0.00    -0.503 OA
ATOM     21  H   UNL     1       5.033   4.234  26.864  0.00  0.00    +0.292 HD
ENDBRANCH  16  20
ENDBRANCH   5  12
BRANCH  10  22
ATOM     22  O   UNL     1       9.578  -4.845  24.610  0.00  0.00    -0.506 OA
ATOM     23  H   UNL     1      10.356  -4.328  24.867  0.00  0.00    +0.292 HD
ENDBRANCH  10  22
BRANCH   6  24
ATOM     24  O   UNL     1       9.394   0.330  25.538  0.00  0.00    -0.453 OA
BRANCH  24  25
ATOM     25  C   UNL     1       9.437   0.937  24.244  0.00  0.00    +0.340 C 
ATOM     26  O   UNL     1       8.281   0.537  23.501  0.00  0.00    -0.331 OA
ATOM     27  C   UNL     1       8.193   1.055  22.157  0.00  0.00    +0.179 C 
ATOM     28  C   UNL     1       8.262   2.598  22.148  0.00  0.00    +0.177 C 
ATOM     29  C   UNL     1       9.452   3.126  22.978  0.00  0.00    +0.180 C 
ATOM     30  C   UNL     1       9.473   2.478  24.373  0.00  0.00    +0.214 C 
BRANCH  28  31
ATOM     31  O   UNL     1       7.029   3.093  22.693  0.00  0.00    -0.386 OA
ATOM     32  H   UNL     1       7.122   4.053  22.835  0.00  0.00    +0.210 HD
ENDBRANCH  28  31
BRANCH  29  33
ATOM     33  O   UNL     1      10.677   2.970  22.255  0.00  0.00    -0.386 OA
ATOM     34  H   UNL     1      10.950   3.807  21.846  0.00  0.00    +0.210 HD
ENDBRANCH  29  33
BRANCH  30  35
ATOM     35  O   UNL     1       8.347   2.974  25.117  0.00  0.00    -0.383 OA
ATOM     36  H   UNL     1       8.270   3.930  24.907  0.00  0.00    +0.210 HD
ENDBRANCH  30  35
BRANCH  27  37
ATOM     37  C   UNL     1       9.199   0.434  21.165  0.00  0.00    +0.190 C 
BRANCH  37  38
ATOM     38  O   UNL     1       9.517  -0.912  21.507  0.00  0.00    -0.392 OA
ATOM     39  H   UNL     1       9.204  -1.050  22.418  0.00  0.00    +0.210 HD
ENDBRANCH  37  38
ENDBRANCH  27  37
ENDBRANCH  24  25
ENDBRANCH   6  24
BRANCH   1  40
ATOM     40  O   UNL     1       6.097  -6.527  27.302  0.00  0.00    -0.461 OA
BRANCH  40  44
ATOM     41  C   UNL     1       2.994  -7.522  24.421  0.00  0.00    +0.041 C 
ATOM     42  C   UNL     1       3.131  -6.195  25.160  0.00  0.00    +0.150 C 
ATOM     43  O   UNL     1       4.440  -6.007  25.706  0.00  0.00    -0.334 OA
ATOM     44  C   UNL     1       4.775  -6.837  26.826  0.00  0.00    +0.339 C 
ATOM     45  C   UNL     1       3.788  -6.613  27.995  0.00  0.00    +0.214 C 
ATOM     46  C   UNL     1       2.326  -6.721  27.529  0.00  0.00    +0.180 C 
ATOM     47  C   UNL     1       2.075  -5.926  26.242  0.00  0.00    +0.174 C 
BRANCH  47  48
ATOM     48  O   UNL     1       2.121  -4.525  26.566  0.00  0.00    -0.387 OA
ATOM     49  H   UNL     1       1.924  -4.429  27.519  0.00  0.00    +0.210 HD
ENDBRANCH  47  48
BRANCH  46  50
ATOM     50  O   UNL     1       1.931  -8.096  27.407  0.00  0.00    -0.386 OA
ATOM     51  H   UNL     1       1.162  -8.283  27.968  0.00  0.00    +0.210 HD
ENDBRANCH  46  50
BRANCH  45  52
ATOM     52  O   UNL     1       4.024  -7.556  29.054  0.00  0.00    -0.383 OA
ATOM     53  H   UNL     1       4.296  -8.400  28.643  0.00  0.00    +0.210 HD
ENDBRANCH  45  52
ENDBRANCH  40  44
ENDBRANCH   1  40
TORSDOF 16
ENDMDL
