MODEL 1
REMARK VINA RESULT:      -7.3      0.000      0.000
REMARK  Name = 
REMARK  14 active torsions:
REMARK  status: ('A' for Active; 'I' for Inactive)
REMARK    1  A    between atoms: C_1  and  C_2
REMARK    2  A    between atoms: C_2  and  O_4
REMARK    3  A    between atoms: O_4  and  C_5
REMARK    4  A    between atoms: C_5  and  C_6
REMARK    5  A    between atoms: C_8  and  O_39
REMARK    6  A    between atoms: C_10  and  O_38
REMARK    7  A    between atoms: C_11  and  O_37
REMARK    8  A    between atoms: C_12  and  O_15
REMARK    9  A    between atoms: O_15  and  C_16
REMARK   10  A    between atoms: C_17  and  C_29
REMARK   11  A    between atoms: C_21  and  O_28
REMARK   12  A    between atoms: C_23  and  O_27
REMARK   13  A    between atoms: C_31  and  O_36
REMARK   14  A    between atoms: C_32  and  O_35
REMARK                            x       y       z     vdW  Elec       q    Type
REMARK                         _______ _______ _______ _____ _____    ______ ____
ROOT
ATOM      1  C   UNL     1       6.069  -0.923  24.760  0.00  0.00    +0.214 A 
ATOM      2  C   UNL     1       6.883   0.169  25.400  0.00  0.00    +0.238 A 
ATOM      3  O   UNL     1       6.854   0.376  26.605  0.00  0.00    -0.283 OA
ATOM      4  C   UNL     1       7.794   0.937  24.560  0.00  0.00    +0.109 A 
ATOM      5  C   UNL     1       8.176   0.356  23.364  0.00  0.00    +0.147 A 
ATOM      6  C   UNL     1       9.123   0.986  22.558  0.00  0.00    +0.092 A 
ATOM      7  C   UNL     1       9.688   2.191  22.981  0.00  0.00    +0.124 A 
ATOM      8  C   UNL     1       9.300   2.790  24.174  0.00  0.00    +0.091 A 
ATOM      9  O   UNL     1       7.675  -0.851  22.953  0.00  0.00    -0.451 OA
ATOM     10  C   UNL     1       8.349   2.158  24.964  0.00  0.00    +0.135 A 
ATOM     11  C   UNL     1       6.588  -1.452  23.620  0.00  0.00    +0.181 A 
ENDROOT
BRANCH  11  12
ATOM     12  C   UNL     1       6.215  -2.750  22.940  0.00  0.00    +0.025 A 
ATOM     13  C   UNL     1       7.206  -3.437  22.183  0.00  0.00    +0.015 A 
ATOM     14  C   UNL     1       7.022  -4.737  21.696  0.00  0.00    +0.050 A 
ATOM     15  C   UNL     1       5.823  -5.373  21.938  0.00  0.00    +0.158 A 
ATOM     16  C   UNL     1       4.795  -4.698  22.586  0.00  0.00    +0.159 A 
ATOM     17  C   UNL     1       4.977  -3.401  23.085  0.00  0.00    +0.060 A 
BRANCH  15  18
ATOM     18  O   UNL     1       5.664  -6.673  21.552  0.00  0.00    -0.503 OA
ATOM     19  H   UNL     1       4.743  -6.894  21.797  0.00  0.00    +0.292 HD
ENDBRANCH  15  18
BRANCH  16  20
ATOM     20  O   UNL     1       3.606  -5.363  22.728  0.00  0.00    -0.503 OA
ATOM     21  H   UNL     1       3.488  -5.571  23.670  0.00  0.00    +0.292 HD
ENDBRANCH  16  20
ENDBRANCH  11  12
BRANCH   7  22
ATOM     22  O   UNL     1      10.634   2.844  22.245  0.00  0.00    -0.507 OA
ATOM     23  H   UNL     1      10.398   3.780  22.190  0.00  0.00    +0.292 HD
ENDBRANCH   7  22
BRANCH  10  24
ATOM     24  O   UNL     1       7.935   2.751  26.119  0.00  0.00    -0.506 OA
ATOM     25  H   UNL     1       7.225   3.393  25.960  0.00  0.00    +0.292 HD
ENDBRANCH  10  24
BRANCH   1  26
ATOM     26  O   UNL     1       4.928  -1.393  25.430  0.00  0.00    -0.453 OA
BRANCH  26  29
ATOM     27  C   UNL     1       6.668  -4.036  27.240  0.00  0.00    +0.191 C 
ATOM     28  O   UNL     1       6.020  -3.431  26.105  0.00  0.00    -0.330 OA
ATOM     29  C   UNL     1       5.253  -2.284  26.525  0.00  0.00    +0.340 C 
ATOM     30  C   UNL     1       3.998  -2.913  27.166  0.00  0.00    +0.214 C 
ATOM     31  C   UNL     1       4.458  -3.686  28.424  0.00  0.00    +0.180 C 
ATOM     32  C   UNL     1       5.587  -4.704  28.115  0.00  0.00    +0.178 C 
BRANCH  30  33
ATOM     33  O   UNL     1       3.363  -3.855  26.267  0.00  0.00    -0.383 OA
ATOM     34  H   UNL     1       2.432  -3.928  26.565  0.00  0.00    +0.210 HD
ENDBRANCH  30  33
BRANCH  31  35
ATOM     35  O   UNL     1       3.332  -4.353  29.012  0.00  0.00    -0.386 OA
ATOM     36  H   UNL     1       3.000  -3.757  29.710  0.00  0.00    +0.210 HD
ENDBRANCH  31  35
BRANCH  32  37
ATOM     37  O   UNL     1       6.143  -5.182  29.344  0.00  0.00    -0.386 OA
ATOM     38  H   UNL     1       7.047  -4.821  29.409  0.00  0.00    +0.210 HD
ENDBRANCH  32  37
BRANCH  27  39
ATOM     39  C   UNL     1       7.757  -5.014  26.767  0.00  0.00    +0.266 C 
BRANCH  39  40
ATOM     40  O   UNL     1       8.974  -4.336  26.387  0.00  0.00    -0.462 OA
BRANCH  40  42
ATOM     41  C   UNL     1       9.739  -3.134  24.513  0.00  0.00    +0.136 C 
ATOM     42  C   UNL     1       9.349  -4.466  25.082  0.00  0.00    +0.304 C 
ATOM     43  O   UNL     1       9.372  -5.508  24.444  0.00  0.00    -0.251 OA
ENDBRANCH  40  42
ENDBRANCH  39  40
ENDBRANCH  27  39
ENDBRANCH  26  29
ENDBRANCH   1  26
TORSDOF 13
ENDMDL
MODEL 2
REMARK VINA RESULT:      -7.3      1.947      5.188
REMARK  Name = 
REMARK  14 active torsions:
REMARK  status: ('A' for Active; 'I' for Inactive)
REMARK    1  A    between atoms: C_1  and  C_2
REMARK    2  A    between atoms: C_2  and  O_4
REMARK    3  A    between atoms: O_4  and  C_5
REMARK    4  A    between atoms: C_5  and  C_6
REMARK    5  A    between atoms: C_8  and  O_39
REMARK    6  A    between atoms: C_10  and  O_38
REMARK    7  A    between atoms: C_11  and  O_37
REMARK    8  A    between atoms: C_12  and  O_15
REMARK    9  A    between atoms: O_15  and  C_16
REMARK   10  A    between atoms: C_17  and  C_29
REMARK   11  A    between atoms: C_21  and  O_28
REMARK   12  A    between atoms: C_23  and  O_27
REMARK   13  A    between atoms: C_31  and  O_36
REMARK   14  A    between atoms: C_32  and  O_35
REMARK                            x       y       z     vdW  Elec       q    Type
REMARK                         _______ _______ _______ _____ _____    ______ ____
ROOT
ATOM      1  C   UNL     1       8.049  -2.120  24.229  0.00  0.00    +0.214 A 
ATOM      2  C   UNL     1       8.531  -1.078  23.256  0.00  0.00    +0.238 A 
ATOM      3  O   UNL     1       8.705  -1.330  22.073  0.00  0.00    -0.283 OA
ATOM      4  C   UNL     1       8.708   0.287  23.735  0.00  0.00    +0.109 A 
ATOM      5  C   UNL     1       8.030   0.635  24.889  0.00  0.00    +0.147 A 
ATOM      6  C   UNL     1       8.071   1.950  25.349  0.00  0.00    +0.092 A 
ATOM      7  C   UNL     1       8.785   2.906  24.624  0.00  0.00    +0.124 A 
ATOM      8  C   UNL     1       9.482   2.564  23.470  0.00  0.00    +0.091 A 
ATOM      9  O   UNL     1       7.280  -0.274  25.590  0.00  0.00    -0.451 OA
ATOM     10  C   UNL     1       9.441   1.248  23.027  0.00  0.00    +0.135 A 
ATOM     11  C   UNL     1       7.340  -1.650  25.291  0.00  0.00    +0.181 A 
ENDROOT
BRANCH  11  12
ATOM     12  C   UNL     1       6.449  -2.426  26.235  0.00  0.00    +0.025 A 
ATOM     13  C   UNL     1       5.046  -2.190  26.200  0.00  0.00    +0.015 A 
ATOM     14  C   UNL     1       4.125  -3.000  26.878  0.00  0.00    +0.050 A 
ATOM     15  C   UNL     1       4.595  -4.056  27.629  0.00  0.00    +0.158 A 
ATOM     16  C   UNL     1       5.964  -4.256  27.768  0.00  0.00    +0.159 A 
ATOM     17  C   UNL     1       6.890  -3.455  27.084  0.00  0.00    +0.060 A 
BRANCH  15  18
ATOM     18  O   UNL     1       3.707  -4.909  28.218  0.00  0.00    -0.503 OA
ATOM     19  H   UNL     1       2.889  -4.819  27.690  0.00  0.00    +0.292 HD
ENDBRANCH  15  18
BRANCH  16  20
ATOM     20  O   UNL     1       6.364  -5.277  28.589  0.00  0.00    -0.503 OA
ATOM     21  H   UNL     1       6.769  -4.885  29.381  0.00  0.00    +0.292 HD
ENDBRANCH  16  20
ENDBRANCH  11  12
BRANCH   7  22
ATOM     22  O   UNL     1       8.845   4.212  25.012  0.00  0.00    -0.507 OA
ATOM     23  H   UNL     1       8.131   4.387  25.640  0.00  0.00    +0.292 HD
ENDBRANCH   7  22
BRANCH  10  24
ATOM     24  O   UNL     1      10.147   0.892  21.917  0.00  0.00    -0.506 OA
ATOM     25  H   UNL     1      10.615   0.051  22.042  0.00  0.00    +0.292 HD
ENDBRANCH  10  24
BRANCH   1  26
ATOM     26  O   UNL     1       8.248  -3.475  23.919  0.00  0.00    -0.453 OA
BRANCH  26  29
ATOM     27  C   UNL     1       5.314  -5.632  24.090  0.00  0.00    +0.191 C 
ATOM     28  O   UNL     1       6.699  -5.284  24.277  0.00  0.00    -0.330 OA
ATOM     29  C   UNL     1       7.032  -4.130  23.479  0.00  0.00    +0.340 C 
ATOM     30  C   UNL     1       7.158  -4.709  22.055  0.00  0.00    +0.214 C 
ATOM     31  C   UNL     1       5.757  -5.209  21.633  0.00  0.00    +0.180 C 
ATOM     32  C   UNL     1       5.144  -6.195  22.664  0.00  0.00    +0.178 C 
BRANCH  30  33
ATOM     33  O   UNL     1       8.066  -5.836  22.021  0.00  0.00    -0.383 OA
ATOM     34  H   UNL     1       8.912  -5.491  21.664  0.00  0.00    +0.210 HD
ENDBRANCH  30  33
BRANCH  31  35
ATOM     35  O   UNL     1       5.839  -5.827  20.341  0.00  0.00    -0.386 OA
ATOM     36  H   UNL     1       6.499  -6.541  20.424  0.00  0.00    +0.210 HD
ENDBRANCH  31  35
BRANCH  32  37
ATOM     37  O   UNL     1       3.763  -6.405  22.354  0.00  0.00    -0.386 OA
ATOM     38  H   UNL     1       3.243  -5.993  23.069  0.00  0.00    +0.210 HD
ENDBRANCH  32  37
BRANCH  27  39
ATOM     39  C   UNL     1       4.861  -6.610  25.187  0.00  0.00    +0.266 C 
BRANCH  39  40
ATOM     40  O   UNL     1       3.453  -6.485  25.486  0.00  0.00    -0.462 OA
BRANCH  40  42
ATOM     41  C   UNL     1       1.664  -7.699  26.416  0.00  0.00    +0.136 C 
ATOM     42  C   UNL     1       2.709  -7.619  25.343  0.00  0.00    +0.304 C 
ATOM     43  O   UNL     1       2.853  -8.465  24.473  0.00  0.00    -0.251 OA
ENDBRANCH  40  42
ENDBRANCH  39  40
ENDBRANCH  27  39
ENDBRANCH  26  29
ENDBRANCH   1  26
TORSDOF 13
ENDMDL
MODEL 3
REMARK VINA RESULT:      -7.2      1.345      2.049
REMARK  Name = 
REMARK  14 active torsions:
REMARK  status: ('A' for Active; 'I' for Inactive)
REMARK    1  A    between atoms: C_1  and  C_2
REMARK    2  A    between atoms: C_2  and  O_4
REMARK    3  A    between atoms: O_4  and  C_5
REMARK    4  A    between atoms: C_5  and  C_6
REMARK    5  A    between atoms: C_8  and  O_39
REMARK    6  A    between atoms: C_10  and  O_38
REMARK    7  A    between atoms: C_11  and  O_37
REMARK    8  A    between atoms: C_12  and  O_15
REMARK    9  A    between atoms: O_15  and  C_16
REMARK   10  A    between atoms: C_17  and  C_29
REMARK   11  A    between atoms: C_21  and  O_28
REMARK   12  A    between atoms: C_23  and  O_27
REMARK   13  A    between atoms: C_31  and  O_36
REMARK   14  A    between atoms: C_32  and  O_35
REMARK                            x       y       z     vdW  Elec       q    Type
REMARK                         _______ _______ _______ _____ _____    ______ ____
ROOT
ATOM      1  C   UNL     1       6.230  -0.809  24.761  0.00  0.00    +0.214 A 
ATOM      2  C   UNL     1       7.005   0.340  25.347  0.00  0.00    +0.238 A 
ATOM      3  O   UNL     1       6.938   0.628  26.533  0.00  0.00    -0.283 OA
ATOM      4  C   UNL     1       7.925   1.068  24.482  0.00  0.00    +0.109 A 
ATOM      5  C   UNL     1       8.352   0.415  23.339  0.00  0.00    +0.147 A 
ATOM      6  C   UNL     1       9.310   1.009  22.517  0.00  0.00    +0.092 A 
ATOM      7  C   UNL     1       9.840   2.251  22.872  0.00  0.00    +0.124 A 
ATOM      8  C   UNL     1       9.407   2.921  24.011  0.00  0.00    +0.091 A 
ATOM      9  O   UNL     1       7.885  -0.827  22.997  0.00  0.00    -0.451 OA
ATOM     10  C   UNL     1       8.446   2.324  24.816  0.00  0.00    +0.135 A 
ATOM     11  C   UNL     1       6.791  -1.403  23.674  0.00  0.00    +0.181 A 
ENDROOT
BRANCH  11  12
ATOM     12  C   UNL     1       6.461  -2.752  23.074  0.00  0.00    +0.025 A 
ATOM     13  C   UNL     1       7.528  -3.584  22.632  0.00  0.00    +0.015 A 
ATOM     14  C   UNL     1       7.342  -4.922  22.261  0.00  0.00    +0.050 A 
ATOM     15  C   UNL     1       6.070  -5.452  22.303  0.00  0.00    +0.158 A 
ATOM     16  C   UNL     1       4.988  -4.642  22.632  0.00  0.00    +0.159 A 
ATOM     17  C   UNL     1       5.171  -3.305  23.014  0.00  0.00    +0.060 A 
BRANCH  15  18
ATOM     18  O   UNL     1       5.886  -6.778  22.035  0.00  0.00    -0.503 OA
ATOM     19  H   UNL     1       4.965  -6.841  21.713  0.00  0.00    +0.292 HD
ENDBRANCH  15  18
BRANCH  16  20
ATOM     20  O   UNL     1       3.745  -5.212  22.581  0.00  0.00    -0.503 OA
ATOM     21  H   UNL     1       3.121  -4.616  23.028  0.00  0.00    +0.292 HD
ENDBRANCH  16  20
ENDBRANCH  11  12
BRANCH   7  22
ATOM     22  O   UNL     1      10.794   2.871  22.120  0.00  0.00    -0.507 OA
ATOM     23  H   UNL     1      10.489   2.920  21.204  0.00  0.00    +0.292 HD
ENDBRANCH   7  22
BRANCH  10  24
ATOM     24  O   UNL     1       7.988   2.986  25.916  0.00  0.00    -0.506 OA
ATOM     25  H   UNL     1       8.629   2.961  26.645  0.00  0.00    +0.292 HD
ENDBRANCH  10  24
BRANCH   1  26
ATOM     26  O   UNL     1       5.079  -1.256  25.430  0.00  0.00    -0.453 OA
BRANCH  26  29
ATOM     27  C   UNL     1       6.022  -4.447  26.918  0.00  0.00    +0.191 C 
ATOM     28  O   UNL     1       5.320  -3.582  26.005  0.00  0.00    -0.330 OA
ATOM     29  C   UNL     1       5.379  -2.219  26.471  0.00  0.00    +0.340 C 
ATOM     30  C   UNL     1       4.345  -2.190  27.615  0.00  0.00    +0.214 C 
ATOM     31  C   UNL     1       4.870  -3.116  28.737  0.00  0.00    +0.180 C 
ATOM     32  C   UNL     1       5.204  -4.542  28.222  0.00  0.00    +0.178 C 
BRANCH  30  33
ATOM     33  O   UNL     1       3.060  -2.698  27.178  0.00  0.00    -0.383 OA
ATOM     34  H   UNL     1       3.180  -3.663  27.051  0.00  0.00    +0.210 HD
ENDBRANCH  30  33
BRANCH  31  35
ATOM     35  O   UNL     1       3.902  -3.182  29.794  0.00  0.00    -0.386 OA
ATOM     36  H   UNL     1       4.396  -3.430  30.598  0.00  0.00    +0.210 HD
ENDBRANCH  31  35
BRANCH  32  37
ATOM     37  O   UNL     1       5.925  -5.253  29.233  0.00  0.00    -0.386 OA
ATOM     38  H   UNL     1       6.077  -6.155  28.895  0.00  0.00    +0.210 HD
ENDBRANCH  32  37
BRANCH  27  39
ATOM     39  C   UNL     1       6.276  -5.814  26.260  0.00  0.00    +0.266 C 
BRANCH  39  40
ATOM     40  O   UNL     1       5.236  -6.770  26.563  0.00  0.00    -0.462 OA
BRANCH  40  42
ATOM     41  C   UNL     1       2.982  -6.363  26.018  0.00  0.00    +0.136 C 
ATOM     42  C   UNL     1       4.293  -6.955  25.594  0.00  0.00    +0.304 C 
ATOM     43  O   UNL     1       4.468  -7.518  24.524  0.00  0.00    -0.251 OA
ENDBRANCH  40  42
ENDBRANCH  39  40
ENDBRANCH  27  39
ENDBRANCH  26  29
ENDBRANCH   1  26
TORSDOF 13
ENDMDL
MODEL 4
REMARK VINA RESULT:      -7.2      2.220      4.029
REMARK  Name = 
REMARK  14 active torsions:
REMARK  status: ('A' for Active; 'I' for Inactive)
REMARK    1  A    between atoms: C_1  and  C_2
REMARK    2  A    between atoms: C_2  and  O_4
REMARK    3  A    between atoms: O_4  and  C_5
REMARK    4  A    between atoms: C_5  and  C_6
REMARK    5  A    between atoms: C_8  and  O_39
REMARK    6  A    between atoms: C_10  and  O_38
REMARK    7  A    between atoms: C_11  and  O_37
REMARK    8  A    between atoms: C_12  and  O_15
REMARK    9  A    between atoms: O_15  and  C_16
REMARK   10  A    between atoms: C_17  and  C_29
REMARK   11  A    between atoms: C_21  and  O_28
REMARK   12  A    between atoms: C_23  and  O_27
REMARK   13  A    between atoms: C_31  and  O_36
REMARK   14  A    between atoms: C_32  and  O_35
REMARK                            x       y       z     vdW  Elec       q    Type
REMARK                         _______ _______ _______ _____ _____    ______ ____
ROOT
ATOM      1  C   UNL     1       7.816   2.113  23.926  0.00  0.00    +0.214 A 
ATOM      2  C   UNL     1       8.122   3.518  24.371  0.00  0.00    +0.238 A 
ATOM      3  O   UNL     1       7.367   4.142  25.103  0.00  0.00    -0.283 OA
ATOM      4  C   UNL     1       9.396   4.107  23.981  0.00  0.00    +0.109 A 
ATOM      5  C   UNL     1      10.402   3.229  23.618  0.00  0.00    +0.147 A 
ATOM      6  C   UNL     1      11.678   3.715  23.332  0.00  0.00    +0.092 A 
ATOM      7  C   UNL     1      11.926   5.085  23.433  0.00  0.00    +0.124 A 
ATOM      8  C   UNL     1      10.918   5.977  23.783  0.00  0.00    +0.091 A 
ATOM      9  O   UNL     1      10.196   1.876  23.562  0.00  0.00    -0.451 OA
ATOM     10  C   UNL     1       9.650   5.482  24.057  0.00  0.00    +0.135 A 
ATOM     11  C   UNL     1       8.899   1.333  23.658  0.00  0.00    +0.181 A 
ENDROOT
BRANCH  11  12
ATOM     12  C   UNL     1       8.954  -0.173  23.528  0.00  0.00    +0.025 A 
ATOM     13  C   UNL     1       9.750  -0.911  24.449  0.00  0.00    +0.015 A 
ATOM     14  C   UNL     1       9.701  -2.308  24.542  0.00  0.00    +0.050 A 
ATOM     15  C   UNL     1       8.865  -3.001  23.694  0.00  0.00    +0.158 A 
ATOM     16  C   UNL     1       8.148  -2.323  22.714  0.00  0.00    +0.159 A 
ATOM     17  C   UNL     1       8.186  -0.924  22.622  0.00  0.00    +0.060 A 
BRANCH  15  18
ATOM     18  O   UNL     1       8.736  -4.353  23.836  0.00  0.00    -0.503 OA
ATOM     19  H   UNL     1       8.004  -4.467  24.474  0.00  0.00    +0.292 HD
ENDBRANCH  15  18
BRANCH  16  20
ATOM     20  O   UNL     1       7.396  -3.080  21.857  0.00  0.00    -0.503 OA
ATOM     21  H   UNL     1       6.459  -2.882  22.023  0.00  0.00    +0.292 HD
ENDBRANCH  16  20
ENDBRANCH  11  12
BRANCH   7  22
ATOM     22  O   UNL     1      13.158   5.616  23.186  0.00  0.00    -0.507 OA
ATOM     23  H   UNL     1      13.076   6.290  22.498  0.00  0.00    +0.292 HD
ENDBRANCH   7  22
BRANCH  10  24
ATOM     24  O   UNL     1       8.645   6.349  24.368  0.00  0.00    -0.506 OA
ATOM     25  H   UNL     1       7.774   5.992  24.130  0.00  0.00    +0.292 HD
ENDBRANCH  10  24
BRANCH   1  26
ATOM     26  O   UNL     1       6.482   1.677  23.937  0.00  0.00    -0.453 OA
BRANCH  26  29
ATOM     27  C   UNL     1       5.617  -1.531  25.437  0.00  0.00    +0.191 C 
ATOM     28  O   UNL     1       5.480  -0.437  24.510  0.00  0.00    -0.330 OA
ATOM     29  C   UNL     1       6.222   0.707  24.981  0.00  0.00    +0.340 C 
ATOM     30  C   UNL     1       5.325   1.274  26.102  0.00  0.00    +0.214 C 
ATOM     31  C   UNL     1       5.275   0.220  27.232  0.00  0.00    +0.180 C 
ATOM     32  C   UNL     1       4.840  -1.179  26.722  0.00  0.00    +0.178 C 
BRANCH  30  33
ATOM     33  O   UNL     1       3.972   1.495  25.633  0.00  0.00    -0.383 OA
ATOM     34  H   UNL     1       3.603   2.206  26.198  0.00  0.00    +0.210 HD
ENDBRANCH  30  33
BRANCH  31  35
ATOM     35  O   UNL     1       4.389   0.672  28.266  0.00  0.00    -0.386 OA
ATOM     36  H   UNL     1       4.954   0.879  29.035  0.00  0.00    +0.210 HD
ENDBRANCH  31  35
BRANCH  32  37
ATOM     37  O   UNL     1       5.071  -2.150  27.747  0.00  0.00    -0.386 OA
ATOM     38  H   UNL     1       5.611  -1.718  28.434  0.00  0.00    +0.210 HD
ENDBRANCH  32  37
BRANCH  27  39
ATOM     39  C   UNL     1       5.147  -2.840  24.781  0.00  0.00    +0.266 C 
BRANCH  39  40
ATOM     40  O   UNL     1       5.871  -3.990  25.273  0.00  0.00    -0.462 OA
BRANCH  40  42
ATOM     41  C   UNL     1       5.047  -6.188  25.441  0.00  0.00    +0.136 C 
ATOM     42  C   UNL     1       5.696  -5.149  24.575  0.00  0.00    +0.304 C 
ATOM     43  O   UNL     1       6.013  -5.339  23.411  0.00  0.00    -0.251 OA
ENDBRANCH  40  42
ENDBRANCH  39  40
ENDBRANCH  27  39
ENDBRANCH  26  29
ENDBRANCH   1  26
TORSDOF 13
ENDMDL
MODEL 5
REMARK VINA RESULT:      -7.1      2.266      7.061
REMARK  Name = 
REMARK  14 active torsions:
REMARK  status: ('A' for Active; 'I' for Inactive)
REMARK    1  A    between atoms: C_1  and  C_2
REMARK    2  A    between atoms: C_2  and  O_4
REMARK    3  A    between atoms: O_4  and  C_5
REMARK    4  A    between atoms: C_5  and  C_6
REMARK    5  A    between atoms: C_8  and  O_39
REMARK    6  A    between atoms: C_10  and  O_38
REMARK    7  A    between atoms: C_11  and  O_37
REMARK    8  A    between atoms: C_12  and  O_15
REMARK    9  A    between atoms: O_15  and  C_16
REMARK   10  A    between atoms: C_17  and  C_29
REMARK   11  A    between atoms: C_21  and  O_28
REMARK   12  A    between atoms: C_23  and  O_27
REMARK   13  A    between atoms: C_31  and  O_36
REMARK   14  A    between atoms: C_32  and  O_35
REMARK                            x       y       z     vdW  Elec       q    Type
REMARK                         _______ _______ _______ _____ _____    ______ ____
ROOT
ATOM      1  C   UNL     1       7.501  -1.576  24.758  0.00  0.00    +0.214 A 
ATOM      2  C   UNL     1       6.836  -2.862  25.171  0.00  0.00    +0.238 A 
ATOM      3  O   UNL     1       6.497  -3.072  26.327  0.00  0.00    -0.283 OA
ATOM      4  C   UNL     1       6.514  -3.838  24.138  0.00  0.00    +0.109 A 
ATOM      5  C   UNL     1       6.433  -3.367  22.840  0.00  0.00    +0.147 A 
ATOM      6  C   UNL     1       6.030  -4.222  21.815  0.00  0.00    +0.092 A 
ATOM      7  C   UNL     1       5.695  -5.543  22.118  0.00  0.00    +0.124 A 
ATOM      8  C   UNL     1       5.787  -6.030  23.417  0.00  0.00    +0.091 A 
ATOM      9  O   UNL     1       6.706  -2.061  22.526  0.00  0.00    -0.451 OA
ATOM     10  C   UNL     1       6.198  -5.172  24.428  0.00  0.00    +0.135 A 
ATOM     11  C   UNL     1       7.291  -1.193  23.470  0.00  0.00    +0.181 A 
ENDROOT
BRANCH  11  12
ATOM     12  C   UNL     1       7.518   0.168  22.853  0.00  0.00    +0.025 A 
ATOM     13  C   UNL     1       6.413   1.056  22.727  0.00  0.00    +0.015 A 
ATOM     14  C   UNL     1       6.560   2.402  22.367  0.00  0.00    +0.050 A 
ATOM     15  C   UNL     1       7.824   2.885  22.101  0.00  0.00    +0.158 A 
ATOM     16  C   UNL     1       8.915   2.023  22.115  0.00  0.00    +0.159 A 
ATOM     17  C   UNL     1       8.775   0.678  22.484  0.00  0.00    +0.060 A 
BRANCH  15  18
ATOM     18  O   UNL     1       7.993   4.214  21.841  0.00  0.00    -0.503 OA
ATOM     19  H   UNL     1       7.181   4.640  22.181  0.00  0.00    +0.292 HD
ENDBRANCH  15  18
BRANCH  16  20
ATOM     20  O   UNL     1      10.129   2.552  21.768  0.00  0.00    -0.503 OA
ATOM     21  H   UNL     1      10.785   1.834  21.781  0.00  0.00    +0.292 HD
ENDBRANCH  16  20
ENDBRANCH  11  12
BRANCH   7  22
ATOM     22  O   UNL     1       5.275  -6.420  21.162  0.00  0.00    -0.507 OA
ATOM     23  H   UNL     1       4.310  -6.391  21.111  0.00  0.00    +0.292 HD
ENDBRANCH   7  22
BRANCH  10  24
ATOM     24  O   UNL     1       6.325  -5.646  25.700  0.00  0.00    -0.506 OA
ATOM     25  H   UNL     1       5.481  -5.626  26.179  0.00  0.00    +0.292 HD
ENDBRANCH  10  24
BRANCH   1  26
ATOM     26  O   UNL     1       8.168  -0.819  25.734  0.00  0.00    -0.453 OA
BRANCH  26  29
ATOM     27  C   UNL     1       6.932   2.566  26.286  0.00  0.00    +0.191 C 
ATOM     28  O   UNL     1       7.937   1.544  26.134  0.00  0.00    -0.330 OA
ATOM     29  C   UNL     1       7.341   0.239  26.279  0.00  0.00    +0.340 C 
ATOM     30  C   UNL     1       7.143   0.107  27.803  0.00  0.00    +0.214 C 
ATOM     31  C   UNL     1       6.105   1.171  28.230  0.00  0.00    +0.180 C 
ATOM     32  C   UNL     1       6.494   2.599  27.765  0.00  0.00    +0.178 C 
BRANCH  30  33
ATOM     33  O   UNL     1       8.375   0.368  28.519  0.00  0.00    -0.383 OA
ATOM     34  H   UNL     1       8.997  -0.342  28.256  0.00  0.00    +0.210 HD
ENDBRANCH  30  33
BRANCH  31  35
ATOM     35  O   UNL     1       5.945   1.136  29.655  0.00  0.00    -0.386 OA
ATOM     36  H   UNL     1       5.045   1.470  29.833  0.00  0.00    +0.210 HD
ENDBRANCH  31  35
BRANCH  32  37
ATOM     37  O   UNL     1       5.381   3.478  27.953  0.00  0.00    -0.386 OA
ATOM     38  H   UNL     1       4.998   3.273  28.826  0.00  0.00    +0.210 HD
ENDBRANCH  32  37
BRANCH  27  39
ATOM     39  C   UNL     1       7.471   3.916  25.782  0.00  0.00    +0.266 C 
BRANCH  39  40
ATOM     40  O   UNL     1       8.787   3.796  25.198  0.00  0.00    -0.462 OA
BRANCH  40  42
ATOM     41  C   UNL     1       8.989   6.099  25.639  0.00  0.00    +0.136 C 
ATOM     42  C   UNL     1       9.345   4.953  24.739  0.00  0.00    +0.304 C 
ATOM     43  O   UNL     1      10.041   5.067  23.741  0.00  0.00    -0.251 OA
ENDBRANCH  40  42
ENDBRANCH  39  40
ENDBRANCH  27  39
ENDBRANCH  26  29
ENDBRANCH   1  26
TORSDOF 13
ENDMDL
MODEL 6
REMARK VINA RESULT:      -7.1      1.776      3.026
REMARK  Name = 
REMARK  14 active torsions:
REMARK  status: ('A' for Active; 'I' for Inactive)
REMARK    1  A    between atoms: C_1  and  C_2
REMARK    2  A    between atoms: C_2  and  O_4
REMARK    3  A    between atoms: O_4  and  C_5
REMARK    4  A    between atoms: C_5  and  C_6
REMARK    5  A    between atoms: C_8  and  O_39
REMARK    6  A    between atoms: C_10  and  O_38
REMARK    7  A    between atoms: C_11  and  O_37
REMARK    8  A    between atoms: C_12  and  O_15
REMARK    9  A    between atoms: O_15  and  C_16
REMARK   10  A    between atoms: C_17  and  C_29
REMARK   11  A    between atoms: C_21  and  O_28
REMARK   12  A    between atoms: C_23  and  O_27
REMARK   13  A    between atoms: C_31  and  O_36
REMARK   14  A    between atoms: C_32  and  O_35
REMARK                            x       y       z     vdW  Elec       q    Type
REMARK                         _______ _______ _______ _____ _____    ______ ____
ROOT
ATOM      1  C   UNL     1       6.627   0.527  24.417  0.00  0.00    +0.214 A 
ATOM      2  C   UNL     1       7.115   1.815  25.022  0.00  0.00    +0.238 A 
ATOM      3  O   UNL     1       6.613   2.285  26.034  0.00  0.00    -0.283 OA
ATOM      4  C   UNL     1       8.275   2.465  24.426  0.00  0.00    +0.109 A 
ATOM      5  C   UNL     1       9.101   1.673  23.649  0.00  0.00    +0.147 A 
ATOM      6  C   UNL     1      10.283   2.201  23.130  0.00  0.00    +0.092 A 
ATOM      7  C   UNL     1      10.625   3.524  23.419  0.00  0.00    +0.124 A 
ATOM      8  C   UNL     1       9.794   4.333  24.187  0.00  0.00    +0.091 A 
ATOM      9  O   UNL     1       8.812   0.358  23.394  0.00  0.00    -0.451 OA
ATOM     10  C   UNL     1       8.616   3.798  24.691  0.00  0.00    +0.135 A 
ATOM     11  C   UNL     1       7.557  -0.189  23.728  0.00  0.00    +0.181 A 
ENDROOT
BRANCH  11  12
ATOM     12  C   UNL     1       7.492  -1.639  23.305  0.00  0.00    +0.025 A 
ATOM     13  C   UNL     1       8.260  -2.597  24.025  0.00  0.00    +0.015 A 
ATOM     14  C   UNL     1       8.108  -3.978  23.847  0.00  0.00    +0.050 A 
ATOM     15  C   UNL     1       7.192  -4.432  22.922  0.00  0.00    +0.158 A 
ATOM     16  C   UNL     1       6.497  -3.526  22.128  0.00  0.00    +0.159 A 
ATOM     17  C   UNL     1       6.638  -2.143  22.309  0.00  0.00    +0.060 A 
BRANCH  15  18
ATOM     18  O   UNL     1       6.965  -5.773  22.805  0.00  0.00    -0.503 OA
ATOM     19  H   UNL     1       7.536  -6.182  23.485  0.00  0.00    +0.292 HD
ENDBRANCH  15  18
BRANCH  16  20
ATOM     20  O   UNL     1       5.660  -4.046  21.178  0.00  0.00    -0.503 OA
ATOM     21  H   UNL     1       6.171  -4.670  20.635  0.00  0.00    +0.292 HD
ENDBRANCH  16  20
ENDBRANCH  11  12
BRANCH   7  22
ATOM     22  O   UNL     1      11.777   4.090  22.958  0.00  0.00    -0.507 OA
ATOM     23  H   UNL     1      11.666   4.312  22.024  0.00  0.00    +0.292 HD
ENDBRANCH   7  22
BRANCH  10  24
ATOM     24  O   UNL     1       7.776   4.589  25.416  0.00  0.00    -0.506 OA
ATOM     25  H   UNL     1       7.351   5.265  24.864  0.00  0.00    +0.292 HD
ENDBRANCH  10  24
BRANCH   1  26
ATOM     26  O   UNL     1       5.319   0.101  24.700  0.00  0.00    -0.453 OA
BRANCH  26  29
ATOM     27  C   UNL     1       4.876  -3.299  25.935  0.00  0.00    +0.191 C 
ATOM     28  O   UNL     1       4.534  -2.125  25.174  0.00  0.00    -0.330 OA
ATOM     29  C   UNL     1       5.283  -0.990  25.653  0.00  0.00    +0.340 C 
ATOM     30  C   UNL     1       4.553  -0.608  26.958  0.00  0.00    +0.214 C 
ATOM     31  C   UNL     1       4.742  -1.777  27.953  0.00  0.00    +0.180 C 
ATOM     32  C   UNL     1       4.301  -3.141  27.358  0.00  0.00    +0.178 C 
BRANCH  30  33
ATOM     33  O   UNL     1       3.132  -0.433  26.736  0.00  0.00    -0.383 OA
ATOM     34  H   UNL     1       2.934   0.498  26.972  0.00  0.00    +0.210 HD
ENDBRANCH  30  33
BRANCH  31  35
ATOM     35  O   UNL     1       4.015  -1.500  29.158  0.00  0.00    -0.386 OA
ATOM     36  H   UNL     1       3.108  -1.269  28.879  0.00  0.00    +0.210 HD
ENDBRANCH  31  35
BRANCH  32  37
ATOM     37  O   UNL     1       4.746  -4.197  28.214  0.00  0.00    -0.386 OA
ATOM     38  H   UNL     1       4.009  -4.405  28.818  0.00  0.00    +0.210 HD
ENDBRANCH  32  37
BRANCH  27  39
ATOM     39  C   UNL     1       4.372  -4.561  25.214  0.00  0.00    +0.266 C 
BRANCH  39  40
ATOM     40  O   UNL     1       3.500  -4.247  24.106  0.00  0.00    -0.462 OA
BRANCH  40  42
ATOM     41  C   UNL     1       1.702  -5.545  23.315  0.00  0.00    +0.136 C 
ATOM     42  C   UNL     1       3.179  -5.287  23.283  0.00  0.00    +0.304 C 
ATOM     43  O   UNL     1       3.965  -5.933  22.606  0.00  0.00    -0.251 OA
ENDBRANCH  40  42
ENDBRANCH  39  40
ENDBRANCH  27  39
ENDBRANCH  26  29
ENDBRANCH   1  26
TORSDOF 13
ENDMDL
MODEL 7
REMARK VINA RESULT:      -7.1      1.548      2.053
REMARK  Name = 
REMARK  14 active torsions:
REMARK  status: ('A' for Active; 'I' for Inactive)
REMARK    1  A    between atoms: C_1  and  C_2
REMARK    2  A    between atoms: C_2  and  O_4
REMARK    3  A    between atoms: O_4  and  C_5
REMARK    4  A    between atoms: C_5  and  C_6
REMARK    5  A    between atoms: C_8  and  O_39
REMARK    6  A    between atoms: C_10  and  O_38
REMARK    7  A    between atoms: C_11  and  O_37
REMARK    8  A    between atoms: C_12  and  O_15
REMARK    9  A    between atoms: O_15  and  C_16
REMARK   10  A    between atoms: C_17  and  C_29
REMARK   11  A    between atoms: C_21  and  O_28
REMARK   12  A    between atoms: C_23  and  O_27
REMARK   13  A    between atoms: C_31  and  O_36
REMARK   14  A    between atoms: C_32  and  O_35
REMARK                            x       y       z     vdW  Elec       q    Type
REMARK                         _______ _______ _______ _____ _____    ______ ____
ROOT
ATOM      1  C   UNL     1       6.576   0.337  24.494  0.00  0.00    +0.214 A 
ATOM      2  C   UNL     1       7.063   1.605  25.143  0.00  0.00    +0.238 A 
ATOM      3  O   UNL     1       6.606   2.003  26.206  0.00  0.00    -0.283 OA
ATOM      4  C   UNL     1       8.169   2.322  24.522  0.00  0.00    +0.109 A 
ATOM      5  C   UNL     1       8.971   1.599  23.657  0.00  0.00    +0.147 A 
ATOM      6  C   UNL     1      10.107   2.190  23.106  0.00  0.00    +0.092 A 
ATOM      7  C   UNL     1      10.429   3.505  23.449  0.00  0.00    +0.124 A 
ATOM      8  C   UNL     1       9.621   4.245  24.306  0.00  0.00    +0.091 A 
ATOM      9  O   UNL     1       8.705   0.291  23.345  0.00  0.00    -0.451 OA
ATOM     10  C   UNL     1       8.488   3.648  24.842  0.00  0.00    +0.135 A 
ATOM     11  C   UNL     1       7.486  -0.311  23.716  0.00  0.00    +0.181 A 
ENDROOT
BRANCH  11  12
ATOM     12  C   UNL     1       7.437  -1.737  23.217  0.00  0.00    +0.025 A 
ATOM     13  C   UNL     1       8.464  -2.638  23.616  0.00  0.00    +0.015 A 
ATOM     14  C   UNL     1       8.395  -4.017  23.381  0.00  0.00    +0.050 A 
ATOM     15  C   UNL     1       7.299  -4.524  22.716  0.00  0.00    +0.158 A 
ATOM     16  C   UNL     1       6.325  -3.663  22.222  0.00  0.00    +0.159 A 
ATOM     17  C   UNL     1       6.384  -2.283  22.463  0.00  0.00    +0.060 A 
BRANCH  15  18
ATOM     18  O   UNL     1       7.173  -5.875  22.563  0.00  0.00    -0.503 OA
ATOM     19  H   UNL     1       6.728  -5.987  21.699  0.00  0.00    +0.292 HD
ENDBRANCH  15  18
BRANCH  16  20
ATOM     20  O   UNL     1       5.303  -4.226  21.506  0.00  0.00    -0.503 OA
ATOM     21  H   UNL     1       5.271  -5.174  21.720  0.00  0.00    +0.292 HD
ENDBRANCH  16  20
ENDBRANCH  11  12
BRANCH   7  22
ATOM     22  O   UNL     1      11.537   4.130  22.958  0.00  0.00    -0.507 OA
ATOM     23  H   UNL     1      12.198   3.463  22.728  0.00  0.00    +0.292 HD
ENDBRANCH   7  22
BRANCH  10  24
ATOM     24  O   UNL     1       7.669   4.373  25.656  0.00  0.00    -0.506 OA
ATOM     25  H   UNL     1       8.173   4.914  26.285  0.00  0.00    +0.292 HD
ENDBRANCH  10  24
BRANCH   1  26
ATOM     26  O   UNL     1       5.299  -0.142  24.825  0.00  0.00    -0.453 OA
BRANCH  26  29
ATOM     27  C   UNL     1       5.416  -3.352  26.548  0.00  0.00    +0.191 C 
ATOM     28  O   UNL     1       4.973  -2.416  25.546  0.00  0.00    -0.330 OA
ATOM     29  C   UNL     1       5.324  -1.073  25.935  0.00  0.00    +0.340 C 
ATOM     30  C   UNL     1       4.275  -0.731  27.014  0.00  0.00    +0.214 C 
ATOM     31  C   UNL     1       4.523  -1.671  28.216  0.00  0.00    +0.180 C 
ATOM     32  C   UNL     1       4.543  -3.167  27.806  0.00  0.00    +0.178 C 
BRANCH  30  33
ATOM     33  O   UNL     1       2.929  -0.963  26.532  0.00  0.00    -0.383 OA
ATOM     34  H   UNL     1       2.550  -1.657  27.113  0.00  0.00    +0.210 HD
ENDBRANCH  30  33
BRANCH  31  35
ATOM     35  O   UNL     1       3.521  -1.441  29.217  0.00  0.00    -0.386 OA
ATOM     36  H   UNL     1       2.662  -1.555  28.769  0.00  0.00    +0.210 HD
ENDBRANCH  31  35
BRANCH  32  37
ATOM     37  O   UNL     1       5.036  -3.951  28.896  0.00  0.00    -0.386 OA
ATOM     38  H   UNL     1       5.719  -3.419  29.345  0.00  0.00    +0.210 HD
ENDBRANCH  32  37
BRANCH  27  39
ATOM     39  C   UNL     1       5.378  -4.784  25.986  0.00  0.00    +0.266 C 
BRANCH  39  40
ATOM     40  O   UNL     1       6.700  -5.341  25.816  0.00  0.00    -0.462 OA
BRANCH  40  42
ATOM     41  C   UNL     1       8.788  -4.699  26.692  0.00  0.00    +0.136 C 
ATOM     42  C   UNL     1       7.478  -5.387  26.936  0.00  0.00    +0.304 C 
ATOM     43  O   UNL     1       7.173  -5.907  27.998  0.00  0.00    -0.251 OA
ENDBRANCH  40  42
ENDBRANCH  39  40
ENDBRANCH  27  39
ENDBRANCH  26  29
ENDBRANCH   1  26
TORSDOF 13
ENDMDL
MODEL 8
REMARK VINA RESULT:      -6.9      2.451      7.470
REMARK  Name = 
REMARK  14 active torsions:
REMARK  status: ('A' for Active; 'I' for Inactive)
REMARK    1  A    between atoms: C_1  and  C_2
REMARK    2  A    between atoms: C_2  and  O_4
REMARK    3  A    between atoms: O_4  and  C_5
REMARK    4  A    between atoms: C_5  and  C_6
REMARK    5  A    between atoms: C_8  and  O_39
REMARK    6  A    between atoms: C_10  and  O_38
REMARK    7  A    between atoms: C_11  and  O_37
REMARK    8  A    between atoms: C_12  and  O_15
REMARK    9  A    between atoms: O_15  and  C_16
REMARK   10  A    between atoms: C_17  and  C_29
REMARK   11  A    between atoms: C_21  and  O_28
REMARK   12  A    between atoms: C_23  and  O_27
REMARK   13  A    between atoms: C_31  and  O_36
REMARK   14  A    between atoms: C_32  and  O_35
REMARK                            x       y       z     vdW  Elec       q    Type
REMARK                         _______ _______ _______ _____ _____    ______ ____
ROOT
ATOM      1  C   UNL     1       6.659  -1.300  24.640  0.00  0.00    +0.214 A 
ATOM      2  C   UNL     1       5.476  -2.228  24.590  0.00  0.00    +0.238 A 
ATOM      3  O   UNL     1       4.427  -1.971  25.163  0.00  0.00    -0.283 OA
ATOM      4  C   UNL     1       5.567  -3.422  23.759  0.00  0.00    +0.109 A 
ATOM      5  C   UNL     1       6.521  -3.412  22.757  0.00  0.00    +0.147 A 
ATOM      6  C   UNL     1       6.597  -4.477  21.860  0.00  0.00    +0.092 A 
ATOM      7  C   UNL     1       5.693  -5.534  21.976  0.00  0.00    +0.124 A 
ATOM      8  C   UNL     1       4.740  -5.561  22.988  0.00  0.00    +0.091 A 
ATOM      9  O   UNL     1       7.385  -2.362  22.591  0.00  0.00    -0.451 OA
ATOM     10  C   UNL     1       4.680  -4.500  23.881  0.00  0.00    +0.135 A 
ATOM     11  C   UNL     1       7.488  -1.345  23.562  0.00  0.00    +0.181 A 
ENDROOT
BRANCH  11  12
ATOM     12  C   UNL     1       8.537  -0.337  23.149  0.00  0.00    +0.025 A 
ATOM     13  C   UNL     1       8.271   0.512  22.038  0.00  0.00    +0.015 A 
ATOM     14  C   UNL     1       9.080   1.608  21.712  0.00  0.00    +0.050 A 
ATOM     15  C   UNL     1      10.193   1.865  22.483  0.00  0.00    +0.158 A 
ATOM     16  C   UNL     1      10.541   1.000  23.515  0.00  0.00    +0.159 A 
ATOM     17  C   UNL     1       9.730  -0.092  23.852  0.00  0.00    +0.060 A 
BRANCH  15  18
ATOM     18  O   UNL     1      10.937   2.983  22.235  0.00  0.00    -0.503 OA
ATOM     19  H   UNL     1      10.730   3.219  21.309  0.00  0.00    +0.292 HD
ENDBRANCH  15  18
BRANCH  16  20
ATOM     20  O   UNL     1      11.699   1.273  24.192  0.00  0.00    -0.503 OA
ATOM     21  H   UNL     1      11.530   1.145  25.141  0.00  0.00    +0.292 HD
ENDBRANCH  16  20
ENDBRANCH  11  12
BRANCH   7  22
ATOM     22  O   UNL     1       5.705  -6.593  21.116  0.00  0.00    -0.507 OA
ATOM     23  H   UNL     1       5.246  -6.343  20.303  0.00  0.00    +0.292 HD
ENDBRANCH   7  22
BRANCH  10  24
ATOM     24  O   UNL     1       3.773  -4.529  24.898  0.00  0.00    -0.506 OA
ATOM     25  H   UNL     1       4.078  -5.080  25.637  0.00  0.00    +0.292 HD
ENDBRANCH  10  24
BRANCH   1  26
ATOM     26  O   UNL     1       6.757  -0.389  25.705  0.00  0.00    -0.453 OA
BRANCH  26  29
ATOM     27  C   UNL     1       7.346   3.100  24.828  0.00  0.00    +0.191 C 
ATOM     28  O   UNL     1       7.508   1.896  25.603  0.00  0.00    -0.330 OA
ATOM     29  C   UNL     1       6.445   0.969  25.306  0.00  0.00    +0.340 C 
ATOM     30  C   UNL     1       5.242   1.548  26.078  0.00  0.00    +0.214 C 
ATOM     31  C   UNL     1       4.897   2.913  25.440  0.00  0.00    +0.180 C 
ATOM     32  C   UNL     1       6.121   3.864  25.371  0.00  0.00    +0.178 C 
BRANCH  30  33
ATOM     33  O   UNL     1       5.570   1.774  27.471  0.00  0.00    -0.383 OA
ATOM     34  H   UNL     1       5.109   2.600  27.727  0.00  0.00    +0.210 HD
ENDBRANCH  30  33
BRANCH  31  35
ATOM     35  O   UNL     1       3.829   3.527  26.176  0.00  0.00    -0.386 OA
ATOM     36  H   UNL     1       4.162   4.400  26.458  0.00  0.00    +0.210 HD
ENDBRANCH  31  35
BRANCH  32  37
ATOM     37  O   UNL     1       5.804   4.986  24.541  0.00  0.00    -0.386 OA
ATOM     38  H   UNL     1       5.422   4.632  23.716  0.00  0.00    +0.210 HD
ENDBRANCH  32  37
BRANCH  27  39
ATOM     39  C   UNL     1       8.642   3.928  24.860  0.00  0.00    +0.266 C 
BRANCH  39  40
ATOM     40  O   UNL     1       8.787   4.761  23.689  0.00  0.00    -0.462 OA
BRANCH  40  42
ATOM     41  C   UNL     1       8.960   7.047  24.225  0.00  0.00    +0.136 C 
ATOM     42  C   UNL     1       9.669   5.797  23.799  0.00  0.00    +0.304 C 
ATOM     43  O   UNL     1      10.871   5.739  23.586  0.00  0.00    -0.251 OA
ENDBRANCH  40  42
ENDBRANCH  39  40
ENDBRANCH  27  39
ENDBRANCH  26  29
ENDBRANCH   1  26
TORSDOF 13
ENDMDL
MODEL 9
REMARK VINA RESULT:      -6.9      2.039      3.223
REMARK  Name = 
REMARK  14 active torsions:
REMARK  status: ('A' for Active; 'I' for Inactive)
REMARK    1  A    between atoms: C_1  and  C_2
REMARK    2  A    between atoms: C_2  and  O_4
REMARK    3  A    between atoms: O_4  and  C_5
REMARK    4  A    between atoms: C_5  and  C_6
REMARK    5  A    between atoms: C_8  and  O_39
REMARK    6  A    between atoms: C_10  and  O_38
REMARK    7  A    between atoms: C_11  and  O_37
REMARK    8  A    between atoms: C_12  and  O_15
REMARK    9  A    between atoms: O_15  and  C_16
REMARK   10  A    between atoms: C_17  and  C_29
REMARK   11  A    between atoms: C_21  and  O_28
REMARK   12  A    between atoms: C_23  and  O_27
REMARK   13  A    between atoms: C_31  and  O_36
REMARK   14  A    between atoms: C_32  and  O_35
REMARK                            x       y       z     vdW  Elec       q    Type
REMARK                         _______ _______ _______ _____ _____    ______ ____
ROOT
ATOM      1  C   UNL     1       6.637   0.132  24.693  0.00  0.00    +0.214 A 
ATOM      2  C   UNL     1       6.774   1.623  24.851  0.00  0.00    +0.238 A 
ATOM      3  O   UNL     1       5.948   2.286  25.462  0.00  0.00    -0.283 OA
ATOM      4  C   UNL     1       7.973   2.267  24.331  0.00  0.00    +0.109 A 
ATOM      5  C   UNL     1       9.076   1.458  24.127  0.00  0.00    +0.147 A 
ATOM      6  C   UNL     1      10.287   2.022  23.728  0.00  0.00    +0.092 A 
ATOM      7  C   UNL     1      10.373   3.405  23.558  0.00  0.00    +0.124 A 
ATOM      8  C   UNL     1       9.267   4.226  23.746  0.00  0.00    +0.091 A 
ATOM      9  O   UNL     1       9.030   0.105  24.338  0.00  0.00    -0.451 OA
ATOM     10  C   UNL     1       8.064   3.652  24.135  0.00  0.00    +0.135 A 
ATOM     11  C   UNL     1       7.804  -0.554  24.562  0.00  0.00    +0.181 A 
ENDROOT
BRANCH  11  12
ATOM     12  C   UNL     1       8.035  -2.040  24.725  0.00  0.00    +0.025 A 
ATOM     13  C   UNL     1       7.857  -2.889  23.596  0.00  0.00    +0.015 A 
ATOM     14  C   UNL     1       8.246  -4.234  23.592  0.00  0.00    +0.050 A 
ATOM     15  C   UNL     1       8.805  -4.768  24.733  0.00  0.00    +0.158 A 
ATOM     16  C   UNL     1       8.903  -3.998  25.886  0.00  0.00    +0.159 A 
ATOM     17  C   UNL     1       8.524  -2.648  25.894  0.00  0.00    +0.060 A 
BRANCH  15  18
ATOM     18  O   UNL     1       9.275  -6.050  24.713  0.00  0.00    -0.503 OA
ATOM     19  H   UNL     1       9.105  -6.363  23.802  0.00  0.00    +0.292 HD
ENDBRANCH  15  18
BRANCH  16  20
ATOM     20  O   UNL     1       9.398  -4.613  27.005  0.00  0.00    -0.503 OA
ATOM     21  H   UNL     1       8.830  -4.373  27.757  0.00  0.00    +0.292 HD
ENDBRANCH  16  20
ENDBRANCH  11  12
BRANCH   7  22
ATOM     22  O   UNL     1      11.536   4.017  23.189  0.00  0.00    -0.507 OA
ATOM     23  H   UNL     1      11.662   3.905  22.237  0.00  0.00    +0.292 HD
ENDBRANCH   7  22
BRANCH  10  24
ATOM     24  O   UNL     1       6.963   4.440  24.289  0.00  0.00    -0.506 OA
ATOM     25  H   UNL     1       7.152   5.369  24.080  0.00  0.00    +0.292 HD
ENDBRANCH  10  24
BRANCH   1  26
ATOM     26  O   UNL     1       5.362  -0.444  24.813  0.00  0.00    -0.453 OA
BRANCH  26  29
ATOM     27  C   UNL     1       4.828  -3.329  26.975  0.00  0.00    +0.191 C 
ATOM     28  O   UNL     1       4.580  -2.476  25.842  0.00  0.00    -0.330 OA
ATOM     29  C   UNL     1       5.203  -1.191  26.044  0.00  0.00    +0.340 C 
ATOM     30  C   UNL     1       4.255  -0.490  27.040  0.00  0.00    +0.214 C 
ATOM     31  C   UNL     1       4.313  -1.279  28.368  0.00  0.00    +0.180 C 
ATOM     32  C   UNL     1       4.021  -2.791  28.175  0.00  0.00    +0.178 C 
BRANCH  30  33
ATOM     33  O   UNL     1       2.886  -0.508  26.566  0.00  0.00    -0.383 OA
ATOM     34  H   UNL     1       2.676   0.415  26.312  0.00  0.00    +0.210 HD
ENDBRANCH  30  33
BRANCH  31  35
ATOM     35  O   UNL     1       3.388  -0.708  29.304  0.00  0.00    -0.386 OA
ATOM     36  H   UNL     1       3.412   0.256  29.153  0.00  0.00    +0.210 HD
ENDBRANCH  31  35
BRANCH  32  37
ATOM     37  O   UNL     1       4.350  -3.495  29.376  0.00  0.00    -0.386 OA
ATOM     38  H   UNL     1       4.582  -2.825  30.046  0.00  0.00    +0.210 HD
ENDBRANCH  32  37
BRANCH  27  39
ATOM     39  C   UNL     1       4.491  -4.788  26.622  0.00  0.00    +0.266 C 
BRANCH  39  40
ATOM     40  O   UNL     1       5.670  -5.619  26.545  0.00  0.00    -0.462 OA
BRANCH  40  42
ATOM     41  C   UNL     1       4.987  -6.906  28.393  0.00  0.00    +0.136 C 
ATOM     42  C   UNL     1       6.100  -6.158  27.722  0.00  0.00    +0.304 C 
ATOM     43  O   UNL     1       7.226  -6.059  28.186  0.00  0.00    -0.251 OA
ENDBRANCH  40  42
ENDBRANCH  39  40
ENDBRANCH  27  39
ENDBRANCH  26  29
ENDBRANCH   1  26
TORSDOF 13
ENDMDL
