MODEL 1
REMARK VINA RESULT:      -7.1      0.000      0.000
REMARK  Name = 
REMARK  12 active torsions:
REMARK  status: ('A' for Active; 'I' for Inactive)
REMARK    1  A    between atoms: C_3  and  O_36
REMARK    2  A    between atoms: C_4  and  O_35
REMARK    3  A    between atoms: C_6  and  C_7
REMARK    4  A    between atoms: C_8  and  O_20
REMARK    5  A    between atoms: C_12  and  O_19
REMARK    6  A    between atoms: C_14  and  O_18
REMARK    7  A    between atoms: O_20  and  C_21
REMARK    8  A    between atoms: C_23  and  O_34
REMARK    9  A    between atoms: C_24  and  O_33
REMARK   10  A    between atoms: C_25  and  O_32
REMARK   11  A    between atoms: C_27  and  C_30
REMARK   12  A    between atoms: C_30  and  O_31
REMARK                            x       y       z     vdW  Elec       q    Type
REMARK                         _______ _______ _______ _____ _____    ______ ____
ROOT
ATOM      1  C   UNL     1       7.034  -1.487  23.221  0.00  0.00    +0.181 A 
ATOM      2  O   UNL     1       6.538  -0.335  22.628  0.00  0.00    -0.451 OA
ATOM      3  C   UNL     1       7.089   0.879  22.898  0.00  0.00    +0.147 A 
ATOM      4  C   UNL     1       8.108   1.041  23.817  0.00  0.00    +0.109 A 
ATOM      5  C   UNL     1       8.602   2.338  24.029  0.00  0.00    +0.135 A 
ATOM      6  C   UNL     1       8.091   3.435  23.322  0.00  0.00    +0.091 A 
ATOM      7  C   UNL     1       7.070   3.237  22.400  0.00  0.00    +0.124 A 
ATOM      8  C   UNL     1       8.626  -0.172  24.492  0.00  0.00    +0.238 A 
ATOM      9  O   UNL     1       9.535  -0.064  25.309  0.00  0.00    -0.283 OA
ATOM     10  C   UNL     1       6.570   1.965  22.187  0.00  0.00    +0.092 A 
ATOM     11  C   UNL     1       8.056  -1.516  24.100  0.00  0.00    +0.214 A 
ENDROOT
BRANCH   1  13
ATOM     12  C   UNL     1       5.067  -2.914  23.361  0.00  0.00    +0.015 A 
ATOM     13  C   UNL     1       6.264  -2.624  22.679  0.00  0.00    +0.025 A 
ATOM     14  C   UNL     1       6.821  -3.592  21.831  0.00  0.00    +0.060 A 
ATOM     15  C   UNL     1       6.229  -4.855  21.776  0.00  0.00    +0.159 A 
ATOM     16  C   UNL     1       5.117  -5.166  22.559  0.00  0.00    +0.158 A 
ATOM     17  C   UNL     1       4.503  -4.190  23.325  0.00  0.00    +0.050 A 
BRANCH  15  18
ATOM     18  O   UNL     1       6.797  -5.830  21.017  0.00  0.00    -0.503 OA
ATOM     19  H   UNL     1       7.325  -6.374  21.644  0.00  0.00    +0.292 HD
ENDBRANCH  15  18
BRANCH  16  20
ATOM     20  O   UNL     1       4.695  -6.466  22.593  0.00  0.00    -0.503 OA
ATOM     21  H   UNL     1       5.479  -7.034  22.479  0.00  0.00    +0.292 HD
ENDBRANCH  16  20
ENDBRANCH   1  13
BRANCH   5  22
ATOM     22  O   UNL     1       9.605   2.626  24.911  0.00  0.00    -0.506 OA
ATOM     23  H   UNL     1       9.706   1.871  25.534  0.00  0.00    +0.292 HD
ENDBRANCH   5  22
BRANCH   7  24
ATOM     24  O   UNL     1       6.554   4.257  21.652  0.00  0.00    -0.507 OA
ATOM     25  H   UNL     1       5.896   4.733  22.191  0.00  0.00    +0.292 HD
ENDBRANCH   7  24
BRANCH  11  26
ATOM     26  O   UNL     1       8.452  -2.662  24.784  0.00  0.00    -0.453 OA
BRANCH  26  27
ATOM     27  C   UNL     1       8.342  -2.681  26.226  0.00  0.00    +0.340 C 
ATOM     28  O   UNL     1       9.378  -3.501  26.797  0.00  0.00    -0.331 OA
ATOM     29  C   UNL     1       9.264  -4.944  26.683  0.00  0.00    +0.179 C 
ATOM     30  C   UNL     1       7.843  -5.558  26.592  0.00  0.00    +0.177 C 
ATOM     31  C   UNL     1       6.774  -4.590  26.084  0.00  0.00    +0.180 C 
ATOM     32  C   UNL     1       6.994  -3.227  26.741  0.00  0.00    +0.214 C 
BRANCH  30  33
ATOM     33  O   UNL     1       7.433  -5.977  27.916  0.00  0.00    -0.386 OA
ATOM     34  H   UNL     1       7.638  -6.938  27.935  0.00  0.00    +0.210 HD
ENDBRANCH  30  33
BRANCH  31  35
ATOM     35  O   UNL     1       5.477  -5.109  26.434  0.00  0.00    -0.386 OA
ATOM     36  H   UNL     1       5.648  -5.716  27.186  0.00  0.00    +0.210 HD
ENDBRANCH  31  35
BRANCH  32  37
ATOM     37  O   UNL     1       5.854  -2.391  26.549  0.00  0.00    -0.383 OA
ATOM     38  H   UNL     1       5.098  -2.758  27.042  0.00  0.00    +0.210 HD
ENDBRANCH  32  37
BRANCH  29  39
ATOM     39  C   UNL     1      10.171  -5.421  25.543  0.00  0.00    +0.190 C 
BRANCH  39  40
ATOM     40  O   UNL     1       9.429  -5.626  24.350  0.00  0.00    -0.392 OA
ATOM     41  H   UNL     1       9.780  -4.983  23.705  0.00  0.00    +0.210 HD
ENDBRANCH  39  40
ENDBRANCH  29  39
ENDBRANCH  26  27
ENDBRANCH  11  26
TORSDOF 12
ENDMDL
MODEL 2
REMARK VINA RESULT:      -7.0      2.514      4.724
REMARK  Name = 
REMARK  12 active torsions:
REMARK  status: ('A' for Active; 'I' for Inactive)
REMARK    1  A    between atoms: C_3  and  O_36
REMARK    2  A    between atoms: C_4  and  O_35
REMARK    3  A    between atoms: C_6  and  C_7
REMARK    4  A    between atoms: C_8  and  O_20
REMARK    5  A    between atoms: C_12  and  O_19
REMARK    6  A    between atoms: C_14  and  O_18
REMARK    7  A    between atoms: O_20  and  C_21
REMARK    8  A    between atoms: C_23  and  O_34
REMARK    9  A    between atoms: C_24  and  O_33
REMARK   10  A    between atoms: C_25  and  O_32
REMARK   11  A    between atoms: C_27  and  C_30
REMARK   12  A    between atoms: C_30  and  O_31
REMARK                            x       y       z     vdW  Elec       q    Type
REMARK                         _______ _______ _______ _____ _____    ______ ____
ROOT
ATOM      1  C   UNL     1       6.572  -1.140  25.150  0.00  0.00    +0.181 A 
ATOM      2  O   UNL     1       7.231   0.067  24.969  0.00  0.00    -0.451 OA
ATOM      3  C   UNL     1       8.129   0.225  23.961  0.00  0.00    +0.147 A 
ATOM      4  C   UNL     1       8.486  -0.810  23.118  0.00  0.00    +0.109 A 
ATOM      5  C   UNL     1       9.429  -0.545  22.113  0.00  0.00    +0.135 A 
ATOM      6  C   UNL     1       9.984   0.733  21.955  0.00  0.00    +0.091 A 
ATOM      7  C   UNL     1       9.599   1.754  22.815  0.00  0.00    +0.124 A 
ATOM      8  C   UNL     1       7.824  -2.120  23.319  0.00  0.00    +0.238 A 
ATOM      9  O   UNL     1       8.113  -3.060  22.584  0.00  0.00    -0.283 OA
ATOM     10  C   UNL     1       8.675   1.504  23.814  0.00  0.00    +0.092 A 
ATOM     11  C   UNL     1       6.762  -2.237  24.387  0.00  0.00    +0.214 A 
ENDROOT
BRANCH   1  13
ATOM     12  C   UNL     1       5.653  -1.995  27.236  0.00  0.00    +0.015 A 
ATOM     13  C   UNL     1       5.635  -0.963  26.277  0.00  0.00    +0.025 A 
ATOM     14  C   UNL     1       4.543  -0.086  26.236  0.00  0.00    +0.060 A 
ATOM     15  C   UNL     1       3.454  -0.331  27.073  0.00  0.00    +0.159 A 
ATOM     16  C   UNL     1       3.433  -1.436  27.927  0.00  0.00    +0.158 A 
ATOM     17  C   UNL     1       4.546  -2.251  28.044  0.00  0.00    +0.050 A 
BRANCH  15  18
ATOM     18  O   UNL     1       2.353   0.464  26.996  0.00  0.00    -0.503 OA
ATOM     19  H   UNL     1       2.563   1.132  26.304  0.00  0.00    +0.292 HD
ENDBRANCH  15  18
BRANCH  16  20
ATOM     20  O   UNL     1       2.271  -1.718  28.589  0.00  0.00    -0.503 OA
ATOM     21  H   UNL     1       1.745  -0.898  28.624  0.00  0.00    +0.292 HD
ENDBRANCH  16  20
ENDBRANCH   1  13
BRANCH   5  22
ATOM     22  O   UNL     1       9.864  -1.484  21.221  0.00  0.00    -0.506 OA
ATOM     23  H   UNL     1       9.286  -1.457  20.425  0.00  0.00    +0.292 HD
ENDBRANCH   5  22
BRANCH   7  24
ATOM     24  O   UNL     1      10.073   3.030  22.693  0.00  0.00    -0.507 OA
ATOM     25  H   UNL     1       9.508   3.509  22.059  0.00  0.00    +0.292 HD
ENDBRANCH   7  24
BRANCH  11  26
ATOM     26  O   UNL     1       6.192  -3.476  24.666  0.00  0.00    -0.453 OA
BRANCH  26  27
ATOM     27  C   UNL     1       4.876  -3.767  24.139  0.00  0.00    +0.340 C 
ATOM     28  O   UNL     1       4.075  -4.433  25.132  0.00  0.00    -0.331 OA
ATOM     29  C   UNL     1       4.357  -5.825  25.433  0.00  0.00    +0.179 C 
ATOM     30  C   UNL     1       4.973  -6.703  24.313  0.00  0.00    +0.177 C 
ATOM     31  C   UNL     1       5.712  -5.913  23.233  0.00  0.00    +0.180 C 
ATOM     32  C   UNL     1       4.893  -4.670  22.887  0.00  0.00    +0.214 C 
BRANCH  30  33
ATOM     33  O   UNL     1       3.907  -7.423  23.649  0.00  0.00    -0.386 OA
ATOM     34  H   UNL     1       4.180  -7.435  22.704  0.00  0.00    +0.210 HD
ENDBRANCH  30  33
BRANCH  31  35
ATOM     35  O   UNL     1       5.864  -6.749  22.070  0.00  0.00    -0.386 OA
ATOM     36  H   UNL     1       6.345  -7.540  22.396  0.00  0.00    +0.210 HD
ENDBRANCH  31  35
BRANCH  32  37
ATOM     37  O   UNL     1       5.372  -4.075  21.682  0.00  0.00    -0.383 OA
ATOM     38  H   UNL     1       5.157  -4.656  20.928  0.00  0.00    +0.210 HD
ENDBRANCH  32  37
BRANCH  29  39
ATOM     39  C   UNL     1       5.171  -5.892  26.730  0.00  0.00    +0.190 C 
BRANCH  39  40
ATOM     40  O   UNL     1       6.562  -5.985  26.458  0.00  0.00    -0.392 OA
ATOM     41  H   UNL     1       6.986  -6.190  27.313  0.00  0.00    +0.210 HD
ENDBRANCH  39  40
ENDBRANCH  29  39
ENDBRANCH  26  27
ENDBRANCH  11  26
TORSDOF 12
ENDMDL
MODEL 3
REMARK VINA RESULT:      -6.8      2.550      7.383
REMARK  Name = 
REMARK  12 active torsions:
REMARK  status: ('A' for Active; 'I' for Inactive)
REMARK    1  A    between atoms: C_3  and  O_36
REMARK    2  A    between atoms: C_4  and  O_35
REMARK    3  A    between atoms: C_6  and  C_7
REMARK    4  A    between atoms: C_8  and  O_20
REMARK    5  A    between atoms: C_12  and  O_19
REMARK    6  A    between atoms: C_14  and  O_18
REMARK    7  A    between atoms: O_20  and  C_21
REMARK    8  A    between atoms: C_23  and  O_34
REMARK    9  A    between atoms: C_24  and  O_33
REMARK   10  A    between atoms: C_25  and  O_32
REMARK   11  A    between atoms: C_27  and  C_30
REMARK   12  A    between atoms: C_30  and  O_31
REMARK                            x       y       z     vdW  Elec       q    Type
REMARK                         _______ _______ _______ _____ _____    ______ ____
ROOT
ATOM      1  C   UNL     1       6.237  -1.953  25.211  0.00  0.00    +0.181 A 
ATOM      2  O   UNL     1       5.546  -3.144  25.375  0.00  0.00    -0.451 OA
ATOM      3  C   UNL     1       5.639  -4.136  24.450  0.00  0.00    +0.147 A 
ATOM      4  C   UNL     1       6.355  -3.990  23.277  0.00  0.00    +0.109 A 
ATOM      5  C   UNL     1       6.382  -5.071  22.383  0.00  0.00    +0.135 A 
ATOM      6  C   UNL     1       5.716  -6.271  22.672  0.00  0.00    +0.091 A 
ATOM      7  C   UNL     1       5.009  -6.388  23.864  0.00  0.00    +0.124 A 
ATOM      8  C   UNL     1       7.069  -2.709  23.062  0.00  0.00    +0.238 A 
ATOM      9  O   UNL     1       7.720  -2.548  22.034  0.00  0.00    -0.283 OA
ATOM     10  C   UNL     1       4.970  -5.326  24.750  0.00  0.00    +0.092 A 
ATOM     11  C   UNL     1       7.022  -1.664  24.153  0.00  0.00    +0.214 A 
ENDROOT
BRANCH   1  13
ATOM     12  C   UNL     1       4.717  -0.484  26.419  0.00  0.00    +0.015 A 
ATOM     13  C   UNL     1       5.972  -1.124  26.404  0.00  0.00    +0.025 A 
ATOM     14  C   UNL     1       6.983  -0.670  27.262  0.00  0.00    +0.060 A 
ATOM     15  C   UNL     1       6.750   0.474  28.025  0.00  0.00    +0.159 A 
ATOM     16  C   UNL     1       5.545   1.173  27.931  0.00  0.00    +0.158 A 
ATOM     17  C   UNL     1       4.507   0.678  27.161  0.00  0.00    +0.050 A 
BRANCH  15  18
ATOM     18  O   UNL     1       7.744   0.974  28.808  0.00  0.00    -0.503 OA
ATOM     19  H   UNL     1       8.501   1.130  28.199  0.00  0.00    +0.292 HD
ENDBRANCH  15  18
BRANCH  16  20
ATOM     20  O   UNL     1       5.447   2.378  28.569  0.00  0.00    -0.503 OA
ATOM     21  H   UNL     1       5.781   2.260  29.477  0.00  0.00    +0.292 HD
ENDBRANCH  16  20
ENDBRANCH   1  13
BRANCH   5  22
ATOM     22  O   UNL     1       7.052  -5.048  21.193  0.00  0.00    -0.506 OA
ATOM     23  H   UNL     1       7.991  -4.808  21.362  0.00  0.00    +0.292 HD
ENDBRANCH   5  22
BRANCH   7  24
ATOM     24  O   UNL     1       4.370  -7.540  24.223  0.00  0.00    -0.507 OA
ATOM     25  H   UNL     1       4.189  -8.057  23.417  0.00  0.00    +0.292 HD
ENDBRANCH   7  24
BRANCH  11  26
ATOM     26  O   UNL     1       7.600  -0.415  23.941  0.00  0.00    -0.453 OA
BRANCH  26  27
ATOM     27  C   UNL     1       9.019  -0.259  24.181  0.00  0.00    +0.340 C 
ATOM     28  O   UNL     1       9.246   0.708  25.222  0.00  0.00    -0.331 OA
ATOM     29  C   UNL     1       9.054   2.115  24.919  0.00  0.00    +0.179 C 
ATOM     30  C   UNL     1       9.275   2.582  23.456  0.00  0.00    +0.177 C 
ATOM     31  C   UNL     1       9.127   1.473  22.416  0.00  0.00    +0.180 C 
ATOM     32  C   UNL     1       9.811   0.211  22.942  0.00  0.00    +0.214 C 
BRANCH  30  33
ATOM     33  O   UNL     1      10.623   3.095  23.332  0.00  0.00    -0.386 OA
ATOM     34  H   UNL     1      10.506   3.968  22.895  0.00  0.00    +0.210 HD
ENDBRANCH  30  33
BRANCH  31  35
ATOM     35  O   UNL     1       9.750   1.903  21.190  0.00  0.00    -0.386 OA
ATOM     36  H   UNL     1       9.013   1.958  20.545  0.00  0.00    +0.210 HD
ENDBRANCH  31  35
BRANCH  32  37
ATOM     37  O   UNL     1       9.975  -0.743  21.894  0.00  0.00    -0.383 OA
ATOM     38  H   UNL     1       9.133  -0.841  21.413  0.00  0.00    +0.210 HD
ENDBRANCH  32  37
BRANCH  29  39
ATOM     39  C   UNL     1       7.691   2.554  25.464  0.00  0.00    +0.190 C 
BRANCH  39  40
ATOM     40  O   UNL     1       7.836   3.312  26.656  0.00  0.00    -0.392 OA
ATOM     41  H   UNL     1       7.833   2.661  27.385  0.00  0.00    +0.210 HD
ENDBRANCH  39  40
ENDBRANCH  29  39
ENDBRANCH  26  27
ENDBRANCH  11  26
TORSDOF 12
ENDMDL
MODEL 4
REMARK VINA RESULT:      -6.8      3.539      6.629
REMARK  Name = 
REMARK  12 active torsions:
REMARK  status: ('A' for Active; 'I' for Inactive)
REMARK    1  A    between atoms: C_3  and  O_36
REMARK    2  A    between atoms: C_4  and  O_35
REMARK    3  A    between atoms: C_6  and  C_7
REMARK    4  A    between atoms: C_8  and  O_20
REMARK    5  A    between atoms: C_12  and  O_19
REMARK    6  A    between atoms: C_14  and  O_18
REMARK    7  A    between atoms: O_20  and  C_21
REMARK    8  A    between atoms: C_23  and  O_34
REMARK    9  A    between atoms: C_24  and  O_33
REMARK   10  A    between atoms: C_25  and  O_32
REMARK   11  A    between atoms: C_27  and  C_30
REMARK   12  A    between atoms: C_30  and  O_31
REMARK                            x       y       z     vdW  Elec       q    Type
REMARK                         _______ _______ _______ _____ _____    ______ ____
ROOT
ATOM      1  C   UNL     1       9.222   2.080  24.077  0.00  0.00    +0.181 A 
ATOM      2  O   UNL     1      10.503   2.385  23.640  0.00  0.00    -0.451 OA
ATOM      3  C   UNL     1      10.983   3.655  23.721  0.00  0.00    +0.147 A 
ATOM      4  C   UNL     1      10.210   4.711  24.166  0.00  0.00    +0.109 A 
ATOM      5  C   UNL     1      10.797   5.985  24.204  0.00  0.00    +0.135 A 
ATOM      6  C   UNL     1      12.130   6.184  23.816  0.00  0.00    +0.091 A 
ATOM      7  C   UNL     1      12.882   5.100  23.378  0.00  0.00    +0.124 A 
ATOM      8  C   UNL     1       8.825   4.414  24.601  0.00  0.00    +0.238 A 
ATOM      9  O   UNL     1       8.114   5.328  25.008  0.00  0.00    -0.283 OA
ATOM     10  C   UNL     1      12.313   3.839  23.331  0.00  0.00    +0.092 A 
ATOM     11  C   UNL     1       8.355   2.978  24.587  0.00  0.00    +0.214 A 
ENDROOT
BRANCH   1  13
ATOM     12  C   UNL     1       9.025  -0.118  25.105  0.00  0.00    +0.015 A 
ATOM     13  C   UNL     1       9.036   0.625  23.908  0.00  0.00    +0.025 A 
ATOM     14  C   UNL     1       9.248  -0.038  22.692  0.00  0.00    +0.060 A 
ATOM     15  C   UNL     1       9.551  -1.400  22.715  0.00  0.00    +0.159 A 
ATOM     16  C   UNL     1       9.664  -2.095  23.921  0.00  0.00    +0.158 A 
ATOM     17  C   UNL     1       9.362  -1.471  25.119  0.00  0.00    +0.050 A 
BRANCH  15  18
ATOM     18  O   UNL     1       9.832  -2.046  21.552  0.00  0.00    -0.503 OA
ATOM     19  H   UNL     1       9.340  -1.555  20.856  0.00  0.00    +0.292 HD
ENDBRANCH  15  18
BRANCH  16  20
ATOM     20  O   UNL     1      10.134  -3.377  23.885  0.00  0.00    -0.503 OA
ATOM     21  H   UNL     1      10.164  -3.708  24.801  0.00  0.00    +0.292 HD
ENDBRANCH  16  20
ENDBRANCH   1  13
BRANCH   5  22
ATOM     22  O   UNL     1      10.137   7.105  24.622  0.00  0.00    -0.506 OA
ATOM     23  H   UNL     1       9.278   7.164  24.145  0.00  0.00    +0.292 HD
ENDBRANCH   5  22
BRANCH   7  24
ATOM     24  O   UNL     1      14.195   5.218  23.022  0.00  0.00    -0.507 OA
ATOM     25  H   UNL     1      14.586   4.325  22.984  0.00  0.00    +0.292 HD
ENDBRANCH   7  24
BRANCH  11  26
ATOM     26  O   UNL     1       7.031   2.680  24.896  0.00  0.00    -0.453 OA
BRANCH  26  27
ATOM     27  C   UNL     1       6.293   1.807  24.008  0.00  0.00    +0.340 C 
ATOM     28  O   UNL     1       6.013   2.478  22.766  0.00  0.00    -0.331 OA
ATOM     29  C   UNL     1       4.989   3.507  22.747  0.00  0.00    +0.179 C 
ATOM     30  C   UNL     1       3.831   3.402  23.773  0.00  0.00    +0.177 C 
ATOM     31  C   UNL     1       4.167   2.578  25.015  0.00  0.00    +0.180 C 
ATOM     32  C   UNL     1       4.941   1.333  24.584  0.00  0.00    +0.214 C 
BRANCH  30  33
ATOM     33  O   UNL     1       2.704   2.755  23.135  0.00  0.00    -0.386 OA
ATOM     34  H   UNL     1       2.030   2.692  23.848  0.00  0.00    +0.210 HD
ENDBRANCH  30  33
BRANCH  31  35
ATOM     35  O   UNL     1       2.939   2.201  25.667  0.00  0.00    -0.386 OA
ATOM     36  H   UNL     1       2.495   1.604  25.028  0.00  0.00    +0.210 HD
ENDBRANCH  31  35
BRANCH  32  37
ATOM     37  O   UNL     1       5.002   0.388  25.651  0.00  0.00    -0.383 OA
ATOM     38  H   UNL     1       4.271   0.557  26.273  0.00  0.00    +0.210 HD
ENDBRANCH  32  37
BRANCH  29  39
ATOM     39  C   UNL     1       5.670   4.879  22.786  0.00  0.00    +0.190 C 
BRANCH  39  40
ATOM     40  O   UNL     1       6.688   4.974  21.800  0.00  0.00    -0.392 OA
ATOM     41  H   UNL     1       7.415   5.476  22.217  0.00  0.00    +0.210 HD
ENDBRANCH  39  40
ENDBRANCH  29  39
ENDBRANCH  26  27
ENDBRANCH  11  26
TORSDOF 12
ENDMDL
MODEL 5
REMARK VINA RESULT:      -6.8      2.850      7.716
REMARK  Name = 
REMARK  12 active torsions:
REMARK  status: ('A' for Active; 'I' for Inactive)
REMARK    1  A    between atoms: C_3  and  O_36
REMARK    2  A    between atoms: C_4  and  O_35
REMARK    3  A    between atoms: C_6  and  C_7
REMARK    4  A    between atoms: C_8  and  O_20
REMARK    5  A    between atoms: C_12  and  O_19
REMARK    6  A    between atoms: C_14  and  O_18
REMARK    7  A    between atoms: O_20  and  C_21
REMARK    8  A    between atoms: C_23  and  O_34
REMARK    9  A    between atoms: C_24  and  O_33
REMARK   10  A    between atoms: C_25  and  O_32
REMARK   11  A    between atoms: C_27  and  C_30
REMARK   12  A    between atoms: C_30  and  O_31
REMARK                            x       y       z     vdW  Elec       q    Type
REMARK                         _______ _______ _______ _____ _____    ______ ____
ROOT
ATOM      1  C   UNL     1       7.498  -0.745  24.899  0.00  0.00    +0.181 A 
ATOM      2  O   UNL     1       8.033  -1.921  25.403  0.00  0.00    -0.451 OA
ATOM      3  C   UNL     1       7.269  -2.778  26.130  0.00  0.00    +0.147 A 
ATOM      4  C   UNL     1       5.957  -2.498  26.466  0.00  0.00    +0.109 A 
ATOM      5  C   UNL     1       5.257  -3.446  27.227  0.00  0.00    +0.135 A 
ATOM      6  C   UNL     1       5.858  -4.648  27.625  0.00  0.00    +0.091 A 
ATOM      7  C   UNL     1       7.176  -4.903  27.266  0.00  0.00    +0.124 A 
ATOM      8  C   UNL     1       5.378  -1.227  25.972  0.00  0.00    +0.238 A 
ATOM      9  O   UNL     1       4.214  -0.950  26.246  0.00  0.00    -0.283 OA
ATOM     10  C   UNL     1       7.880  -3.974  26.521  0.00  0.00    +0.092 A 
ATOM     11  C   UNL     1       6.225  -0.342  25.087  0.00  0.00    +0.214 A 
ENDROOT
BRANCH   1  13
ATOM     12  C   UNL     1       9.665   0.364  24.869  0.00  0.00    +0.015 A 
ATOM     13  C   UNL     1       8.560  -0.080  24.117  0.00  0.00    +0.025 A 
ATOM     14  C   UNL     1       8.355   0.436  22.830  0.00  0.00    +0.060 A 
ATOM     15  C   UNL     1       9.191   1.457  22.377  0.00  0.00    +0.159 A 
ATOM     16  C   UNL     1      10.203   1.975  23.187  0.00  0.00    +0.158 A 
ATOM     17  C   UNL     1      10.474   1.407  24.420  0.00  0.00    +0.050 A 
BRANCH  15  18
ATOM     18  O   UNL     1       8.964   2.022  21.161  0.00  0.00    -0.503 OA
ATOM     19  H   UNL     1       9.854   2.140  20.758  0.00  0.00    +0.292 HD
ENDBRANCH  15  18
BRANCH  16  20
ATOM     20  O   UNL     1      10.869   3.088  22.754  0.00  0.00    -0.503 OA
ATOM     21  H   UNL     1      11.729   3.115  23.213  0.00  0.00    +0.292 HD
ENDBRANCH  16  20
ENDBRANCH   1  13
BRANCH   5  22
ATOM     22  O   UNL     1       3.959  -3.283  27.623  0.00  0.00    -0.506 OA
ATOM     23  H   UNL     1       3.811  -2.335  27.841  0.00  0.00    +0.292 HD
ENDBRANCH   5  22
BRANCH   7  24
ATOM     24  O   UNL     1       7.809  -6.069  27.589  0.00  0.00    -0.507 OA
ATOM     25  H   UNL     1       8.762  -5.888  27.683  0.00  0.00    +0.292 HD
ENDBRANCH   7  24
BRANCH  11  26
ATOM     26  O   UNL     1       5.744   0.902  24.688  0.00  0.00    -0.453 OA
BRANCH  26  27
ATOM     27  C   UNL     1       5.373   1.861  25.706  0.00  0.00    +0.340 C 
ATOM     28  O   UNL     1       4.364   2.757  25.206  0.00  0.00    -0.331 OA
ATOM     29  C   UNL     1       4.756   3.785  24.258  0.00  0.00    +0.179 C 
ATOM     30  C   UNL     1       6.211   4.318  24.322  0.00  0.00    +0.177 C 
ATOM     31  C   UNL     1       7.204   3.354  24.969  0.00  0.00    +0.180 C 
ATOM     32  C   UNL     1       6.548   2.729  26.201  0.00  0.00    +0.214 C 
BRANCH  30  33
ATOM     33  O   UNL     1       6.227   5.530  25.114  0.00  0.00    -0.386 OA
ATOM     34  H   UNL     1       6.428   6.238  24.462  0.00  0.00    +0.210 HD
ENDBRANCH  30  33
BRANCH  31  35
ATOM     35  O   UNL     1       8.382   4.090  25.351  0.00  0.00    -0.386 OA
ATOM     36  H   UNL     1       9.079   3.775  24.738  0.00  0.00    +0.210 HD
ENDBRANCH  31  35
BRANCH  32  37
ATOM     37  O   UNL     1       7.526   2.074  27.009  0.00  0.00    -0.383 OA
ATOM     38  H   UNL     1       7.089   1.680  27.786  0.00  0.00    +0.210 HD
ENDBRANCH  32  37
BRANCH  29  39
ATOM     39  C   UNL     1       4.372   3.326  22.847  0.00  0.00    +0.190 C 
BRANCH  39  40
ATOM     40  O   UNL     1       5.304   2.378  22.346  0.00  0.00    -0.392 OA
ATOM     41  H   UNL     1       5.970   2.895  21.853  0.00  0.00    +0.210 HD
ENDBRANCH  39  40
ENDBRANCH  29  39
ENDBRANCH  26  27
ENDBRANCH  11  26
TORSDOF 12
ENDMDL
MODEL 6
REMARK VINA RESULT:      -6.7      2.445      7.132
REMARK  Name = 
REMARK  12 active torsions:
REMARK  status: ('A' for Active; 'I' for Inactive)
REMARK    1  A    between atoms: C_3  and  O_36
REMARK    2  A    between atoms: C_4  and  O_35
REMARK    3  A    between atoms: C_6  and  C_7
REMARK    4  A    between atoms: C_8  and  O_20
REMARK    5  A    between atoms: C_12  and  O_19
REMARK    6  A    between atoms: C_14  and  O_18
REMARK    7  A    between atoms: O_20  and  C_21
REMARK    8  A    between atoms: C_23  and  O_34
REMARK    9  A    between atoms: C_24  and  O_33
REMARK   10  A    between atoms: C_25  and  O_32
REMARK   11  A    between atoms: C_27  and  C_30
REMARK   12  A    between atoms: C_30  and  O_31
REMARK                            x       y       z     vdW  Elec       q    Type
REMARK                         _______ _______ _______ _____ _____    ______ ____
ROOT
ATOM      1  C   UNL     1       7.052  -1.330  23.145  0.00  0.00    +0.181 A 
ATOM      2  O   UNL     1       7.250  -2.562  22.539  0.00  0.00    -0.451 OA
ATOM      3  C   UNL     1       6.595  -3.669  22.981  0.00  0.00    +0.147 A 
ATOM      4  C   UNL     1       5.766  -3.646  24.086  0.00  0.00    +0.109 A 
ATOM      5  C   UNL     1       5.143  -4.845  24.465  0.00  0.00    +0.135 A 
ATOM      6  C   UNL     1       5.341  -6.029  23.741  0.00  0.00    +0.091 A 
ATOM      7  C   UNL     1       6.177  -6.017  22.631  0.00  0.00    +0.124 A 
ATOM      8  C   UNL     1       5.571  -2.348  24.773  0.00  0.00    +0.238 A 
ATOM      9  O   UNL     1       4.836  -2.291  25.755  0.00  0.00    -0.283 OA
ATOM     10  C   UNL     1       6.802  -4.843  22.250  0.00  0.00    +0.092 A 
ATOM     11  C   UNL     1       6.238  -1.119  24.200  0.00  0.00    +0.214 A 
ENDROOT
BRANCH   1  13
ATOM     12  C   UNL     1       9.203  -0.693  22.201  0.00  0.00    +0.015 A 
ATOM     13  C   UNL     1       7.854  -0.341  22.398  0.00  0.00    +0.025 A 
ATOM     14  C   UNL     1       7.464   0.996  22.235  0.00  0.00    +0.060 A 
ATOM     15  C   UNL     1       8.447   1.955  21.991  0.00  0.00    +0.159 A 
ATOM     16  C   UNL     1       9.797   1.607  21.926  0.00  0.00    +0.158 A 
ATOM     17  C   UNL     1      10.181   0.278  21.989  0.00  0.00    +0.050 A 
BRANCH  15  18
ATOM     18  O   UNL     1       8.099   3.267  21.902  0.00  0.00    -0.503 OA
ATOM     19  H   UNL     1       7.149   3.267  21.646  0.00  0.00    +0.292 HD
ENDBRANCH  15  18
BRANCH  16  20
ATOM     20  O   UNL     1      10.721   2.612  21.860  0.00  0.00    -0.503 OA
ATOM     21  H   UNL     1      11.506   2.325  22.360  0.00  0.00    +0.292 HD
ENDBRANCH  16  20
ENDBRANCH   1  13
BRANCH   5  22
ATOM     22  O   UNL     1       4.304  -4.951  25.539  0.00  0.00    -0.506 OA
ATOM     23  H   UNL     1       4.127  -4.049  25.893  0.00  0.00    +0.292 HD
ENDBRANCH   5  22
BRANCH   7  24
ATOM     24  O   UNL     1       6.383  -7.125  21.860  0.00  0.00    -0.507 OA
ATOM     25  H   UNL     1       7.276  -7.071  21.474  0.00  0.00    +0.292 HD
ENDBRANCH   7  24
BRANCH  11  26
ATOM     26  O   UNL     1       6.155   0.094  24.877  0.00  0.00    -0.453 OA
BRANCH  26  27
ATOM     27  C   UNL     1       6.880   0.245  26.120  0.00  0.00    +0.340 C 
ATOM     28  O   UNL     1       5.975   0.578  27.189  0.00  0.00    -0.331 OA
ATOM     29  C   UNL     1       5.428   1.922  27.244  0.00  0.00    +0.179 C 
ATOM     30  C   UNL     1       6.271   3.077  26.642  0.00  0.00    +0.177 C 
ATOM     31  C   UNL     1       7.289   2.629  25.594  0.00  0.00    +0.180 C 
ATOM     32  C   UNL     1       7.961   1.345  26.081  0.00  0.00    +0.214 C 
BRANCH  30  33
ATOM     33  O   UNL     1       7.018   3.710  27.708  0.00  0.00    -0.386 OA
ATOM     34  H   UNL     1       6.456   3.579  28.504  0.00  0.00    +0.210 HD
ENDBRANCH  30  33
BRANCH  31  35
ATOM     35  O   UNL     1       8.268   3.671  25.425  0.00  0.00    -0.386 OA
ATOM     36  H   UNL     1       9.118   3.195  25.308  0.00  0.00    +0.210 HD
ENDBRANCH  31  35
BRANCH  32  37
ATOM     37  O   UNL     1       9.124   1.064  25.302  0.00  0.00    -0.383 OA
ATOM     38  H   UNL     1       9.416   1.879  24.853  0.00  0.00    +0.210 HD
ENDBRANCH  32  37
BRANCH  29  39
ATOM     39  C   UNL     1       4.002   1.897  26.683  0.00  0.00    +0.190 C 
BRANCH  39  40
ATOM     40  O   UNL     1       3.603   0.573  26.360  0.00  0.00    -0.392 OA
ATOM     41  H   UNL     1       2.717   0.459  26.756  0.00  0.00    +0.210 HD
ENDBRANCH  39  40
ENDBRANCH  29  39
ENDBRANCH  26  27
ENDBRANCH  11  26
TORSDOF 12
ENDMDL
MODEL 7
REMARK VINA RESULT:      -6.6      2.658      7.132
REMARK  Name = 
REMARK  12 active torsions:
REMARK  status: ('A' for Active; 'I' for Inactive)
REMARK    1  A    between atoms: C_3  and  O_36
REMARK    2  A    between atoms: C_4  and  O_35
REMARK    3  A    between atoms: C_6  and  C_7
REMARK    4  A    between atoms: C_8  and  O_20
REMARK    5  A    between atoms: C_12  and  O_19
REMARK    6  A    between atoms: C_14  and  O_18
REMARK    7  A    between atoms: O_20  and  C_21
REMARK    8  A    between atoms: C_23  and  O_34
REMARK    9  A    between atoms: C_24  and  O_33
REMARK   10  A    between atoms: C_25  and  O_32
REMARK   11  A    between atoms: C_27  and  C_30
REMARK   12  A    between atoms: C_30  and  O_31
REMARK                            x       y       z     vdW  Elec       q    Type
REMARK                         _______ _______ _______ _____ _____    ______ ____
ROOT
ATOM      1  C   UNL     1       6.994  -0.913  23.279  0.00  0.00    +0.181 A 
ATOM      2  O   UNL     1       7.072  -2.073  22.523  0.00  0.00    -0.451 OA
ATOM      3  C   UNL     1       6.257  -3.130  22.783  0.00  0.00    +0.147 A 
ATOM      4  C   UNL     1       5.370  -3.137  23.843  0.00  0.00    +0.109 A 
ATOM      5  C   UNL     1       4.578  -4.281  24.029  0.00  0.00    +0.135 A 
ATOM      6  C   UNL     1       4.670  -5.379  23.162  0.00  0.00    +0.091 A 
ATOM      7  C   UNL     1       5.569  -5.338  22.103  0.00  0.00    +0.124 A 
ATOM      8  C   UNL     1       5.298  -1.923  24.688  0.00  0.00    +0.238 A 
ATOM      9  O   UNL     1       4.516  -1.893  25.634  0.00  0.00    -0.283 OA
ATOM     10  C   UNL     1       6.359  -4.218  21.911  0.00  0.00    +0.092 A 
ATOM     11  C   UNL     1       6.149  -0.731  24.315  0.00  0.00    +0.214 A 
ENDROOT
BRANCH   1  13
ATOM     12  C   UNL     1       9.310  -0.214  23.009  0.00  0.00    +0.015 A 
ATOM     13  C   UNL     1       7.959   0.048  22.709  0.00  0.00    +0.025 A 
ATOM     14  C   UNL     1       7.594   1.321  22.251  0.00  0.00    +0.060 A 
ATOM     15  C   UNL     1       8.564   2.323  22.214  0.00  0.00    +0.159 A 
ATOM     16  C   UNL     1       9.872   2.080  22.638  0.00  0.00    +0.158 A 
ATOM     17  C   UNL     1      10.264   0.803  23.000  0.00  0.00    +0.050 A 
BRANCH  15  18
ATOM     18  O   UNL     1       8.214   3.585  21.843  0.00  0.00    -0.503 OA
ATOM     19  H   UNL     1       8.729   3.767  21.025  0.00  0.00    +0.292 HD
ENDBRANCH  15  18
BRANCH  16  20
ATOM     20  O   UNL     1      10.724   3.143  22.743  0.00  0.00    -0.503 OA
ATOM     21  H   UNL     1      10.184   3.955  22.760  0.00  0.00    +0.292 HD
ENDBRANCH  16  20
ENDBRANCH   1  13
BRANCH   5  22
ATOM     22  O   UNL     1       3.668  -4.409  25.039  0.00  0.00    -0.506 OA
ATOM     23  H   UNL     1       4.076  -4.092  25.877  0.00  0.00    +0.292 HD
ENDBRANCH   5  22
BRANCH   7  24
ATOM     24  O   UNL     1       5.681  -6.357  21.201  0.00  0.00    -0.507 OA
ATOM     25  H   UNL     1       6.247  -6.057  20.465  0.00  0.00    +0.292 HD
ENDBRANCH   7  24
BRANCH  11  26
ATOM     26  O   UNL     1       6.178   0.387  25.144  0.00  0.00    -0.453 OA
BRANCH  26  27
ATOM     27  C   UNL     1       5.141   1.386  24.995  0.00  0.00    +0.340 C 
ATOM     28  O   UNL     1       5.720   2.665  24.681  0.00  0.00    -0.331 OA
ATOM     29  C   UNL     1       6.396   3.400  25.735  0.00  0.00    +0.179 C 
ATOM     30  C   UNL     1       5.931   3.171  27.197  0.00  0.00    +0.177 C 
ATOM     31  C   UNL     1       5.223   1.836  27.427  0.00  0.00    +0.180 C 
ATOM     32  C   UNL     1       4.274   1.576  26.257  0.00  0.00    +0.214 C 
BRANCH  30  33
ATOM     33  O   UNL     1       4.989   4.211  27.552  0.00  0.00    -0.386 OA
ATOM     34  H   UNL     1       4.138   3.904  27.164  0.00  0.00    +0.210 HD
ENDBRANCH  30  33
BRANCH  31  35
ATOM     35  O   UNL     1       4.484   1.911  28.661  0.00  0.00    -0.386 OA
ATOM     36  H   UNL     1       4.642   1.046  29.096  0.00  0.00    +0.210 HD
ENDBRANCH  31  35
BRANCH  32  37
ATOM     37  O   UNL     1       3.371   0.517  26.573  0.00  0.00    -0.383 OA
ATOM     38  H   UNL     1       3.435  -0.176  25.890  0.00  0.00    +0.210 HD
ENDBRANCH  32  37
BRANCH  29  39
ATOM     39  C   UNL     1       7.908   3.209  25.576  0.00  0.00    +0.190 C 
BRANCH  39  40
ATOM     40  O   UNL     1       8.294   1.882  25.905  0.00  0.00    -0.392 OA
ATOM     41  H   UNL     1       7.636   1.301  25.477  0.00  0.00    +0.210 HD
ENDBRANCH  39  40
ENDBRANCH  29  39
ENDBRANCH  26  27
ENDBRANCH  11  26
TORSDOF 12
ENDMDL
MODEL 8
REMARK VINA RESULT:      -6.6      2.687      5.891
REMARK  Name = 
REMARK  12 active torsions:
REMARK  status: ('A' for Active; 'I' for Inactive)
REMARK    1  A    between atoms: C_3  and  O_36
REMARK    2  A    between atoms: C_4  and  O_35
REMARK    3  A    between atoms: C_6  and  C_7
REMARK    4  A    between atoms: C_8  and  O_20
REMARK    5  A    between atoms: C_12  and  O_19
REMARK    6  A    between atoms: C_14  and  O_18
REMARK    7  A    between atoms: O_20  and  C_21
REMARK    8  A    between atoms: C_23  and  O_34
REMARK    9  A    between atoms: C_24  and  O_33
REMARK   10  A    between atoms: C_25  and  O_32
REMARK   11  A    between atoms: C_27  and  C_30
REMARK   12  A    between atoms: C_30  and  O_31
REMARK                            x       y       z     vdW  Elec       q    Type
REMARK                         _______ _______ _______ _____ _____    ______ ____
ROOT
ATOM      1  C   UNL     1       6.268  -1.955  25.354  0.00  0.00    +0.181 A 
ATOM      2  O   UNL     1       5.367  -2.553  26.223  0.00  0.00    -0.451 OA
ATOM      3  C   UNL     1       4.935  -1.899  27.335  0.00  0.00    +0.147 A 
ATOM      4  C   UNL     1       5.415  -0.654  27.695  0.00  0.00    +0.109 A 
ATOM      5  C   UNL     1       4.909  -0.068  28.865  0.00  0.00    +0.135 A 
ATOM      6  C   UNL     1       3.937  -0.715  29.642  0.00  0.00    +0.091 A 
ATOM      7  C   UNL     1       3.471  -1.964  29.249  0.00  0.00    +0.124 A 
ATOM      8  C   UNL     1       6.408  -0.014  26.800  0.00  0.00    +0.238 A 
ATOM      9  O   UNL     1       6.850   1.094  27.087  0.00  0.00    -0.283 OA
ATOM     10  C   UNL     1       3.966  -2.555  28.100  0.00  0.00    +0.092 A 
ATOM     11  C   UNL     1       6.796  -0.726  25.525  0.00  0.00    +0.214 A 
ENDROOT
BRANCH   1  13
ATOM     12  C   UNL     1       5.354  -3.126  23.425  0.00  0.00    +0.015 A 
ATOM     13  C   UNL     1       6.483  -2.893  24.234  0.00  0.00    +0.025 A 
ATOM     14  C   UNL     1       7.560  -3.789  24.180  0.00  0.00    +0.060 A 
ATOM     15  C   UNL     1       7.433  -4.944  23.409  0.00  0.00    +0.159 A 
ATOM     16  C   UNL     1       6.255  -5.224  22.714  0.00  0.00    +0.158 A 
ATOM     17  C   UNL     1       5.224  -4.300  22.683  0.00  0.00    +0.050 A 
BRANCH  15  18
ATOM     18  O   UNL     1       8.437  -5.862  23.402  0.00  0.00    -0.503 OA
ATOM     19  H   UNL     1       9.003  -5.622  22.633  0.00  0.00    +0.292 HD
ENDBRANCH  15  18
BRANCH  16  20
ATOM     20  O   UNL     1       6.130  -6.450  22.123  0.00  0.00    -0.503 OA
ATOM     21  H   UNL     1       6.891  -6.991  22.401  0.00  0.00    +0.292 HD
ENDBRANCH  16  20
ENDBRANCH   1  13
BRANCH   5  22
ATOM     22  O   UNL     1       5.305   1.156  29.326  0.00  0.00    -0.506 OA
ATOM     23  H   UNL     1       5.611   1.698  28.564  0.00  0.00    +0.292 HD
ENDBRANCH   5  22
BRANCH   7  24
ATOM     24  O   UNL     1       2.499  -2.631  29.939  0.00  0.00    -0.507 OA
ATOM     25  H   UNL     1       1.708  -2.063  29.984  0.00  0.00    +0.292 HD
ENDBRANCH   7  24
BRANCH  11  26
ATOM     26  O   UNL     1       7.797  -0.199  24.714  0.00  0.00    -0.453 OA
BRANCH  26  27
ATOM     27  C   UNL     1       7.455   0.868  23.798  0.00  0.00    +0.340 C 
ATOM     28  O   UNL     1       7.497   0.394  22.440  0.00  0.00    -0.331 OA
ATOM     29  C   UNL     1       8.791   0.163  21.824  0.00  0.00    +0.179 C 
ATOM     30  C   UNL     1       9.995   1.006  22.318  0.00  0.00    +0.177 C 
ATOM     31  C   UNL     1       9.828   1.570  23.729  0.00  0.00    +0.180 C 
ATOM     32  C   UNL     1       8.398   2.088  23.884  0.00  0.00    +0.214 C 
BRANCH  30  33
ATOM     33  O   UNL     1      10.163   2.138  21.432  0.00  0.00    -0.386 OA
ATOM     34  H   UNL     1      11.127   2.145  21.234  0.00  0.00    +0.210 HD
ENDBRANCH  30  33
BRANCH  31  35
ATOM     35  O   UNL     1      10.769   2.645  23.912  0.00  0.00    -0.386 OA
ATOM     36  H   UNL     1      10.699   3.177  23.091  0.00  0.00    +0.210 HD
ENDBRANCH  31  35
BRANCH  32  37
ATOM     37  O   UNL     1       8.284   2.897  25.053  0.00  0.00    -0.383 OA
ATOM     38  H   UNL     1       9.143   3.317  25.239  0.00  0.00    +0.210 HD
ENDBRANCH  32  37
BRANCH  29  39
ATOM     39  C   UNL     1       9.090  -1.340  21.856  0.00  0.00    +0.190 C 
BRANCH  39  40
ATOM     40  O   UNL     1      10.482  -1.589  21.726  0.00  0.00    -0.392 OA
ATOM     41  H   UNL     1      10.583  -2.108  20.904  0.00  0.00    +0.210 HD
ENDBRANCH  39  40
ENDBRANCH  29  39
ENDBRANCH  26  27
ENDBRANCH  11  26
TORSDOF 12
ENDMDL
MODEL 9
REMARK VINA RESULT:      -6.6      2.560      7.180
REMARK  Name = 
REMARK  12 active torsions:
REMARK  status: ('A' for Active; 'I' for Inactive)
REMARK    1  A    between atoms: C_3  and  O_36
REMARK    2  A    between atoms: C_4  and  O_35
REMARK    3  A    between atoms: C_6  and  C_7
REMARK    4  A    between atoms: C_8  and  O_20
REMARK    5  A    between atoms: C_12  and  O_19
REMARK    6  A    between atoms: C_14  and  O_18
REMARK    7  A    between atoms: O_20  and  C_21
REMARK    8  A    between atoms: C_23  and  O_34
REMARK    9  A    between atoms: C_24  and  O_33
REMARK   10  A    between atoms: C_25  and  O_32
REMARK   11  A    between atoms: C_27  and  C_30
REMARK   12  A    between atoms: C_30  and  O_31
REMARK                            x       y       z     vdW  Elec       q    Type
REMARK                         _______ _______ _______ _____ _____    ______ ____
ROOT
ATOM      1  C   UNL     1       6.271  -2.176  25.332  0.00  0.00    +0.181 A 
ATOM      2  O   UNL     1       5.463  -3.299  25.435  0.00  0.00    -0.451 OA
ATOM      3  C   UNL     1       5.555  -4.309  24.530  0.00  0.00    +0.147 A 
ATOM      4  C   UNL     1       6.393  -4.244  23.432  0.00  0.00    +0.109 A 
ATOM      5  C   UNL     1       6.409  -5.337  22.552  0.00  0.00    +0.135 A 
ATOM      6  C   UNL     1       5.613  -6.468  22.781  0.00  0.00    +0.091 A 
ATOM      7  C   UNL     1       4.786  -6.504  23.898  0.00  0.00    +0.124 A 
ATOM      8  C   UNL     1       7.236  -3.035  23.281  0.00  0.00    +0.238 A 
ATOM      9  O   UNL     1       7.996  -2.948  22.321  0.00  0.00    -0.283 OA
ATOM     10  C   UNL     1       4.757  -5.431  24.770  0.00  0.00    +0.092 A 
ATOM     11  C   UNL     1       7.178  -1.974  24.355  0.00  0.00    +0.214 A 
ENDROOT
BRANCH   1  13
ATOM     12  C   UNL     1       4.623  -0.897  26.588  0.00  0.00    +0.015 A 
ATOM     13  C   UNL     1       5.966  -1.310  26.489  0.00  0.00    +0.025 A 
ATOM     14  C   UNL     1       6.950  -0.619  27.209  0.00  0.00    +0.060 A 
ATOM     15  C   UNL     1       6.583   0.528  27.914  0.00  0.00    +0.159 A 
ATOM     16  C   UNL     1       5.268   0.997  27.896  0.00  0.00    +0.158 A 
ATOM     17  C   UNL     1       4.273   0.269  27.268  0.00  0.00    +0.050 A 
BRANCH  15  18
ATOM     18  O   UNL     1       7.535   1.255  28.559  0.00  0.00    -0.503 OA
ATOM     19  H   UNL     1       7.387   1.086  29.517  0.00  0.00    +0.292 HD
ENDBRANCH  15  18
BRANCH  16  20
ATOM     20  O   UNL     1       5.011   2.216  28.459  0.00  0.00    -0.503 OA
ATOM     21  H   UNL     1       4.593   2.059  29.326  0.00  0.00    +0.292 HD
ENDBRANCH  16  20
ENDBRANCH   1  13
BRANCH   5  22
ATOM     22  O   UNL     1       7.191  -5.391  21.433  0.00  0.00    -0.506 OA
ATOM     23  H   UNL     1       6.647  -5.717  20.681  0.00  0.00    +0.292 HD
ENDBRANCH   5  22
BRANCH   7  24
ATOM     24  O   UNL     1       4.014  -7.590  24.200  0.00  0.00    -0.507 OA
ATOM     25  H   UNL     1       3.230  -7.284  24.692  0.00  0.00    +0.292 HD
ENDBRANCH   7  24
BRANCH  11  26
ATOM     26  O   UNL     1       7.883  -0.785  24.194  0.00  0.00    -0.453 OA
BRANCH  26  27
ATOM     27  C   UNL     1       7.384   0.193  23.251  0.00  0.00    +0.340 C 
ATOM     28  O   UNL     1       8.179   0.181  22.051  0.00  0.00    -0.331 OA
ATOM     29  C   UNL     1       9.506   0.768  22.090  0.00  0.00    +0.179 C 
ATOM     30  C   UNL     1       9.767   1.914  23.102  0.00  0.00    +0.177 C 
ATOM     31  C   UNL     1       8.810   1.927  24.293  0.00  0.00    +0.180 C 
ATOM     32  C   UNL     1       7.396   1.639  23.790  0.00  0.00    +0.214 C 
BRANCH  30  33
ATOM     33  O   UNL     1       9.605   3.180  22.420  0.00  0.00    -0.386 OA
ATOM     34  H   UNL     1       8.965   3.673  22.982  0.00  0.00    +0.210 HD
ENDBRANCH  30  33
BRANCH  31  35
ATOM     35  O   UNL     1       8.864   3.225  24.915  0.00  0.00    -0.386 OA
ATOM     36  H   UNL     1       7.924   3.467  25.062  0.00  0.00    +0.210 HD
ENDBRANCH  31  35
BRANCH  32  37
ATOM     37  O   UNL     1       6.434   1.949  24.797  0.00  0.00    -0.383 OA
ATOM     38  H   UNL     1       6.860   1.907  25.673  0.00  0.00    +0.210 HD
ENDBRANCH  32  37
BRANCH  29  39
ATOM     39  C   UNL     1      10.538  -0.358  22.216  0.00  0.00    +0.190 C 
BRANCH  39  40
ATOM     40  O   UNL     1      10.154  -1.493  21.454  0.00  0.00    -0.392 OA
ATOM     41  H   UNL     1       9.792  -1.140  20.618  0.00  0.00    +0.210 HD
ENDBRANCH  39  40
ENDBRANCH  29  39
ENDBRANCH  26  27
ENDBRANCH  11  26
TORSDOF 12
ENDMDL
