MODEL 1
REMARK VINA RESULT:      -7.8      0.000      0.000
REMARK  Name = 
REMARK  24 active torsions:
REMARK  status: ('A' for Active; 'I' for Inactive)
REMARK    1  A    between atoms: C_3  and  O_56
REMARK    2  A    between atoms: C_4  and  O_55
REMARK    3  A    between atoms: C_6  and  C_7
REMARK    4  A    between atoms: C_8  and  O_32
REMARK    5  A    between atoms: C_12  and  O_31
REMARK    6  A    between atoms: C_14  and  O_18
REMARK    7  A    between atoms: O_18  and  C_19
REMARK    8  A    between atoms: C_20  and  O_30
REMARK    9  A    between atoms: C_21  and  O_29
REMARK   10  A    between atoms: C_22  and  O_28
REMARK   11  A    between atoms: C_23  and  C_25
REMARK   12  A    between atoms: C_25  and  O_27
REMARK   13  A    between atoms: O_32  and  C_33
REMARK   14  A    between atoms: C_34  and  O_43
REMARK   15  A    between atoms: C_35  and  O_42
REMARK   16  A    between atoms: C_36  and  O_41
REMARK   17  A    between atoms: C_37  and  C_39
REMARK   18  A    between atoms: C_39  and  O_40
REMARK   19  A    between atoms: O_43  and  C_44
REMARK   20  A    between atoms: C_45  and  O_54
REMARK   21  A    between atoms: C_46  and  O_53
REMARK   22  A    between atoms: C_47  and  O_52
REMARK   23  A    between atoms: C_48  and  C_50
REMARK   24  A    between atoms: C_50  and  O_51
REMARK                            x       y       z     vdW  Elec       q    Type
REMARK                         _______ _______ _______ _____ _____    ______ ____
ROOT
ATOM      1  C   UNL     1       7.360  -2.646  26.452  0.00  0.00    +0.181 A 
ATOM      2  O   UNL     1       8.066  -1.416  26.570  0.00  0.00    -0.451 OA
ATOM      3  C   UNL     1       8.947  -1.021  25.597  0.00  0.00    +0.147 A 
ATOM      4  C   UNL     1       9.450  -1.951  24.709  0.00  0.00    +0.109 A 
ATOM      5  C   UNL     1      10.227  -1.487  23.648  0.00  0.00    +0.135 A 
ATOM      6  C   UNL     1      10.509  -0.137  23.494  0.00  0.00    +0.092 A 
ATOM      7  C   UNL     1      10.182   0.781  24.491  0.00  0.00    +0.131 A 
ATOM      8  C   UNL     1       9.113  -3.373  24.937  0.00  0.00    +0.238 A 
ATOM      9  O   UNL     1       9.772  -4.258  24.405  0.00  0.00    -0.283 OA
ATOM     10  C   UNL     1       9.340   0.343  25.524  0.00  0.00    +0.093 A 
ATOM     11  C   UNL     1       7.859  -3.696  25.730  0.00  0.00    +0.214 A 
ENDROOT
BRANCH   1  13
ATOM     12  C   UNL     1       5.374  -1.261  26.996  0.00  0.00    +0.015 A 
ATOM     13  C   UNL     1       6.052  -2.500  27.184  0.00  0.00    +0.025 A 
ATOM     14  C   UNL     1       5.458  -3.418  28.060  0.00  0.00    +0.060 A 
ATOM     15  C   UNL     1       4.263  -3.078  28.722  0.00  0.00    +0.159 A 
ATOM     16  C   UNL     1       3.658  -1.831  28.549  0.00  0.00    +0.158 A 
ATOM     17  C   UNL     1       4.208  -0.913  27.680  0.00  0.00    +0.050 A 
BRANCH  16  18
ATOM     18  O   UNL     1       2.521  -1.553  29.259  0.00  0.00    -0.503 OA
ATOM     19  H   UNL     1       2.215  -0.662  29.010  0.00  0.00    +0.292 HD
ENDBRANCH  16  18
BRANCH  15  20
ATOM     20  O   UNL     1       3.668  -3.963  29.579  0.00  0.00    -0.503 OA
ATOM     21  H   UNL     1       4.279  -4.728  29.609  0.00  0.00    +0.292 HD
ENDBRANCH  15  20
ENDBRANCH   1  13
BRANCH   5  22
ATOM     22  O   UNL     1      10.715  -2.272  22.644  0.00  0.00    -0.506 OA
ATOM     23  H   UNL     1      10.408  -3.187  22.842  0.00  0.00    +0.292 HD
ENDBRANCH   5  22
BRANCH  11  24
ATOM     24  O   UNL     1       7.431  -5.019  25.648  0.00  0.00    -0.453 OA
BRANCH  24  25
ATOM     25  C   UNL     1       6.441  -5.520  24.718  0.00  0.00    +0.340 C 
ATOM     26  O   UNL     1       7.078  -5.917  23.455  0.00  0.00    -0.331 OA
ATOM     27  C   UNL     1       7.148  -5.030  22.295  0.00  0.00    +0.179 C 
ATOM     28  C   UNL     1       6.371  -3.676  22.317  0.00  0.00    +0.177 C 
ATOM     29  C   UNL     1       5.810  -3.326  23.695  0.00  0.00    +0.180 C 
ATOM     30  C   UNL     1       5.268  -4.619  24.313  0.00  0.00    +0.221 C 
BRANCH  29  31
ATOM     31  O   UNL     1       4.787  -2.325  23.581  0.00  0.00    -0.386 OA
ATOM     32  H   UNL     1       5.236  -1.455  23.631  0.00  0.00    +0.210 HD
ENDBRANCH  29  31
BRANCH  28  33
ATOM     33  O   UNL     1       5.291  -3.607  21.358  0.00  0.00    -0.386 OA
ATOM     34  H   UNL     1       5.526  -2.996  20.633  0.00  0.00    +0.210 HD
ENDBRANCH  28  33
BRANCH  27  35
ATOM     35  C   UNL     1       6.760  -5.814  21.003  0.00  0.00    +0.190 C 
BRANCH  35  36
ATOM     36  O   UNL     1       5.567  -6.578  21.131  0.00  0.00    -0.392 OA
ATOM     37  H   UNL     1       5.813  -7.463  21.439  0.00  0.00    +0.210 HD
ENDBRANCH  35  36
ENDBRANCH  27  35
BRANCH  30  38
ATOM     38  O   UNL     1       4.073  -4.561  25.059  0.00  0.00    -0.337 OA
BRANCH  38  39
ATOM     39  C   UNL     1       2.775  -4.640  24.535  0.00  0.00    +0.282 C 
ATOM     40  O   UNL     1       1.845  -4.696  25.624  0.00  0.00    -0.341 OA
ATOM     41  C   UNL     1       2.231  -5.711  26.565  0.00  0.00    +0.178 C 
ATOM     42  C   UNL     1       2.195  -7.104  25.902  0.00  0.00    +0.177 C 
ATOM     43  C   UNL     1       2.905  -7.126  24.532  0.00  0.00    +0.179 C 
ATOM     44  C   UNL     1       2.586  -5.892  23.684  0.00  0.00    +0.201 C 
BRANCH  44  45
ATOM     45  O   UNL     1       3.417  -5.857  22.518  0.00  0.00    -0.384 OA
ATOM     46  H   UNL     1       3.496  -4.911  22.259  0.00  0.00    +0.210 HD
ENDBRANCH  44  45
BRANCH  43  47
ATOM     47  O   UNL     1       2.547  -8.291  23.775  0.00  0.00    -0.386 OA
ATOM     48  H   UNL     1       1.756  -8.679  24.188  0.00  0.00    +0.210 HD
ENDBRANCH  43  47
BRANCH  42  49
ATOM     49  O   UNL     1       0.852  -7.584  25.755  0.00  0.00    -0.386 OA
ATOM     50  H   UNL     1       0.829  -8.522  26.017  0.00  0.00    +0.210 HD
ENDBRANCH  42  49
BRANCH  41  51
ATOM     51  C   UNL     1       1.356  -5.590  27.813  0.00  0.00    +0.190 C 
BRANCH  51  52
ATOM     52  O   UNL     1       1.064  -4.223  28.088  0.00  0.00    -0.392 OA
ATOM     53  H   UNL     1       0.888  -4.148  29.042  0.00  0.00    +0.210 HD
ENDBRANCH  51  52
ENDBRANCH  41  51
ENDBRANCH  38  39
ENDBRANCH  30  38
ENDBRANCH  24  25
ENDBRANCH  11  24
BRANCH   7  54
ATOM     54  O   UNL     1      10.708   2.066  24.526  0.00  0.00    -0.461 OA
BRANCH  54  55
ATOM     55  C   UNL     1       9.977   3.002  23.686  0.00  0.00    +0.340 C 
ATOM     56  O   UNL     1      10.889   3.730  22.828  0.00  0.00    -0.322 OA
ATOM     57  C   UNL     1      11.640   4.688  23.592  0.00  0.00    +0.261 C 
ATOM     58  C   UNL     1      10.677   5.828  23.870  0.00  0.00    +0.185 C 
ATOM     59  C   UNL     1       9.653   5.293  24.872  0.00  0.00    +0.180 C 
ATOM     60  C   UNL     1       8.998   3.984  24.391  0.00  0.00    +0.214 C 
BRANCH  60  61
ATOM     61  O   UNL     1       8.264   3.340  25.436  0.00  0.00    -0.383 OA
ATOM     62  H   UNL     1       7.785   4.038  25.923  0.00  0.00    +0.210 HD
ENDBRANCH  60  61
BRANCH  59  63
ATOM     63  O   UNL     1       8.615   6.270  25.053  0.00  0.00    -0.386 OA
ATOM     64  H   UNL     1       8.492   6.367  26.023  0.00  0.00    +0.210 HD
ENDBRANCH  59  63
BRANCH  58  65
ATOM     65  O   UNL     1       9.952   6.203  22.677  0.00  0.00    -0.386 OA
ATOM     66  H   UNL     1      10.607   6.568  22.046  0.00  0.00    +0.210 HD
ENDBRANCH  58  65
BRANCH  57  67
ATOM     67  C   UNL     1      12.867   5.153  22.831  0.00  0.00    +0.337 C 
ATOM     68  O   UNL     1      12.835   5.818  21.800  0.00  0.00    -0.248 OA
BRANCH  67  69
ATOM     69  O   UNL     1      14.025   4.803  23.441  0.00  0.00    -0.479 OA
ATOM     70  H   UNL     1      13.865   4.563  24.383  0.00  0.00    +0.295 HD
ENDBRANCH  67  69
ENDBRANCH  57  67
ENDBRANCH  54  55
ENDBRANCH   7  54
TORSDOF 24
ENDMDL
MODEL 2
REMARK VINA RESULT:      -7.5      2.420      5.661
REMARK  Name = 
REMARK  24 active torsions:
REMARK  status: ('A' for Active; 'I' for Inactive)
REMARK    1  A    between atoms: C_3  and  O_56
REMARK    2  A    between atoms: C_4  and  O_55
REMARK    3  A    between atoms: C_6  and  C_7
REMARK    4  A    between atoms: C_8  and  O_32
REMARK    5  A    between atoms: C_12  and  O_31
REMARK    6  A    between atoms: C_14  and  O_18
REMARK    7  A    between atoms: O_18  and  C_19
REMARK    8  A    between atoms: C_20  and  O_30
REMARK    9  A    between atoms: C_21  and  O_29
REMARK   10  A    between atoms: C_22  and  O_28
REMARK   11  A    between atoms: C_23  and  C_25
REMARK   12  A    between atoms: C_25  and  O_27
REMARK   13  A    between atoms: O_32  and  C_33
REMARK   14  A    between atoms: C_34  and  O_43
REMARK   15  A    between atoms: C_35  and  O_42
REMARK   16  A    between atoms: C_36  and  O_41
REMARK   17  A    between atoms: C_37  and  C_39
REMARK   18  A    between atoms: C_39  and  O_40
REMARK   19  A    between atoms: O_43  and  C_44
REMARK   20  A    between atoms: C_45  and  O_54
REMARK   21  A    between atoms: C_46  and  O_53
REMARK   22  A    between atoms: C_47  and  O_52
REMARK   23  A    between atoms: C_48  and  C_50
REMARK   24  A    between atoms: C_50  and  O_51
REMARK                            x       y       z     vdW  Elec       q    Type
REMARK                         _______ _______ _______ _____ _____    ______ ____
ROOT
ATOM      1  C   UNL     1       5.595  -2.128  26.313  0.00  0.00    +0.181 A 
ATOM      2  O   UNL     1       5.675  -0.968  25.492  0.00  0.00    -0.451 OA
ATOM      3  C   UNL     1       5.345   0.265  25.992  0.00  0.00    +0.147 A 
ATOM      4  C   UNL     1       4.579   0.358  27.136  0.00  0.00    +0.109 A 
ATOM      5  C   UNL     1       4.387   1.622  27.693  0.00  0.00    +0.135 A 
ATOM      6  C   UNL     1       4.926   2.760  27.108  0.00  0.00    +0.092 A 
ATOM      7  C   UNL     1       5.523   2.703  25.850  0.00  0.00    +0.131 A 
ATOM      8  C   UNL     1       4.032  -0.894  27.702  0.00  0.00    +0.238 A 
ATOM      9  O   UNL     1       3.100  -0.859  28.497  0.00  0.00    -0.283 OA
ATOM     10  C   UNL     1       5.788   1.434  25.314  0.00  0.00    +0.093 A 
ATOM     11  C   UNL     1       4.737  -2.199  27.376  0.00  0.00    +0.214 A 
ENDROOT
BRANCH   1  13
ATOM     12  C   UNL     1       7.453  -3.697  26.809  0.00  0.00    +0.015 A 
ATOM     13  C   UNL     1       6.614  -3.117  25.814  0.00  0.00    +0.025 A 
ATOM     14  C   UNL     1       6.860  -3.491  24.486  0.00  0.00    +0.060 A 
ATOM     15  C   UNL     1       7.915  -4.378  24.195  0.00  0.00    +0.159 A 
ATOM     16  C   UNL     1       8.746  -4.883  25.196  0.00  0.00    +0.158 A 
ATOM     17  C   UNL     1       8.518  -4.549  26.514  0.00  0.00    +0.050 A 
BRANCH  16  18
ATOM     18  O   UNL     1       9.779  -5.706  24.834  0.00  0.00    -0.503 OA
ATOM     19  H   UNL     1       9.417  -6.596  24.671  0.00  0.00    +0.292 HD
ENDBRANCH  16  18
BRANCH  15  20
ATOM     20  O   UNL     1       8.168  -4.755  22.904  0.00  0.00    -0.503 OA
ATOM     21  H   UNL     1       7.530  -5.476  22.727  0.00  0.00    +0.292 HD
ENDBRANCH  15  20
ENDBRANCH   1  13
BRANCH   5  22
ATOM     22  O   UNL     1       3.733   1.861  28.867  0.00  0.00    -0.506 OA
ATOM     23  H   UNL     1       3.401   2.787  28.809  0.00  0.00    +0.292 HD
ENDBRANCH   5  22
BRANCH  11  24
ATOM     24  O   UNL     1       4.373  -3.283  28.171  0.00  0.00    -0.453 OA
BRANCH  24  25
ATOM     25  C   UNL     1       3.449  -4.329  27.784  0.00  0.00    +0.340 C 
ATOM     26  O   UNL     1       2.444  -4.541  28.835  0.00  0.00    -0.331 OA
ATOM     27  C   UNL     1       2.580  -5.577  29.856  0.00  0.00    +0.179 C 
ATOM     28  C   UNL     1       3.734  -6.622  29.740  0.00  0.00    +0.177 C 
ATOM     29  C   UNL     1       4.760  -6.269  28.664  0.00  0.00    +0.180 C 
ATOM     30  C   UNL     1       3.991  -5.726  27.456  0.00  0.00    +0.221 C 
BRANCH  29  31
ATOM     31  O   UNL     1       5.542  -7.423  28.318  0.00  0.00    -0.386 OA
ATOM     32  H   UNL     1       4.991  -8.208  28.517  0.00  0.00    +0.210 HD
ENDBRANCH  29  31
BRANCH  28  33
ATOM     33  O   UNL     1       3.277  -7.974  29.503  0.00  0.00    -0.386 OA
ATOM     34  H   UNL     1       3.333  -8.495  30.327  0.00  0.00    +0.210 HD
ENDBRANCH  28  33
BRANCH  27  35
ATOM     35  C   UNL     1       1.227  -6.337  30.023  0.00  0.00    +0.190 C 
BRANCH  35  36
ATOM     36  O   UNL     1       0.635  -6.736  28.794  0.00  0.00    -0.392 OA
ATOM     37  H   UNL     1      -0.324  -6.627  28.875  0.00  0.00    +0.210 HD
ENDBRANCH  35  36
ENDBRANCH  27  35
BRANCH  30  38
ATOM     38  O   UNL     1       4.430  -6.075  26.163  0.00  0.00    -0.337 OA
BRANCH  38  39
ATOM     39  C   UNL     1       4.225  -7.312  25.534  0.00  0.00    +0.282 C 
ATOM     40  O   UNL     1       4.762  -7.244  24.206  0.00  0.00    -0.341 OA
ATOM     41  C   UNL     1       4.275  -6.077  23.525  0.00  0.00    +0.178 C 
ATOM     42  C   UNL     1       2.742  -6.147  23.361  0.00  0.00    +0.177 C 
ATOM     43  C   UNL     1       2.024  -6.531  24.673  0.00  0.00    +0.179 C 
ATOM     44  C   UNL     1       2.741  -7.652  25.430  0.00  0.00    +0.201 C 
BRANCH  44  45
ATOM     45  O   UNL     1       2.158  -7.832  26.725  0.00  0.00    -0.384 OA
ATOM     46  H   UNL     1       2.120  -8.803  26.881  0.00  0.00    +0.210 HD
ENDBRANCH  44  45
BRANCH  43  47
ATOM     47  O   UNL     1       0.675  -6.953  24.426  0.00  0.00    -0.386 OA
ATOM     48  H   UNL     1       0.665  -7.427  23.576  0.00  0.00    +0.210 HD
ENDBRANCH  43  47
BRANCH  42  49
ATOM     49  O   UNL     1       2.363  -7.058  22.321  0.00  0.00    -0.386 OA
ATOM     50  H   UNL     1       1.520  -7.478  22.571  0.00  0.00    +0.210 HD
ENDBRANCH  42  49
BRANCH  41  51
ATOM     51  C   UNL     1       5.037  -5.916  22.209  0.00  0.00    +0.190 C 
BRANCH  51  52
ATOM     52  O   UNL     1       6.150  -6.805  22.164  0.00  0.00    -0.392 OA
ATOM     53  H   UNL     1       6.950  -6.282  22.343  0.00  0.00    +0.210 HD
ENDBRANCH  51  52
ENDBRANCH  41  51
ENDBRANCH  38  39
ENDBRANCH  30  38
ENDBRANCH  24  25
ENDBRANCH  11  24
BRANCH   7  54
ATOM     54  O   UNL     1       5.794   3.840  25.099  0.00  0.00    -0.461 OA
BRANCH  54  55
ATOM     55  C   UNL     1       6.969   3.694  24.252  0.00  0.00    +0.340 C 
ATOM     56  O   UNL     1       8.141   4.222  24.919  0.00  0.00    -0.322 OA
ATOM     57  C   UNL     1       8.095   5.658  24.954  0.00  0.00    +0.261 C 
ATOM     58  C   UNL     1       8.446   6.109  23.548  0.00  0.00    +0.185 C 
ATOM     59  C   UNL     1       7.255   5.733  22.665  0.00  0.00    +0.180 C 
ATOM     60  C   UNL     1       6.877   4.246  22.800  0.00  0.00    +0.214 C 
BRANCH  60  61
ATOM     61  O   UNL     1       5.609   3.962  22.205  0.00  0.00    -0.383 OA
ATOM     62  H   UNL     1       4.924   4.258  22.834  0.00  0.00    +0.210 HD
ENDBRANCH  60  61
BRANCH  59  63
ATOM     63  O   UNL     1       7.591   5.984  21.290  0.00  0.00    -0.386 OA
ATOM     64  H   UNL     1       8.533   6.259  21.280  0.00  0.00    +0.210 HD
ENDBRANCH  59  63
BRANCH  58  65
ATOM     65  O   UNL     1       9.597   5.396  23.042  0.00  0.00    -0.386 OA
ATOM     66  H   UNL     1      10.100   5.074  23.819  0.00  0.00    +0.210 HD
ENDBRANCH  58  65
BRANCH  57  67
ATOM     67  C   UNL     1       9.059   6.210  25.987  0.00  0.00    +0.337 C 
ATOM     68  O   UNL     1       8.855   6.210  27.197  0.00  0.00    -0.248 OA
BRANCH  67  69
ATOM     69  O   UNL     1      10.212   6.662  25.438  0.00  0.00    -0.479 OA
ATOM     70  H   UNL     1      10.953   6.038  25.619  0.00  0.00    +0.295 HD
ENDBRANCH  67  69
ENDBRANCH  57  67
ENDBRANCH  54  55
ENDBRANCH   7  54
TORSDOF 24
ENDMDL
MODEL 3
REMARK VINA RESULT:      -7.1      2.765      9.482
REMARK  Name = 
REMARK  24 active torsions:
REMARK  status: ('A' for Active; 'I' for Inactive)
REMARK    1  A    between atoms: C_3  and  O_56
REMARK    2  A    between atoms: C_4  and  O_55
REMARK    3  A    between atoms: C_6  and  C_7
REMARK    4  A    between atoms: C_8  and  O_32
REMARK    5  A    between atoms: C_12  and  O_31
REMARK    6  A    between atoms: C_14  and  O_18
REMARK    7  A    between atoms: O_18  and  C_19
REMARK    8  A    between atoms: C_20  and  O_30
REMARK    9  A    between atoms: C_21  and  O_29
REMARK   10  A    between atoms: C_22  and  O_28
REMARK   11  A    between atoms: C_23  and  C_25
REMARK   12  A    between atoms: C_25  and  O_27
REMARK   13  A    between atoms: O_32  and  C_33
REMARK   14  A    between atoms: C_34  and  O_43
REMARK   15  A    between atoms: C_35  and  O_42
REMARK   16  A    between atoms: C_36  and  O_41
REMARK   17  A    between atoms: C_37  and  C_39
REMARK   18  A    between atoms: C_39  and  O_40
REMARK   19  A    between atoms: O_43  and  C_44
REMARK   20  A    between atoms: C_45  and  O_54
REMARK   21  A    between atoms: C_46  and  O_53
REMARK   22  A    between atoms: C_47  and  O_52
REMARK   23  A    between atoms: C_48  and  C_50
REMARK   24  A    between atoms: C_50  and  O_51
REMARK                            x       y       z     vdW  Elec       q    Type
REMARK                         _______ _______ _______ _____ _____    ______ ____
ROOT
ATOM      1  C   UNL     1       5.074   1.673  25.928  0.00  0.00    +0.181 A 
ATOM      2  O   UNL     1       4.474   0.399  25.726  0.00  0.00    -0.451 OA
ATOM      3  C   UNL     1       5.144  -0.749  26.062  0.00  0.00    +0.147 A 
ATOM      4  C   UNL     1       6.514  -0.720  26.228  0.00  0.00    +0.109 A 
ATOM      5  C   UNL     1       7.138  -1.870  26.710  0.00  0.00    +0.135 A 
ATOM      6  C   UNL     1       6.415  -3.020  26.995  0.00  0.00    +0.092 A 
ATOM      7  C   UNL     1       5.072  -3.128  26.639  0.00  0.00    +0.131 A 
ATOM      8  C   UNL     1       7.220   0.538  25.900  0.00  0.00    +0.238 A 
ATOM      9  O   UNL     1       8.431   0.536  25.711  0.00  0.00    -0.283 OA
ATOM     10  C   UNL     1       4.416  -1.960  26.223  0.00  0.00    +0.093 A 
ATOM     11  C   UNL     1       6.433   1.835  25.938  0.00  0.00    +0.214 A 
ENDROOT
BRANCH   1  13
ATOM     12  C   UNL     1       3.054   2.349  27.201  0.00  0.00    +0.015 A 
ATOM     13  C   UNL     1       3.971   2.671  26.160  0.00  0.00    +0.025 A 
ATOM     14  C   UNL     1       3.719   3.846  25.439  0.00  0.00    +0.060 A 
ATOM     15  C   UNL     1       2.586   4.624  25.747  0.00  0.00    +0.159 A 
ATOM     16  C   UNL     1       1.684   4.244  26.742  0.00  0.00    +0.158 A 
ATOM     17  C   UNL     1       1.914   3.103  27.482  0.00  0.00    +0.050 A 
BRANCH  16  18
ATOM     18  O   UNL     1       0.581   5.026  26.958  0.00  0.00    -0.503 OA
ATOM     19  H   UNL     1      -0.192   4.579  26.567  0.00  0.00    +0.292 HD
ENDBRANCH  16  18
BRANCH  15  20
ATOM     20  O   UNL     1       2.326   5.775  25.054  0.00  0.00    -0.503 OA
ATOM     21  H   UNL     1       2.866   5.703  24.241  0.00  0.00    +0.292 HD
ENDBRANCH  15  20
ENDBRANCH   1  13
BRANCH   5  22
ATOM     22  O   UNL     1       8.466  -1.963  27.010  0.00  0.00    -0.506 OA
ATOM     23  H   UNL     1       8.538  -1.792  27.978  0.00  0.00    +0.292 HD
ENDBRANCH   5  22
BRANCH  11  24
ATOM     24  O   UNL     1       7.203   2.995  25.928  0.00  0.00    -0.453 OA
BRANCH  24  25
ATOM     25  C   UNL     1       8.206   3.323  24.935  0.00  0.00    +0.340 C 
ATOM     26  O   UNL     1       8.644   4.717  25.089  0.00  0.00    -0.331 OA
ATOM     27  C   UNL     1       8.074   5.813  24.307  0.00  0.00    +0.179 C 
ATOM     28  C   UNL     1       7.092   5.490  23.138  0.00  0.00    +0.177 C 
ATOM     29  C   UNL     1       6.645   4.029  23.112  0.00  0.00    +0.180 C 
ATOM     30  C   UNL     1       7.867   3.169  23.447  0.00  0.00    +0.221 C 
BRANCH  29  31
ATOM     31  O   UNL     1       6.099   3.694  21.826  0.00  0.00    -0.386 OA
ATOM     32  H   UNL     1       6.596   2.913  21.503  0.00  0.00    +0.210 HD
ENDBRANCH  29  31
BRANCH  28  33
ATOM     33  O   UNL     1       7.610   5.829  21.830  0.00  0.00    -0.386 OA
ATOM     34  H   UNL     1       8.034   6.708  21.856  0.00  0.00    +0.210 HD
ENDBRANCH  28  33
BRANCH  27  35
ATOM     35  C   UNL     1       9.216   6.730  23.769  0.00  0.00    +0.190 C 
BRANCH  35  36
ATOM     36  O   UNL     1      10.211   6.035  23.029  0.00  0.00    -0.392 OA
ATOM     37  H   UNL     1      10.170   5.100  23.279  0.00  0.00    +0.210 HD
ENDBRANCH  35  36
ENDBRANCH  27  35
BRANCH  30  38
ATOM     38  O   UNL     1       8.045   1.950  22.760  0.00  0.00    -0.337 OA
BRANCH  38  39
ATOM     39  C   UNL     1       9.055   1.676  21.827  0.00  0.00    +0.282 C 
ATOM     40  O   UNL     1       8.888   0.332  21.355  0.00  0.00    -0.341 OA
ATOM     41  C   UNL     1       8.755  -0.577  22.459  0.00  0.00    +0.178 C 
ATOM     42  C   UNL     1      10.040  -0.583  23.312  0.00  0.00    +0.177 C 
ATOM     43  C   UNL     1      10.535   0.841  23.645  0.00  0.00    +0.179 C 
ATOM     44  C   UNL     1      10.443   1.791  22.449  0.00  0.00    +0.201 C 
BRANCH  44  45
ATOM     45  O   UNL     1      10.719   3.136  22.856  0.00  0.00    -0.384 OA
ATOM     46  H   UNL     1      11.541   3.102  23.396  0.00  0.00    +0.210 HD
ENDBRANCH  44  45
BRANCH  43  47
ATOM     47  O   UNL     1      11.896   0.829  24.100  0.00  0.00    -0.386 OA
ATOM     48  H   UNL     1      12.021   0.026  24.635  0.00  0.00    +0.210 HD
ENDBRANCH  43  47
BRANCH  42  49
ATOM     49  O   UNL     1      11.092  -1.321  22.677  0.00  0.00    -0.386 OA
ATOM     50  H   UNL     1      11.733  -0.688  22.306  0.00  0.00    +0.210 HD
ENDBRANCH  42  49
BRANCH  41  51
ATOM     51  C   UNL     1       8.354  -1.952  21.924  0.00  0.00    +0.190 C 
BRANCH  51  52
ATOM     52  O   UNL     1       8.488  -2.942  22.940  0.00  0.00    -0.392 OA
ATOM     53  H   UNL     1       8.749  -2.488  23.759  0.00  0.00    +0.210 HD
ENDBRANCH  51  52
ENDBRANCH  41  51
ENDBRANCH  38  39
ENDBRANCH  30  38
ENDBRANCH  24  25
ENDBRANCH  11  24
BRANCH   7  54
ATOM     54  O   UNL     1       4.398  -4.343  26.619  0.00  0.00    -0.461 OA
BRANCH  54  55
ATOM     55  C   UNL     1       5.130  -5.386  25.917  0.00  0.00    +0.340 C 
ATOM     56  O   UNL     1       5.703  -4.865  24.692  0.00  0.00    -0.322 OA
ATOM     57  C   UNL     1       4.675  -4.645  23.712  0.00  0.00    +0.261 C 
ATOM     58  C   UNL     1       4.310  -6.022  23.191  0.00  0.00    +0.185 C 
ATOM     59  C   UNL     1       3.575  -6.733  24.327  0.00  0.00    +0.180 C 
ATOM     60  C   UNL     1       4.382  -6.722  25.640  0.00  0.00    +0.214 C 
BRANCH  60  61
ATOM     61  O   UNL     1       3.588  -7.126  26.758  0.00  0.00    -0.383 OA
ATOM     62  H   UNL     1       3.793  -8.065  26.931  0.00  0.00    +0.210 HD
ENDBRANCH  60  61
BRANCH  59  63
ATOM     63  O   UNL     1       3.346  -8.103  23.958  0.00  0.00    -0.386 OA
ATOM     64  H   UNL     1       2.667  -8.089  23.248  0.00  0.00    +0.210 HD
ENDBRANCH  59  63
BRANCH  58  65
ATOM     65  O   UNL     1       5.493  -6.799  22.894  0.00  0.00    -0.386 OA
ATOM     66  H   UNL     1       6.232  -6.403  23.401  0.00  0.00    +0.210 HD
ENDBRANCH  58  65
BRANCH  57  67
ATOM     67  C   UNL     1       5.164  -3.728  22.607  0.00  0.00    +0.337 C 
ATOM     68  O   UNL     1       5.340  -4.076  21.443  0.00  0.00    -0.248 OA
BRANCH  67  69
ATOM     69  O   UNL     1       5.337  -2.451  23.023  0.00  0.00    -0.479 OA
ATOM     70  H   UNL     1       6.056  -2.011  22.511  0.00  0.00    +0.295 HD
ENDBRANCH  67  69
ENDBRANCH  57  67
ENDBRANCH  54  55
ENDBRANCH   7  54
TORSDOF 24
ENDMDL
MODEL 4
REMARK VINA RESULT:      -7.1      2.761      9.551
REMARK  Name = 
REMARK  24 active torsions:
REMARK  status: ('A' for Active; 'I' for Inactive)
REMARK    1  A    between atoms: C_3  and  O_56
REMARK    2  A    between atoms: C_4  and  O_55
REMARK    3  A    between atoms: C_6  and  C_7
REMARK    4  A    between atoms: C_8  and  O_32
REMARK    5  A    between atoms: C_12  and  O_31
REMARK    6  A    between atoms: C_14  and  O_18
REMARK    7  A    between atoms: O_18  and  C_19
REMARK    8  A    between atoms: C_20  and  O_30
REMARK    9  A    between atoms: C_21  and  O_29
REMARK   10  A    between atoms: C_22  and  O_28
REMARK   11  A    between atoms: C_23  and  C_25
REMARK   12  A    between atoms: C_25  and  O_27
REMARK   13  A    between atoms: O_32  and  C_33
REMARK   14  A    between atoms: C_34  and  O_43
REMARK   15  A    between atoms: C_35  and  O_42
REMARK   16  A    between atoms: C_36  and  O_41
REMARK   17  A    between atoms: C_37  and  C_39
REMARK   18  A    between atoms: C_39  and  O_40
REMARK   19  A    between atoms: O_43  and  C_44
REMARK   20  A    between atoms: C_45  and  O_54
REMARK   21  A    between atoms: C_46  and  O_53
REMARK   22  A    between atoms: C_47  and  O_52
REMARK   23  A    between atoms: C_48  and  C_50
REMARK   24  A    between atoms: C_50  and  O_51
REMARK                            x       y       z     vdW  Elec       q    Type
REMARK                         _______ _______ _______ _____ _____    ______ ____
ROOT
ATOM      1  C   UNL     1       7.796   0.987  25.873  0.00  0.00    +0.181 A 
ATOM      2  O   UNL     1       6.869  -0.093  25.903  0.00  0.00    -0.451 OA
ATOM      3  C   UNL     1       7.279  -1.372  25.632  0.00  0.00    +0.147 A 
ATOM      4  C   UNL     1       8.467  -1.584  24.963  0.00  0.00    +0.109 A 
ATOM      5  C   UNL     1       8.921  -2.896  24.835  0.00  0.00    +0.135 A 
ATOM      6  C   UNL     1       8.194  -3.965  25.342  0.00  0.00    +0.092 A 
ATOM      7  C   UNL     1       6.903  -3.783  25.834  0.00  0.00    +0.131 A 
ATOM      8  C   UNL     1       9.185  -0.399  24.444  0.00  0.00    +0.238 A 
ATOM      9  O   UNL     1      10.045  -0.526  23.580  0.00  0.00    -0.283 OA
ATOM     10  C   UNL     1       6.466  -2.466  26.036  0.00  0.00    +0.093 A 
ATOM     11  C   UNL     1       8.925   0.944  25.102  0.00  0.00    +0.214 A 
ENDROOT
BRANCH   1  13
ATOM     12  C   UNL     1       7.192   1.629  28.193  0.00  0.00    +0.015 A 
ATOM     13  C   UNL     1       7.309   2.039  26.834  0.00  0.00    +0.025 A 
ATOM     14  C   UNL     1       6.916   3.350  26.535  0.00  0.00    +0.060 A 
ATOM     15  C   UNL     1       6.409   4.177  27.556  0.00  0.00    +0.159 A 
ATOM     16  C   UNL     1       6.262   3.718  28.866  0.00  0.00    +0.158 A 
ATOM     17  C   UNL     1       6.658   2.439  29.197  0.00  0.00    +0.050 A 
BRANCH  16  18
ATOM     18  O   UNL     1       5.721   4.563  29.798  0.00  0.00    -0.503 OA
ATOM     19  H   UNL     1       5.296   4.023  30.489  0.00  0.00    +0.292 HD
ENDBRANCH  16  18
BRANCH  15  20
ATOM     20  O   UNL     1       6.021   5.460  27.282  0.00  0.00    -0.503 OA
ATOM     21  H   UNL     1       5.601   5.409  26.399  0.00  0.00    +0.292 HD
ENDBRANCH  15  20
ENDBRANCH   1  13
BRANCH   5  22
ATOM     22  O   UNL     1      10.116  -3.253  24.280  0.00  0.00    -0.506 OA
ATOM     23  H   UNL     1      10.468  -2.440  23.850  0.00  0.00    +0.292 HD
ENDBRANCH   5  22
BRANCH  11  24
ATOM     24  O   UNL     1       9.841   1.945  24.787  0.00  0.00    -0.453 OA
BRANCH  24  25
ATOM     25  C   UNL     1       9.775   2.800  23.619  0.00  0.00    +0.340 C 
ATOM     26  O   UNL     1      11.126   3.172  23.180  0.00  0.00    -0.331 OA
ATOM     27  C   UNL     1      11.767   4.425  23.577  0.00  0.00    +0.179 C 
ATOM     28  C   UNL     1      10.938   5.498  24.349  0.00  0.00    +0.177 C 
ATOM     29  C   UNL     1       9.578   4.984  24.822  0.00  0.00    +0.180 C 
ATOM     30  C   UNL     1       8.998   4.120  23.698  0.00  0.00    +0.221 C 
BRANCH  29  31
ATOM     31  O   UNL     1       8.710   6.083  25.145  0.00  0.00    -0.386 OA
ATOM     32  H   UNL     1       8.156   5.792  25.899  0.00  0.00    +0.210 HD
ENDBRANCH  29  31
BRANCH  28  33
ATOM     33  O   UNL     1      10.726   6.720  23.604  0.00  0.00    -0.386 OA
ATOM     34  H   UNL     1       9.986   6.605  22.978  0.00  0.00    +0.210 HD
ENDBRANCH  28  33
BRANCH  27  35
ATOM     35  C   UNL     1      12.433   5.097  22.337  0.00  0.00    +0.190 C 
BRANCH  35  36
ATOM     36  O   UNL     1      13.546   5.921  22.657  0.00  0.00    -0.392 OA
ATOM     37  H   UNL     1      13.816   5.717  23.565  0.00  0.00    +0.210 HD
ENDBRANCH  35  36
ENDBRANCH  27  35
BRANCH  30  38
ATOM     38  O   UNL     1       7.615   4.192  23.435  0.00  0.00    -0.337 OA
BRANCH  38  39
ATOM     39  C   UNL     1       7.001   3.935  22.201  0.00  0.00    +0.282 C 
ATOM     40  O   UNL     1       6.382   5.143  21.738  0.00  0.00    -0.341 OA
ATOM     41  C   UNL     1       5.561   5.715  22.768  0.00  0.00    +0.178 C 
ATOM     42  C   UNL     1       4.406   4.759  23.133  0.00  0.00    +0.177 C 
ATOM     43  C   UNL     1       4.888   3.309  23.359  0.00  0.00    +0.179 C 
ATOM     44  C   UNL     1       5.921   2.864  22.320  0.00  0.00    +0.201 C 
BRANCH  44  45
ATOM     45  O   UNL     1       6.484   1.599  22.685  0.00  0.00    -0.384 OA
ATOM     46  H   UNL     1       6.047   1.330  23.526  0.00  0.00    +0.210 HD
ENDBRANCH  44  45
BRANCH  43  47
ATOM     47  O   UNL     1       3.794   2.383  23.324  0.00  0.00    -0.386 OA
ATOM     48  H   UNL     1       3.639   2.145  22.393  0.00  0.00    +0.210 HD
ENDBRANCH  43  47
BRANCH  42  49
ATOM     49  O   UNL     1       3.375   4.772  22.138  0.00  0.00    -0.386 OA
ATOM     50  H   UNL     1       3.793   4.730  21.259  0.00  0.00    +0.210 HD
ENDBRANCH  42  49
BRANCH  41  51
ATOM     51  C   UNL     1       5.104   7.105  22.324  0.00  0.00    +0.190 C 
BRANCH  51  52
ATOM     52  O   UNL     1       4.351   7.022  21.117  0.00  0.00    -0.392 OA
ATOM     53  H   UNL     1       4.983   6.986  20.379  0.00  0.00    +0.210 HD
ENDBRANCH  51  52
ENDBRANCH  41  51
ENDBRANCH  38  39
ENDBRANCH  30  38
ENDBRANCH  24  25
ENDBRANCH  11  24
BRANCH   7  54
ATOM     54  O   UNL     1       6.033  -4.843  26.061  0.00  0.00    -0.461 OA
BRANCH  54  55
ATOM     55  C   UNL     1       6.042  -5.824  24.987  0.00  0.00    +0.340 C 
ATOM     56  O   UNL     1       6.293  -5.180  23.715  0.00  0.00    -0.322 OA
ATOM     57  C   UNL     1       5.141  -4.431  23.295  0.00  0.00    +0.261 C 
ATOM     58  C   UNL     1       4.145  -5.464  22.800  0.00  0.00    +0.185 C 
ATOM     59  C   UNL     1       3.653  -6.216  24.038  0.00  0.00    +0.180 C 
ATOM     60  C   UNL     1       4.817  -6.777  24.879  0.00  0.00    +0.214 C 
BRANCH  60  61
ATOM     61  O   UNL     1       4.379  -7.225  26.164  0.00  0.00    -0.383 OA
ATOM     62  H   UNL     1       3.499  -7.631  26.042  0.00  0.00    +0.210 HD
ENDBRANCH  60  61
BRANCH  59  63
ATOM     63  O   UNL     1       2.831  -7.320  23.624  0.00  0.00    -0.386 OA
ATOM     64  H   UNL     1       2.261  -6.984  22.898  0.00  0.00    +0.210 HD
ENDBRANCH  59  63
BRANCH  58  65
ATOM     65  O   UNL     1       4.782  -6.433  21.936  0.00  0.00    -0.386 OA
ATOM     66  H   UNL     1       4.170  -6.596  21.188  0.00  0.00    +0.210 HD
ENDBRANCH  58  65
BRANCH  57  67
ATOM     67  C   UNL     1       5.504  -3.429  22.216  0.00  0.00    +0.337 C 
ATOM     68  O   UNL     1       5.609  -3.699  21.024  0.00  0.00    -0.248 OA
BRANCH  67  69
ATOM     69  O   UNL     1       5.650  -2.171  22.697  0.00  0.00    -0.479 OA
ATOM     70  H   UNL     1       5.216  -2.081  23.578  0.00  0.00    +0.295 HD
ENDBRANCH  67  69
ENDBRANCH  57  67
ENDBRANCH  54  55
ENDBRANCH   7  54
TORSDOF 24
ENDMDL
MODEL 5
REMARK VINA RESULT:      -7.1      2.660      9.976
REMARK  Name = 
REMARK  24 active torsions:
REMARK  status: ('A' for Active; 'I' for Inactive)
REMARK    1  A    between atoms: C_3  and  O_56
REMARK    2  A    between atoms: C_4  and  O_55
REMARK    3  A    between atoms: C_6  and  C_7
REMARK    4  A    between atoms: C_8  and  O_32
REMARK    5  A    between atoms: C_12  and  O_31
REMARK    6  A    between atoms: C_14  and  O_18
REMARK    7  A    between atoms: O_18  and  C_19
REMARK    8  A    between atoms: C_20  and  O_30
REMARK    9  A    between atoms: C_21  and  O_29
REMARK   10  A    between atoms: C_22  and  O_28
REMARK   11  A    between atoms: C_23  and  C_25
REMARK   12  A    between atoms: C_25  and  O_27
REMARK   13  A    between atoms: O_32  and  C_33
REMARK   14  A    between atoms: C_34  and  O_43
REMARK   15  A    between atoms: C_35  and  O_42
REMARK   16  A    between atoms: C_36  and  O_41
REMARK   17  A    between atoms: C_37  and  C_39
REMARK   18  A    between atoms: C_39  and  O_40
REMARK   19  A    between atoms: O_43  and  C_44
REMARK   20  A    between atoms: C_45  and  O_54
REMARK   21  A    between atoms: C_46  and  O_53
REMARK   22  A    between atoms: C_47  and  O_52
REMARK   23  A    between atoms: C_48  and  C_50
REMARK   24  A    between atoms: C_50  and  O_51
REMARK                            x       y       z     vdW  Elec       q    Type
REMARK                         _______ _______ _______ _____ _____    ______ ____
ROOT
ATOM      1  C   UNL     1       7.980   0.844  25.338  0.00  0.00    +0.181 A 
ATOM      2  O   UNL     1       7.141  -0.296  25.189  0.00  0.00    -0.451 OA
ATOM      3  C   UNL     1       7.662  -1.498  24.788  0.00  0.00    +0.147 A 
ATOM      4  C   UNL     1       8.892  -1.538  24.161  0.00  0.00    +0.109 A 
ATOM      5  C   UNL     1       9.452  -2.787  23.900  0.00  0.00    +0.135 A 
ATOM      6  C   UNL     1       8.791  -3.961  24.235  0.00  0.00    +0.092 A 
ATOM      7  C   UNL     1       7.470  -3.937  24.678  0.00  0.00    +0.131 A 
ATOM      8  C   UNL     1       9.535  -0.248  23.827  0.00  0.00    +0.238 A 
ATOM      9  O   UNL     1      10.439  -0.203  23.001  0.00  0.00    -0.283 OA
ATOM     10  C   UNL     1       6.921  -2.690  25.014  0.00  0.00    +0.093 A 
ATOM     11  C   UNL     1       9.141   0.980  24.628  0.00  0.00    +0.214 A 
ENDROOT
BRANCH   1  13
ATOM     12  C   UNL     1       6.801   1.059  27.511  0.00  0.00    +0.015 A 
ATOM     13  C   UNL     1       7.371   1.731  26.391  0.00  0.00    +0.025 A 
ATOM     14  C   UNL     1       7.260   3.127  26.371  0.00  0.00    +0.060 A 
ATOM     15  C   UNL     1       6.584   3.789  27.414  0.00  0.00    +0.159 A 
ATOM     16  C   UNL     1       5.994   3.088  28.467  0.00  0.00    +0.158 A 
ATOM     17  C   UNL     1       6.102   1.714  28.526  0.00  0.00    +0.050 A 
BRANCH  16  18
ATOM     18  O   UNL     1       5.315   3.794  29.423  0.00  0.00    -0.503 OA
ATOM     19  H   UNL     1       4.690   3.190  29.863  0.00  0.00    +0.292 HD
ENDBRANCH  16  18
BRANCH  15  20
ATOM     20  O   UNL     1       6.468   5.153  27.410  0.00  0.00    -0.503 OA
ATOM     21  H   UNL     1       5.515   5.321  27.561  0.00  0.00    +0.292 HD
ENDBRANCH  15  20
ENDBRANCH   1  13
BRANCH   5  22
ATOM     22  O   UNL     1      10.694  -2.984  23.370  0.00  0.00    -0.506 OA
ATOM     23  H   UNL     1      11.325  -2.909  24.123  0.00  0.00    +0.292 HD
ENDBRANCH   5  22
BRANCH  11  24
ATOM     24  O   UNL     1       9.988   2.077  24.484  0.00  0.00    -0.453 OA
BRANCH  24  25
ATOM     25  C   UNL     1       9.913   3.057  23.420  0.00  0.00    +0.340 C 
ATOM     26  O   UNL     1      11.256   3.372  22.917  0.00  0.00    -0.331 OA
ATOM     27  C   UNL     1      12.025   4.521  23.390  0.00  0.00    +0.179 C 
ATOM     28  C   UNL     1      11.344   5.563  24.332  0.00  0.00    +0.177 C 
ATOM     29  C   UNL     1       9.982   5.105  24.853  0.00  0.00    +0.180 C 
ATOM     30  C   UNL     1       9.255   4.415  23.695  0.00  0.00    +0.221 C 
BRANCH  29  31
ATOM     31  O   UNL     1       9.234   6.224  25.355  0.00  0.00    -0.386 OA
ATOM     32  H   UNL     1       8.658   6.530  24.623  0.00  0.00    +0.210 HD
ENDBRANCH  29  31
BRANCH  28  33
ATOM     33  O   UNL     1      11.183   6.872  23.736  0.00  0.00    -0.386 OA
ATOM     34  H   UNL     1      11.814   6.983  23.000  0.00  0.00    +0.210 HD
ENDBRANCH  28  33
BRANCH  27  35
ATOM     35  C   UNL     1      12.656   5.274  22.178  0.00  0.00    +0.190 C 
BRANCH  35  36
ATOM     36  O   UNL     1      13.899   5.899  22.472  0.00  0.00    -0.392 OA
ATOM     37  H   UNL     1      13.714   6.802  22.770  0.00  0.00    +0.210 HD
ENDBRANCH  35  36
ENDBRANCH  27  35
BRANCH  30  38
ATOM     38  O   UNL     1       7.868   4.620  23.550  0.00  0.00    -0.337 OA
BRANCH  38  39
ATOM     39  C   UNL     1       7.159   4.595  22.340  0.00  0.00    +0.282 C 
ATOM     40  O   UNL     1       6.269   5.719  22.309  0.00  0.00    -0.341 OA
ATOM     41  C   UNL     1       5.496   5.784  23.519  0.00  0.00    +0.178 C 
ATOM     42  C   UNL     1       4.599   4.535  23.654  0.00  0.00    +0.177 C 
ATOM     43  C   UNL     1       5.370   3.223  23.395  0.00  0.00    +0.179 C 
ATOM     44  C   UNL     1       6.324   3.325  22.202  0.00  0.00    +0.201 C 
BRANCH  44  45
ATOM     45  O   UNL     1       7.157   2.163  22.127  0.00  0.00    -0.384 OA
ATOM     46  H   UNL     1       7.739   2.287  21.343  0.00  0.00    +0.210 HD
ENDBRANCH  44  45
BRANCH  43  47
ATOM     47  O   UNL     1       4.473   2.129  23.155  0.00  0.00    -0.386 OA
ATOM     48  H   UNL     1       4.927   1.311  23.425  0.00  0.00    +0.210 HD
ENDBRANCH  43  47
BRANCH  42  49
ATOM     49  O   UNL     1       3.463   4.605  22.782  0.00  0.00    -0.386 OA
ATOM     50  H   UNL     1       3.282   5.541  22.586  0.00  0.00    +0.210 HD
ENDBRANCH  42  49
BRANCH  41  51
ATOM     51  C   UNL     1       4.732   7.108  23.550  0.00  0.00    +0.190 C 
BRANCH  51  52
ATOM     52  O   UNL     1       3.753   7.096  24.584  0.00  0.00    -0.392 OA
ATOM     53  H   UNL     1       4.131   7.558  25.351  0.00  0.00    +0.210 HD
ENDBRANCH  51  52
ENDBRANCH  41  51
ENDBRANCH  38  39
ENDBRANCH  30  38
ENDBRANCH  24  25
ENDBRANCH  11  24
BRANCH   7  54
ATOM     54  O   UNL     1       6.677  -5.077  24.729  0.00  0.00    -0.461 OA
BRANCH  54  55
ATOM     55  C   UNL     1       5.253  -4.778  24.749  0.00  0.00    +0.340 C 
ATOM     56  O   UNL     1       4.693  -5.068  26.052  0.00  0.00    -0.322 OA
ATOM     57  C   UNL     1       4.604  -6.488  26.255  0.00  0.00    +0.261 C 
ATOM     58  C   UNL     1       3.418  -6.943  25.424  0.00  0.00    +0.185 C 
ATOM     59  C   UNL     1       3.843  -6.815  23.960  0.00  0.00    +0.180 C 
ATOM     60  C   UNL     1       4.375  -5.407  23.629  0.00  0.00    +0.214 C 
BRANCH  60  61
ATOM     61  O   UNL     1       5.028  -5.369  22.359  0.00  0.00    -0.383 OA
ATOM     62  H   UNL     1       5.978  -5.220  22.528  0.00  0.00    +0.210 HD
ENDBRANCH  60  61
BRANCH  59  63
ATOM     63  O   UNL     1       2.709  -7.072  23.115  0.00  0.00    -0.386 OA
ATOM     64  H   UNL     1       1.923  -6.737  23.598  0.00  0.00    +0.210 HD
ENDBRANCH  59  63
BRANCH  58  65
ATOM     65  O   UNL     1       2.281  -6.072  25.617  0.00  0.00    -0.386 OA
ATOM     66  H   UNL     1       1.565  -6.616  26.007  0.00  0.00    +0.210 HD
ENDBRANCH  58  65
BRANCH  57  67
ATOM     67  C   UNL     1       4.430  -6.820  27.724  0.00  0.00    +0.337 C 
ATOM     68  O   UNL     1       3.460  -6.491  28.401  0.00  0.00    -0.248 OA
BRANCH  67  69
ATOM     69  O   UNL     1       5.441  -7.577  28.214  0.00  0.00    -0.479 OA
ATOM     70  H   UNL     1       6.077  -7.023  28.725  0.00  0.00    +0.295 HD
ENDBRANCH  67  69
ENDBRANCH  57  67
ENDBRANCH  54  55
ENDBRANCH   7  54
TORSDOF 24
ENDMDL
MODEL 6
REMARK VINA RESULT:      -6.9      3.088      9.876
REMARK  Name = 
REMARK  24 active torsions:
REMARK  status: ('A' for Active; 'I' for Inactive)
REMARK    1  A    between atoms: C_3  and  O_56
REMARK    2  A    between atoms: C_4  and  O_55
REMARK    3  A    between atoms: C_6  and  C_7
REMARK    4  A    between atoms: C_8  and  O_32
REMARK    5  A    between atoms: C_12  and  O_31
REMARK    6  A    between atoms: C_14  and  O_18
REMARK    7  A    between atoms: O_18  and  C_19
REMARK    8  A    between atoms: C_20  and  O_30
REMARK    9  A    between atoms: C_21  and  O_29
REMARK   10  A    between atoms: C_22  and  O_28
REMARK   11  A    between atoms: C_23  and  C_25
REMARK   12  A    between atoms: C_25  and  O_27
REMARK   13  A    between atoms: O_32  and  C_33
REMARK   14  A    between atoms: C_34  and  O_43
REMARK   15  A    between atoms: C_35  and  O_42
REMARK   16  A    between atoms: C_36  and  O_41
REMARK   17  A    between atoms: C_37  and  C_39
REMARK   18  A    between atoms: C_39  and  O_40
REMARK   19  A    between atoms: O_43  and  C_44
REMARK   20  A    between atoms: C_45  and  O_54
REMARK   21  A    between atoms: C_46  and  O_53
REMARK   22  A    between atoms: C_47  and  O_52
REMARK   23  A    between atoms: C_48  and  C_50
REMARK   24  A    between atoms: C_50  and  O_51
REMARK                            x       y       z     vdW  Elec       q    Type
REMARK                         _______ _______ _______ _____ _____    ______ ____
ROOT
ATOM      1  C   UNL     1       4.969   2.048  25.362  0.00  0.00    +0.181 A 
ATOM      2  O   UNL     1       4.529   0.708  25.552  0.00  0.00    -0.451 OA
ATOM      3  C   UNL     1       4.565   0.132  26.795  0.00  0.00    +0.147 A 
ATOM      4  C   UNL     1       5.363   0.677  27.781  0.00  0.00    +0.109 A 
ATOM      5  C   UNL     1       5.262   0.152  29.069  0.00  0.00    +0.135 A 
ATOM      6  C   UNL     1       4.403  -0.901  29.355  0.00  0.00    +0.092 A 
ATOM      7  C   UNL     1       3.749  -1.589  28.335  0.00  0.00    +0.131 A 
ATOM      8  C   UNL     1       6.258   1.792  27.402  0.00  0.00    +0.238 A 
ATOM      9  O   UNL     1       7.206   2.096  28.118  0.00  0.00    -0.283 OA
ATOM     10  C   UNL     1       3.784  -1.029  27.049  0.00  0.00    +0.093 A 
ATOM     11  C   UNL     1       5.893   2.626  26.187  0.00  0.00    +0.214 A 
ENDROOT
BRANCH   1  13
ATOM     12  C   UNL     1       4.964   2.843  23.010  0.00  0.00    +0.015 A 
ATOM     13  C   UNL     1       4.207   2.622  24.196  0.00  0.00    +0.025 A 
ATOM     14  C   UNL     1       2.859   3.005  24.164  0.00  0.00    +0.060 A 
ATOM     15  C   UNL     1       2.331   3.601  23.003  0.00  0.00    +0.159 A 
ATOM     16  C   UNL     1       3.122   3.848  21.880  0.00  0.00    +0.158 A 
ATOM     17  C   UNL     1       4.448   3.465  21.873  0.00  0.00    +0.050 A 
BRANCH  16  18
ATOM     18  O   UNL     1       2.552   4.471  20.802  0.00  0.00    -0.503 OA
ATOM     19  H   UNL     1       2.713   3.924  20.012  0.00  0.00    +0.292 HD
ENDBRANCH  16  18
BRANCH  15  20
ATOM     20  O   UNL     1       1.017   3.980  22.954  0.00  0.00    -0.503 OA
ATOM     21  H   UNL     1       1.037   4.956  23.035  0.00  0.00    +0.292 HD
ENDBRANCH  15  20
ENDBRANCH   1  13
BRANCH   5  22
ATOM     22  O   UNL     1       5.918   0.644  30.160  0.00  0.00    -0.506 OA
ATOM     23  H   UNL     1       6.137   1.580  29.945  0.00  0.00    +0.292 HD
ENDBRANCH   5  22
BRANCH  11  24
ATOM     24  O   UNL     1       6.585   3.829  26.065  0.00  0.00    -0.453 OA
BRANCH  24  25
ATOM     25  C   UNL     1       8.003   3.953  25.800  0.00  0.00    +0.340 C 
ATOM     26  O   UNL     1       8.475   5.299  26.151  0.00  0.00    -0.331 OA
ATOM     27  C   UNL     1       8.594   6.373  25.166  0.00  0.00    +0.179 C 
ATOM     28  C   UNL     1       8.389   6.052  23.653  0.00  0.00    +0.177 C 
ATOM     29  C   UNL     1       7.830   4.651  23.405  0.00  0.00    +0.180 C 
ATOM     30  C   UNL     1       8.527   3.699  24.381  0.00  0.00    +0.221 C 
BRANCH  29  31
ATOM     31  O   UNL     1       8.045   4.259  22.039  0.00  0.00    -0.386 OA
ATOM     32  H   UNL     1       8.532   3.408  22.063  0.00  0.00    +0.210 HD
ENDBRANCH  29  31
BRANCH  28  33
ATOM     33  O   UNL     1       9.585   6.209  22.854  0.00  0.00    -0.386 OA
ATOM     34  H   UNL     1      10.378   6.092  23.413  0.00  0.00    +0.210 HD
ENDBRANCH  28  33
BRANCH  27  35
ATOM     35  C   UNL     1       9.960   7.108  25.345  0.00  0.00    +0.190 C 
BRANCH  35  36
ATOM     36  O   UNL     1      11.092   6.286  25.095  0.00  0.00    -0.392 OA
ATOM     37  H   UNL     1      11.060   5.539  25.711  0.00  0.00    +0.210 HD
ENDBRANCH  35  36
ENDBRANCH  27  35
BRANCH  30  38
ATOM     38  O   UNL     1       8.880   2.410  23.932  0.00  0.00    -0.337 OA
BRANCH  38  39
ATOM     39  C   UNL     1       7.984   1.411  23.523  0.00  0.00    +0.282 C 
ATOM     40  O   UNL     1       7.824   0.473  24.595  0.00  0.00    -0.341 OA
ATOM     41  C   UNL     1       9.104   0.042  25.083  0.00  0.00    +0.178 C 
ATOM     42  C   UNL     1       9.880  -0.705  23.978  0.00  0.00    +0.177 C 
ATOM     43  C   UNL     1       9.873   0.055  22.634  0.00  0.00    +0.179 C 
ATOM     44  C   UNL     1       8.503   0.654  22.304  0.00  0.00    +0.201 C 
BRANCH  44  45
ATOM     45  O   UNL     1       8.595   1.512  21.161  0.00  0.00    -0.384 OA
ATOM     46  H   UNL     1       7.801   2.093  21.183  0.00  0.00    +0.210 HD
ENDBRANCH  44  45
BRANCH  43  47
ATOM     47  O   UNL     1      10.257  -0.800  21.548  0.00  0.00    -0.386 OA
ATOM     48  H   UNL     1      10.312  -1.709  21.892  0.00  0.00    +0.210 HD
ENDBRANCH  43  47
BRANCH  42  49
ATOM     49  O   UNL     1       9.374  -2.032  23.782  0.00  0.00    -0.386 OA
ATOM     50  H   UNL     1       8.401  -1.998  23.803  0.00  0.00    +0.210 HD
ENDBRANCH  42  49
BRANCH  41  51
ATOM     51  C   UNL     1       8.900  -0.772  26.361  0.00  0.00    +0.190 C 
BRANCH  51  52
ATOM     52  O   UNL     1       7.813  -1.680  26.208  0.00  0.00    -0.392 OA
ATOM     53  H   UNL     1       7.079  -1.191  25.800  0.00  0.00    +0.210 HD
ENDBRANCH  51  52
ENDBRANCH  41  51
ENDBRANCH  38  39
ENDBRANCH  30  38
ENDBRANCH  24  25
ENDBRANCH  11  24
BRANCH   7  54
ATOM     54  O   UNL     1       3.136  -2.819  28.536  0.00  0.00    -0.461 OA
BRANCH  54  55
ATOM     55  C   UNL     1       4.070  -3.858  28.942  0.00  0.00    +0.340 C 
ATOM     56  O   UNL     1       5.111  -4.019  27.948  0.00  0.00    -0.322 OA
ATOM     57  C   UNL     1       4.589  -4.664  26.775  0.00  0.00    +0.261 C 
ATOM     58  C   UNL     1       4.443  -6.128  27.147  0.00  0.00    +0.185 C 
ATOM     59  C   UNL     1       3.285  -6.205  28.144  0.00  0.00    +0.180 C 
ATOM     60  C   UNL     1       3.475  -5.242  29.332  0.00  0.00    +0.214 C 
BRANCH  60  61
ATOM     61  O   UNL     1       2.279  -5.106  30.103  0.00  0.00    -0.383 OA
ATOM     62  H   UNL     1       2.538  -5.149  31.044  0.00  0.00    +0.210 HD
ENDBRANCH  60  61
BRANCH  59  63
ATOM     63  O   UNL     1       3.200  -7.543  28.665  0.00  0.00    -0.386 OA
ATOM     64  H   UNL     1       2.927  -7.457  29.604  0.00  0.00    +0.210 HD
ENDBRANCH  59  63
BRANCH  58  65
ATOM     65  O   UNL     1       5.624  -6.615  27.824  0.00  0.00    -0.386 OA
ATOM     66  H   UNL     1       6.390  -6.133  27.450  0.00  0.00    +0.210 HD
ENDBRANCH  58  65
BRANCH  57  67
ATOM     67  C   UNL     1       5.513  -4.468  25.588  0.00  0.00    +0.337 C 
ATOM     68  O   UNL     1       5.797  -3.378  25.101  0.00  0.00    -0.248 OA
BRANCH  67  69
ATOM     69  O   UNL     1       6.049  -5.630  25.144  0.00  0.00    -0.479 OA
ATOM     70  H   UNL     1       5.724  -6.392  25.679  0.00  0.00    +0.295 HD
ENDBRANCH  67  69
ENDBRANCH  57  67
ENDBRANCH  54  55
ENDBRANCH   7  54
TORSDOF 24
ENDMDL
MODEL 7
REMARK VINA RESULT:      -6.7      2.440     11.398
REMARK  Name = 
REMARK  24 active torsions:
REMARK  status: ('A' for Active; 'I' for Inactive)
REMARK    1  A    between atoms: C_3  and  O_56
REMARK    2  A    between atoms: C_4  and  O_55
REMARK    3  A    between atoms: C_6  and  C_7
REMARK    4  A    between atoms: C_8  and  O_32
REMARK    5  A    between atoms: C_12  and  O_31
REMARK    6  A    between atoms: C_14  and  O_18
REMARK    7  A    between atoms: O_18  and  C_19
REMARK    8  A    between atoms: C_20  and  O_30
REMARK    9  A    between atoms: C_21  and  O_29
REMARK   10  A    between atoms: C_22  and  O_28
REMARK   11  A    between atoms: C_23  and  C_25
REMARK   12  A    between atoms: C_25  and  O_27
REMARK   13  A    between atoms: O_32  and  C_33
REMARK   14  A    between atoms: C_34  and  O_43
REMARK   15  A    between atoms: C_35  and  O_42
REMARK   16  A    between atoms: C_36  and  O_41
REMARK   17  A    between atoms: C_37  and  C_39
REMARK   18  A    between atoms: C_39  and  O_40
REMARK   19  A    between atoms: O_43  and  C_44
REMARK   20  A    between atoms: C_45  and  O_54
REMARK   21  A    between atoms: C_46  and  O_53
REMARK   22  A    between atoms: C_47  and  O_52
REMARK   23  A    between atoms: C_48  and  C_50
REMARK   24  A    between atoms: C_50  and  O_51
REMARK                            x       y       z     vdW  Elec       q    Type
REMARK                         _______ _______ _______ _____ _____    ______ ____
ROOT
ATOM      1  C   UNL     1       5.503  -1.875  25.793  0.00  0.00    +0.181 A 
ATOM      2  O   UNL     1       4.859  -3.118  26.051  0.00  0.00    -0.451 OA
ATOM      3  C   UNL     1       3.498  -3.183  26.194  0.00  0.00    +0.147 A 
ATOM      4  C   UNL     1       2.783  -2.036  26.475  0.00  0.00    +0.109 A 
ATOM      5  C   UNL     1       1.391  -2.116  26.469  0.00  0.00    +0.135 A 
ATOM      6  C   UNL     1       0.736  -3.313  26.212  0.00  0.00    +0.092 A 
ATOM      7  C   UNL     1       1.443  -4.512  26.130  0.00  0.00    +0.131 A 
ATOM      8  C   UNL     1       3.546  -0.798  26.745  0.00  0.00    +0.238 A 
ATOM      9  O   UNL     1       3.010   0.148  27.310  0.00  0.00    -0.283 OA
ATOM     10  C   UNL     1       2.842  -4.437  26.061  0.00  0.00    +0.093 A 
ATOM     11  C   UNL     1       4.953  -0.686  26.187  0.00  0.00    +0.214 A 
ENDROOT
BRANCH   1  13
ATOM     12  C   UNL     1       7.806  -2.797  25.744  0.00  0.00    +0.015 A 
ATOM     13  C   UNL     1       6.761  -2.158  25.017  0.00  0.00    +0.025 A 
ATOM     14  C   UNL     1       7.034  -1.824  23.683  0.00  0.00    +0.060 A 
ATOM     15  C   UNL     1       8.304  -2.098  23.141  0.00  0.00    +0.159 A 
ATOM     16  C   UNL     1       9.318  -2.679  23.905  0.00  0.00    +0.158 A 
ATOM     17  C   UNL     1       9.075  -3.037  25.215  0.00  0.00    +0.050 A 
BRANCH  16  18
ATOM     18  O   UNL     1      10.542  -2.877  23.325  0.00  0.00    -0.503 OA
ATOM     19  H   UNL     1      10.743  -2.106  22.764  0.00  0.00    +0.292 HD
ENDBRANCH  16  18
BRANCH  15  20
ATOM     20  O   UNL     1       8.588  -1.779  21.841  0.00  0.00    -0.503 OA
ATOM     21  H   UNL     1       9.154  -0.983  21.899  0.00  0.00    +0.292 HD
ENDBRANCH  15  20
ENDBRANCH   1  13
BRANCH   5  22
ATOM     22  O   UNL     1       0.552  -1.053  26.639  0.00  0.00    -0.506 OA
ATOM     23  H   UNL     1      -0.157  -1.156  25.963  0.00  0.00    +0.292 HD
ENDBRANCH   5  22
BRANCH  11  24
ATOM     24  O   UNL     1       5.496   0.597  26.205  0.00  0.00    -0.453 OA
BRANCH  24  25
ATOM     25  C   UNL     1       6.749   0.965  26.831  0.00  0.00    +0.340 C 
ATOM     26  O   UNL     1       6.746   0.582  28.249  0.00  0.00    -0.331 OA
ATOM     27  C   UNL     1       6.389   1.514  29.317  0.00  0.00    +0.179 C 
ATOM     28  C   UNL     1       6.172   3.022  28.977  0.00  0.00    +0.177 C 
ATOM     29  C   UNL     1       6.122   3.299  27.475  0.00  0.00    +0.180 C 
ATOM     30  C   UNL     1       7.196   2.433  26.811  0.00  0.00    +0.221 C 
BRANCH  29  31
ATOM     31  O   UNL     1       6.334   4.696  27.215  0.00  0.00    -0.386 OA
ATOM     32  H   UNL     1       7.182   4.937  27.644  0.00  0.00    +0.210 HD
ENDBRANCH  29  31
BRANCH  28  33
ATOM     33  O   UNL     1       7.157   3.901  29.567  0.00  0.00    -0.386 OA
ATOM     34  H   UNL     1       7.646   4.374  28.866  0.00  0.00    +0.210 HD
ENDBRANCH  28  33
BRANCH  27  35
ATOM     35  C   UNL     1       7.418   1.403  30.485  0.00  0.00    +0.190 C 
BRANCH  35  36
ATOM     36  O   UNL     1       8.742   1.107  30.059  0.00  0.00    -0.392 OA
ATOM     37  H   UNL     1       9.318   1.827  30.356  0.00  0.00    +0.210 HD
ENDBRANCH  35  36
ENDBRANCH  27  35
BRANCH  30  38
ATOM     38  O   UNL     1       7.937   2.976  25.742  0.00  0.00    -0.337 OA
BRANCH  38  39
ATOM     39  C   UNL     1       7.682   2.767  24.379  0.00  0.00    +0.282 C 
ATOM     40  O   UNL     1       8.535   1.715  23.910  0.00  0.00    -0.341 OA
ATOM     41  C   UNL     1       9.898   1.965  24.289  0.00  0.00    +0.178 C 
ATOM     42  C   UNL     1      10.415   3.258  23.625  0.00  0.00    +0.177 C 
ATOM     43  C   UNL     1       9.429   4.436  23.777  0.00  0.00    +0.179 C 
ATOM     44  C   UNL     1       7.973   4.018  23.554  0.00  0.00    +0.201 C 
BRANCH  44  45
ATOM     45  O   UNL     1       7.087   5.087  23.901  0.00  0.00    -0.384 OA
ATOM     46  H   UNL     1       7.356   5.861  23.357  0.00  0.00    +0.210 HD
ENDBRANCH  44  45
BRANCH  43  47
ATOM     47  O   UNL     1       9.733   5.495  22.859  0.00  0.00    -0.386 OA
ATOM     48  H   UNL     1       9.673   5.132  21.958  0.00  0.00    +0.210 HD
ENDBRANCH  43  47
BRANCH  42  49
ATOM     49  O   UNL     1      10.712   3.057  22.237  0.00  0.00    -0.386 OA
ATOM     50  H   UNL     1      11.428   3.667  21.983  0.00  0.00    +0.210 HD
ENDBRANCH  42  49
BRANCH  41  51
ATOM     51  C   UNL     1      10.736   0.724  23.975  0.00  0.00    +0.190 C 
BRANCH  51  52
ATOM     52  O   UNL     1      10.508   0.292  22.637  0.00  0.00    -0.392 OA
ATOM     53  H   UNL     1       9.855   0.894  22.242  0.00  0.00    +0.210 HD
ENDBRANCH  51  52
ENDBRANCH  41  51
ENDBRANCH  38  39
ENDBRANCH  30  38
ENDBRANCH  24  25
ENDBRANCH  11  24
BRANCH   7  54
ATOM     54  O   UNL     1       0.819  -5.752  26.183  0.00  0.00    -0.461 OA
BRANCH  54  55
ATOM     55  C   UNL     1       1.762  -6.859  26.242  0.00  0.00    +0.340 C 
ATOM     56  O   UNL     1       1.997  -7.394  24.917  0.00  0.00    -0.322 OA
ATOM     57  C   UNL     1       0.850  -8.129  24.461  0.00  0.00    +0.261 C 
ATOM     58  C   UNL     1       0.887  -9.446  25.215  0.00  0.00    +0.185 C 
ATOM     59  C   UNL     1       0.549  -9.119  26.670  0.00  0.00    +0.180 C 
ATOM     60  C   UNL     1       1.453  -8.010  27.243  0.00  0.00    +0.214 C 
BRANCH  60  61
ATOM     61  O   UNL     1       0.960  -7.511  28.488  0.00  0.00    -0.383 OA
ATOM     62  H   UNL     1       0.266  -8.127  28.791  0.00  0.00    +0.210 HD
ENDBRANCH  60  61
BRANCH  59  63
ATOM     63  O   UNL     1       0.729 -10.298  27.473  0.00  0.00    -0.386 OA
ATOM     64  H   UNL     1       0.051 -10.942  27.174  0.00  0.00    +0.210 HD
ENDBRANCH  59  63
BRANCH  58  65
ATOM     65  O   UNL     1       2.214 -10.019  25.202  0.00  0.00    -0.386 OA
ATOM     66  H   UNL     1       2.448 -10.181  24.265  0.00  0.00    +0.210 HD
ENDBRANCH  58  65
BRANCH  57  67
ATOM     67  C   UNL     1       0.893  -8.333  22.959  0.00  0.00    +0.337 C 
ATOM     68  O   UNL     1       0.651  -9.395  22.394  0.00  0.00    -0.248 OA
BRANCH  67  69
ATOM     69  O   UNL     1       1.176  -7.193  22.283  0.00  0.00    -0.479 OA
ATOM     70  H   UNL     1       1.174  -7.353  21.311  0.00  0.00    +0.295 HD
ENDBRANCH  67  69
ENDBRANCH  57  67
ENDBRANCH  54  55
ENDBRANCH   7  54
TORSDOF 24
ENDMDL
MODEL 8
REMARK VINA RESULT:      -6.6      2.997     10.174
REMARK  Name = 
REMARK  24 active torsions:
REMARK  status: ('A' for Active; 'I' for Inactive)
REMARK    1  A    between atoms: C_3  and  O_56
REMARK    2  A    between atoms: C_4  and  O_55
REMARK    3  A    between atoms: C_6  and  C_7
REMARK    4  A    between atoms: C_8  and  O_32
REMARK    5  A    between atoms: C_12  and  O_31
REMARK    6  A    between atoms: C_14  and  O_18
REMARK    7  A    between atoms: O_18  and  C_19
REMARK    8  A    between atoms: C_20  and  O_30
REMARK    9  A    between atoms: C_21  and  O_29
REMARK   10  A    between atoms: C_22  and  O_28
REMARK   11  A    between atoms: C_23  and  C_25
REMARK   12  A    between atoms: C_25  and  O_27
REMARK   13  A    between atoms: O_32  and  C_33
REMARK   14  A    between atoms: C_34  and  O_43
REMARK   15  A    between atoms: C_35  and  O_42
REMARK   16  A    between atoms: C_36  and  O_41
REMARK   17  A    between atoms: C_37  and  C_39
REMARK   18  A    between atoms: C_39  and  O_40
REMARK   19  A    between atoms: O_43  and  C_44
REMARK   20  A    between atoms: C_45  and  O_54
REMARK   21  A    between atoms: C_46  and  O_53
REMARK   22  A    between atoms: C_47  and  O_52
REMARK   23  A    between atoms: C_48  and  C_50
REMARK   24  A    between atoms: C_50  and  O_51
REMARK                            x       y       z     vdW  Elec       q    Type
REMARK                         _______ _______ _______ _____ _____    ______ ____
ROOT
ATOM      1  C   UNL     1       6.982   0.480  25.861  0.00  0.00    +0.181 A 
ATOM      2  O   UNL     1       6.264  -0.736  25.689  0.00  0.00    -0.451 OA
ATOM      3  C   UNL     1       6.906  -1.872  25.272  0.00  0.00    +0.147 A 
ATOM      4  C   UNL     1       8.136  -1.777  24.652  0.00  0.00    +0.109 A 
ATOM      5  C   UNL     1       8.822  -2.959  24.374  0.00  0.00    +0.135 A 
ATOM      6  C   UNL     1       8.282  -4.199  24.687  0.00  0.00    +0.092 A 
ATOM      7  C   UNL     1       6.963  -4.316  25.122  0.00  0.00    +0.131 A 
ATOM      8  C   UNL     1       8.646  -0.423  24.343  0.00  0.00    +0.238 A 
ATOM      9  O   UNL     1       9.545  -0.273  23.522  0.00  0.00    -0.283 OA
ATOM     10  C   UNL     1       6.289  -3.137  25.475  0.00  0.00    +0.093 A 
ATOM     11  C   UNL     1       8.126   0.745  25.160  0.00  0.00    +0.214 A 
ENDROOT
BRANCH   1  13
ATOM     12  C   UNL     1       4.932   1.642  26.642  0.00  0.00    +0.015 A 
ATOM     13  C   UNL     1       6.281   1.283  26.925  0.00  0.00    +0.025 A 
ATOM     14  C   UNL     1       6.819   1.754  28.131  0.00  0.00    +0.060 A 
ATOM     15  C   UNL     1       6.036   2.563  28.976  0.00  0.00    +0.159 A 
ATOM     16  C   UNL     1       4.733   2.934  28.636  0.00  0.00    +0.158 A 
ATOM     17  C   UNL     1       4.169   2.471  27.465  0.00  0.00    +0.050 A 
BRANCH  16  18
ATOM     18  O   UNL     1       4.046   3.759  29.485  0.00  0.00    -0.503 OA
ATOM     19  H   UNL     1       3.570   3.205  30.130  0.00  0.00    +0.292 HD
ENDBRANCH  16  18
BRANCH  15  20
ATOM     20  O   UNL     1       6.545   3.030  30.157  0.00  0.00    -0.503 OA
ATOM     21  H   UNL     1       7.436   3.364  29.928  0.00  0.00    +0.292 HD
ENDBRANCH  15  20
ENDBRANCH   1  13
BRANCH   5  22
ATOM     22  O   UNL     1      10.080  -3.019  23.849  0.00  0.00    -0.506 OA
ATOM     23  H   UNL     1      10.255  -3.973  23.674  0.00  0.00    +0.292 HD
ENDBRANCH   5  22
BRANCH  11  24
ATOM     24  O   UNL     1       8.857   1.924  25.039  0.00  0.00    -0.453 OA
BRANCH  24  25
ATOM     25  C   UNL     1       8.512   3.037  24.179  0.00  0.00    +0.340 C 
ATOM     26  O   UNL     1       9.658   3.944  24.027  0.00  0.00    -0.331 OA
ATOM     27  C   UNL     1       9.829   5.140  24.850  0.00  0.00    +0.179 C 
ATOM     28  C   UNL     1       8.678   5.585  25.806  0.00  0.00    +0.177 C 
ATOM     29  C   UNL     1       7.573   4.539  25.945  0.00  0.00    +0.180 C 
ATOM     30  C   UNL     1       7.330   3.939  24.557  0.00  0.00    +0.221 C 
BRANCH  29  31
ATOM     31  O   UNL     1       6.380   5.137  26.478  0.00  0.00    -0.386 OA
ATOM     32  H   UNL     1       6.623   6.042  26.766  0.00  0.00    +0.210 HD
ENDBRANCH  29  31
BRANCH  28  33
ATOM     33  O   UNL     1       8.067   6.844  25.438  0.00  0.00    -0.386 OA
ATOM     34  H   UNL     1       7.249   6.981  25.953  0.00  0.00    +0.210 HD
ENDBRANCH  28  33
BRANCH  27  35
ATOM     35  C   UNL     1      10.234   6.349  23.949  0.00  0.00    +0.190 C 
BRANCH  35  36
ATOM     36  O   UNL     1      10.908   5.977  22.755  0.00  0.00    -0.392 OA
ATOM     37  H   UNL     1      10.329   6.188  22.007  0.00  0.00    +0.210 HD
ENDBRANCH  35  36
ENDBRANCH  27  35
BRANCH  30  38
ATOM     38  O   UNL     1       6.007   3.643  24.171  0.00  0.00    -0.337 OA
BRANCH  38  39
ATOM     39  C   UNL     1       5.550   3.504  22.852  0.00  0.00    +0.282 C 
ATOM     40  O   UNL     1       6.126   4.548  22.056  0.00  0.00    -0.341 OA
ATOM     41  C   UNL     1       5.931   5.826  22.684  0.00  0.00    +0.178 C 
ATOM     42  C   UNL     1       4.427   6.153  22.789  0.00  0.00    +0.177 C 
ATOM     43  C   UNL     1       3.604   4.974  23.352  0.00  0.00    +0.179 C 
ATOM     44  C   UNL     1       4.031   3.625  22.767  0.00  0.00    +0.201 C 
BRANCH  44  45
ATOM     45  O   UNL     1       3.386   2.552  23.460  0.00  0.00    -0.384 OA
ATOM     46  H   UNL     1       3.697   1.719  23.038  0.00  0.00    +0.210 HD
ENDBRANCH  44  45
BRANCH  43  47
ATOM     47  O   UNL     1       2.203   5.145  23.097  0.00  0.00    -0.386 OA
ATOM     48  H   UNL     1       1.858   4.299  22.762  0.00  0.00    +0.210 HD
ENDBRANCH  43  47
BRANCH  42  49
ATOM     49  O   UNL     1       3.884   6.557  21.526  0.00  0.00    -0.386 OA
ATOM     50  H   UNL     1       3.161   5.949  21.291  0.00  0.00    +0.210 HD
ENDBRANCH  42  49
BRANCH  41  51
ATOM     51  C   UNL     1       6.747   6.878  21.932  0.00  0.00    +0.190 C 
BRANCH  51  52
ATOM     52  O   UNL     1       8.000   6.339  21.520  0.00  0.00    -0.392 OA
ATOM     53  H   UNL     1       8.218   6.732  20.658  0.00  0.00    +0.210 HD
ENDBRANCH  51  52
ENDBRANCH  41  51
ENDBRANCH  38  39
ENDBRANCH  30  38
ENDBRANCH  24  25
ENDBRANCH  11  24
BRANCH   7  54
ATOM     54  O   UNL     1       6.290  -5.531  25.151  0.00  0.00    -0.461 OA
BRANCH  54  55
ATOM     55  C   UNL     1       4.851  -5.387  24.998  0.00  0.00    +0.340 C 
ATOM     56  O   UNL     1       4.200  -5.416  26.291  0.00  0.00    -0.322 OA
ATOM     57  C   UNL     1       4.213  -6.749  26.830  0.00  0.00    +0.261 C 
ATOM     58  C   UNL     1       3.151  -7.509  26.056  0.00  0.00    +0.185 C 
ATOM     59  C   UNL     1       3.697  -7.689  24.639  0.00  0.00    +0.180 C 
ATOM     60  C   UNL     1       4.135  -6.352  24.010  0.00  0.00    +0.214 C 
BRANCH  60  61
ATOM     61  O   UNL     1       4.898  -6.550  22.817  0.00  0.00    -0.383 OA
ATOM     62  H   UNL     1       5.389  -5.723  22.650  0.00  0.00    +0.210 HD
ENDBRANCH  60  61
BRANCH  59  63
ATOM     63  O   UNL     1       2.671  -8.257  23.807  0.00  0.00    -0.386 OA
ATOM     64  H   UNL     1       2.612  -7.685  23.011  0.00  0.00    +0.210 HD
ENDBRANCH  59  63
BRANCH  58  65
ATOM     65  O   UNL     1       1.931  -6.741  25.951  0.00  0.00    -0.386 OA
ATOM     66  H   UNL     1       1.547  -6.932  25.070  0.00  0.00    +0.210 HD
ENDBRANCH  58  65
BRANCH  57  67
ATOM     67  C   UNL     1       3.933  -6.738  28.320  0.00  0.00    +0.337 C 
ATOM     68  O   UNL     1       4.495  -6.004  29.128  0.00  0.00    -0.248 OA
BRANCH  67  69
ATOM     69  O   UNL     1       2.944  -7.594  28.674  0.00  0.00    -0.479 OA
ATOM     70  H   UNL     1       2.175  -7.104  29.049  0.00  0.00    +0.295 HD
ENDBRANCH  67  69
ENDBRANCH  57  67
ENDBRANCH  54  55
ENDBRANCH   7  54
TORSDOF 24
ENDMDL
MODEL 9
REMARK VINA RESULT:      -6.5      2.605     11.359
REMARK  Name = 
REMARK  24 active torsions:
REMARK  status: ('A' for Active; 'I' for Inactive)
REMARK    1  A    between atoms: C_3  and  O_56
REMARK    2  A    between atoms: C_4  and  O_55
REMARK    3  A    between atoms: C_6  and  C_7
REMARK    4  A    between atoms: C_8  and  O_32
REMARK    5  A    between atoms: C_12  and  O_31
REMARK    6  A    between atoms: C_14  and  O_18
REMARK    7  A    between atoms: O_18  and  C_19
REMARK    8  A    between atoms: C_20  and  O_30
REMARK    9  A    between atoms: C_21  and  O_29
REMARK   10  A    between atoms: C_22  and  O_28
REMARK   11  A    between atoms: C_23  and  C_25
REMARK   12  A    between atoms: C_25  and  O_27
REMARK   13  A    between atoms: O_32  and  C_33
REMARK   14  A    between atoms: C_34  and  O_43
REMARK   15  A    between atoms: C_35  and  O_42
REMARK   16  A    between atoms: C_36  and  O_41
REMARK   17  A    between atoms: C_37  and  C_39
REMARK   18  A    between atoms: C_39  and  O_40
REMARK   19  A    between atoms: O_43  and  C_44
REMARK   20  A    between atoms: C_45  and  O_54
REMARK   21  A    between atoms: C_46  and  O_53
REMARK   22  A    between atoms: C_47  and  O_52
REMARK   23  A    between atoms: C_48  and  C_50
REMARK   24  A    between atoms: C_50  and  O_51
REMARK                            x       y       z     vdW  Elec       q    Type
REMARK                         _______ _______ _______ _____ _____    ______ ____
ROOT
ATOM      1  C   UNL     1       5.581  -0.998  25.834  0.00  0.00    +0.181 A 
ATOM      2  O   UNL     1       5.023  -2.275  26.122  0.00  0.00    -0.451 OA
ATOM      3  C   UNL     1       3.702  -2.397  26.466  0.00  0.00    +0.147 A 
ATOM      4  C   UNL     1       3.004  -1.292  26.910  0.00  0.00    +0.109 A 
ATOM      5  C   UNL     1       1.630  -1.424  27.110  0.00  0.00    +0.135 A 
ATOM      6  C   UNL     1       0.980  -2.631  26.894  0.00  0.00    +0.092 A 
ATOM      7  C   UNL     1       1.701  -3.798  26.646  0.00  0.00    +0.131 A 
ATOM      8  C   UNL     1       3.762  -0.040  27.124  0.00  0.00    +0.238 A 
ATOM      9  O   UNL     1       3.291   0.859  27.811  0.00  0.00    -0.283 OA
ATOM     10  C   UNL     1       3.070  -3.668  26.370  0.00  0.00    +0.093 A 
ATOM     11  C   UNL     1       5.064   0.150  26.367  0.00  0.00    +0.214 A 
ENDROOT
BRANCH   1  13
ATOM     12  C   UNL     1       6.729  -0.324  23.739  0.00  0.00    +0.015 A 
ATOM     13  C   UNL     1       6.714  -1.199  24.862  0.00  0.00    +0.025 A 
ATOM     14  C   UNL     1       7.719  -2.175  24.914  0.00  0.00    +0.060 A 
ATOM     15  C   UNL     1       8.658  -2.266  23.870  0.00  0.00    +0.159 A 
ATOM     16  C   UNL     1       8.606  -1.420  22.760  0.00  0.00    +0.158 A 
ATOM     17  C   UNL     1       7.641  -0.437  22.688  0.00  0.00    +0.050 A 
BRANCH  16  18
ATOM     18  O   UNL     1       9.526  -1.594  21.761  0.00  0.00    -0.503 OA
ATOM     19  H   UNL     1      10.410  -1.403  22.123  0.00  0.00    +0.292 HD
ENDBRANCH  16  18
BRANCH  15  20
ATOM     20  O   UNL     1       9.647  -3.211  23.905  0.00  0.00    -0.503 OA
ATOM     21  H   UNL     1      10.479  -2.698  23.947  0.00  0.00    +0.292 HD
ENDBRANCH  15  20
ENDBRANCH   1  13
BRANCH   5  22
ATOM     22  O   UNL     1       0.796  -0.401  27.459  0.00  0.00    -0.506 OA
ATOM     23  H   UNL     1       0.839  -0.340  28.442  0.00  0.00    +0.292 HD
ENDBRANCH   5  22
BRANCH  11  24
ATOM     24  O   UNL     1       5.564   1.450  26.367  0.00  0.00    -0.453 OA
BRANCH  24  25
ATOM     25  C   UNL     1       6.861   1.845  26.876  0.00  0.00    +0.340 C 
ATOM     26  O   UNL     1       7.067   1.309  28.229  0.00  0.00    -0.331 OA
ATOM     27  C   UNL     1       6.791   2.088  29.435  0.00  0.00    +0.179 C 
ATOM     28  C   UNL     1       6.435   3.602  29.305  0.00  0.00    +0.177 C 
ATOM     29  C   UNL     1       6.173   4.038  27.864  0.00  0.00    +0.180 C 
ATOM     30  C   UNL     1       7.206   3.336  26.976  0.00  0.00    +0.221 C 
BRANCH  29  31
ATOM     31  O   UNL     1       6.259   5.467  27.747  0.00  0.00    -0.386 OA
ATOM     32  H   UNL     1       5.388   5.777  27.422  0.00  0.00    +0.210 HD
ENDBRANCH  29  31
BRANCH  28  33
ATOM     33  O   UNL     1       7.429   4.487  29.872  0.00  0.00    -0.386 OA
ATOM     34  H   UNL     1       7.353   5.374  29.472  0.00  0.00    +0.210 HD
ENDBRANCH  28  33
BRANCH  27  35
ATOM     35  C   UNL     1       7.967   1.931  30.448  0.00  0.00    +0.190 C 
BRANCH  35  36
ATOM     36  O   UNL     1       8.986   1.039  30.014  0.00  0.00    -0.392 OA
ATOM     37  H   UNL     1       9.264   1.313  29.127  0.00  0.00    +0.210 HD
ENDBRANCH  35  36
ENDBRANCH  27  35
BRANCH  30  38
ATOM     38  O   UNL     1       7.766   4.051  25.898  0.00  0.00    -0.337 OA
BRANCH  38  39
ATOM     39  C   UNL     1       8.093   3.516  24.643  0.00  0.00    +0.282 C 
ATOM     40  O   UNL     1       9.285   4.158  24.170  0.00  0.00    -0.341 OA
ATOM     41  C   UNL     1       9.156   5.586  24.257  0.00  0.00    +0.178 C 
ATOM     42  C   UNL     1       8.015   6.083  23.345  0.00  0.00    +0.177 C 
ATOM     43  C   UNL     1       6.719   5.261  23.519  0.00  0.00    +0.179 C 
ATOM     44  C   UNL     1       6.986   3.757  23.621  0.00  0.00    +0.201 C 
BRANCH  44  45
ATOM     45  O   UNL     1       5.788   3.060  23.981  0.00  0.00    -0.384 OA
ATOM     46  H   UNL     1       5.321   2.854  23.140  0.00  0.00    +0.210 HD
ENDBRANCH  44  45
BRANCH  43  47
ATOM     47  O   UNL     1       5.812   5.478  22.429  0.00  0.00    -0.386 OA
ATOM     48  H   UNL     1       6.190   5.050  21.641  0.00  0.00    +0.210 HD
ENDBRANCH  43  47
BRANCH  42  49
ATOM     49  O   UNL     1       8.402   6.083  21.966  0.00  0.00    -0.386 OA
ATOM     50  H   UNL     1       8.832   5.232  21.766  0.00  0.00    +0.210 HD
ENDBRANCH  42  49
BRANCH  41  51
ATOM     51  C   UNL     1      10.514   6.225  23.963  0.00  0.00    +0.190 C 
BRANCH  51  52
ATOM     52  O   UNL     1      11.138   5.585  22.854  0.00  0.00    -0.392 OA
ATOM     53  H   UNL     1      10.831   6.031  22.047  0.00  0.00    +0.210 HD
ENDBRANCH  51  52
ENDBRANCH  41  51
ENDBRANCH  38  39
ENDBRANCH  30  38
ENDBRANCH  24  25
ENDBRANCH  11  24
BRANCH   7  54
ATOM     54  O   UNL     1       1.130  -5.062  26.730  0.00  0.00    -0.461 OA
BRANCH  54  55
ATOM     55  C   UNL     1       2.113  -6.133  26.665  0.00  0.00    +0.340 C 
ATOM     56  O   UNL     1       2.499  -6.383  25.292  0.00  0.00    -0.322 OA
ATOM     57  C   UNL     1       1.436  -7.041  24.583  0.00  0.00    +0.261 C 
ATOM     58  C   UNL     1       1.460  -8.481  25.061  0.00  0.00    +0.185 C 
ATOM     59  C   UNL     1       0.968  -8.463  26.509  0.00  0.00    +0.180 C 
ATOM     60  C   UNL     1       1.761  -7.470  27.380  0.00  0.00    +0.214 C 
BRANCH  60  61
ATOM     61  O   UNL     1       1.128  -7.245  28.642  0.00  0.00    -0.383 OA
ATOM     62  H   UNL     1       1.593  -7.797  29.299  0.00  0.00    +0.210 HD
ENDBRANCH  60  61
BRANCH  59  63
ATOM     63  O   UNL     1       1.124  -9.775  27.076  0.00  0.00    -0.386 OA
ATOM     64  H   UNL     1       0.843 -10.411  26.382  0.00  0.00    +0.210 HD
ENDBRANCH  59  63
BRANCH  58  65
ATOM     65  O   UNL     1       2.807  -9.005  25.072  0.00  0.00    -0.386 OA
ATOM     66  H   UNL     1       2.899  -9.579  24.283  0.00  0.00    +0.210 HD
ENDBRANCH  58  65
BRANCH  57  67
ATOM     67  C   UNL     1       1.633  -6.935  23.083  0.00  0.00    +0.337 C 
ATOM     68  O   UNL     1       1.614  -5.883  22.452  0.00  0.00    -0.248 OA
BRANCH  67  69
ATOM     69  O   UNL     1       1.891  -8.132  22.502  0.00  0.00    -0.479 OA
ATOM     70  H   UNL     1       2.778  -8.128  22.074  0.00  0.00    +0.295 HD
ENDBRANCH  67  69
ENDBRANCH  57  67
ENDBRANCH  54  55
ENDBRANCH   7  54
TORSDOF 24
ENDMDL
