MODEL 1
REMARK VINA RESULT:      -7.6      0.000      0.000
REMARK  Name = 
REMARK  13 active torsions:
REMARK  status: ('A' for Active; 'I' for Inactive)
REMARK    1  A    between atoms: C_1  and  O_2
REMARK    2  A    between atoms: O_2  and  C_3
REMARK    3  A    between atoms: C_4  and  C_30
REMARK    4  A    between atoms: C_8  and  O_15
REMARK    5  A    between atoms: C_10  and  O_14
REMARK    6  A    between atoms: O_15  and  C_16
REMARK    7  A    between atoms: C_18  and  O_29
REMARK    8  A    between atoms: C_19  and  O_28
REMARK    9  A    between atoms: C_21  and  O_27
REMARK   10  A    between atoms: C_23  and  C_25
REMARK   11  A    between atoms: C_25  and  O_26
REMARK   12  A    between atoms: C_32  and  O_37
REMARK   13  A    between atoms: C_33  and  O_36
REMARK                            x       y       z     vdW  Elec       q    Type
REMARK                         _______ _______ _______ _____ _____    ______ ____
ROOT
ATOM      1  C   UNL     1       8.601  -3.718  24.135  0.00  0.00    +0.211 A 
ATOM      2  C   UNL     1       9.392  -2.533  23.672  0.00  0.00    +0.238 A 
ATOM      3  O   UNL     1      10.515  -2.642  23.204  0.00  0.00    -0.283 OA
ATOM      4  C   UNL     1       8.714  -1.220  23.780  0.00  0.00    +0.109 A 
ATOM      5  C   UNL     1       7.323  -1.216  23.831  0.00  0.00    +0.147 A 
ATOM      6  C   UNL     1       6.604  -0.013  23.806  0.00  0.00    +0.093 A 
ATOM      7  C   UNL     1       7.283   1.205  23.840  0.00  0.00    +0.131 A 
ATOM      8  C   UNL     1       8.683   1.208  23.836  0.00  0.00    +0.092 A 
ATOM      9  O   UNL     1       6.591  -2.369  23.949  0.00  0.00    -0.451 OA
ATOM     10  C   UNL     1       9.394   0.000  23.795  0.00  0.00    +0.135 A 
ATOM     11  C   UNL     1       7.269  -3.540  24.257  0.00  0.00    +0.181 A 
ENDROOT
BRANCH  11  12
ATOM     12  C   UNL     1       6.380  -4.590  24.785  0.00  0.00    +0.025 A 
ATOM     13  C   UNL     1       6.129  -4.634  26.170  0.00  0.00    +0.015 A 
ATOM     14  C   UNL     1       5.301  -5.612  26.715  0.00  0.00    +0.050 A 
ATOM     15  C   UNL     1       4.717  -6.547  25.873  0.00  0.00    +0.158 A 
ATOM     16  C   UNL     1       4.946  -6.509  24.499  0.00  0.00    +0.159 A 
ATOM     17  C   UNL     1       5.778  -5.537  23.945  0.00  0.00    +0.060 A 
BRANCH  15  18
ATOM     18  O   UNL     1       3.912  -7.514  26.407  0.00  0.00    -0.503 OA
ATOM     19  H   UNL     1       3.664  -8.076  25.645  0.00  0.00    +0.292 HD
ENDBRANCH  15  18
BRANCH  16  20
ATOM     20  O   UNL     1       4.323  -7.458  23.735  0.00  0.00    -0.503 OA
ATOM     21  H   UNL     1       3.371  -7.255  23.716  0.00  0.00    +0.292 HD
ENDBRANCH  16  20
ENDBRANCH  11  12
BRANCH   1  23
ATOM     22  C   UNL     1       9.819  -5.152  25.611  0.00  0.00    +0.277 C 
ATOM     23  O   UNL     1       9.172  -4.964  24.357  0.00  0.00    -0.488 OA
ENDBRANCH   1  23
BRANCH  10  24
ATOM     24  O   UNL     1      10.759   0.034  23.830  0.00  0.00    -0.506 OA
ATOM     25  H   UNL     1      11.089  -0.515  24.560  0.00  0.00    +0.292 HD
ENDBRANCH  10  24
BRANCH   7  26
ATOM     26  O   UNL     1       6.682   2.436  23.854  0.00  0.00    -0.461 OA
BRANCH  26  27
ATOM     27  C   UNL     1       6.063   2.874  22.629  0.00  0.00    +0.339 C 
ATOM     28  O   UNL     1       6.789   3.925  21.980  0.00  0.00    -0.331 OA
ATOM     29  C   UNL     1       6.832   5.162  22.713  0.00  0.00    +0.179 C 
ATOM     30  C   UNL     1       5.424   5.684  23.067  0.00  0.00    +0.177 C 
ATOM     31  C   UNL     1       4.614   4.603  23.783  0.00  0.00    +0.180 C 
ATOM     32  C   UNL     1       4.612   3.333  22.922  0.00  0.00    +0.214 C 
BRANCH  30  33
ATOM     33  O   UNL     1       5.513   6.849  23.898  0.00  0.00    -0.386 OA
ATOM     34  H   UNL     1       4.632   6.942  24.320  0.00  0.00    +0.210 HD
ENDBRANCH  30  33
BRANCH  31  35
ATOM     35  O   UNL     1       5.179   4.426  25.095  0.00  0.00    -0.386 OA
ATOM     36  H   UNL     1       5.995   3.898  25.013  0.00  0.00    +0.210 HD
ENDBRANCH  31  35
BRANCH  32  37
ATOM     37  O   UNL     1       3.808   2.333  23.550  0.00  0.00    -0.383 OA
ATOM     38  H   UNL     1       4.307   1.501  23.596  0.00  0.00    +0.210 HD
ENDBRANCH  32  37
BRANCH  29  39
ATOM     39  C   UNL     1       7.568   6.210  21.860  0.00  0.00    +0.190 C 
BRANCH  39  40
ATOM     40  O   UNL     1       6.673   7.027  21.110  0.00  0.00    -0.392 OA
ATOM     41  H   UNL     1       7.211   7.571  20.505  0.00  0.00    +0.210 HD
ENDBRANCH  39  40
ENDBRANCH  29  39
ENDBRANCH  26  27
ENDBRANCH   7  26
TORSDOF 12
ENDMDL
MODEL 2
REMARK VINA RESULT:      -7.2      1.051      2.196
REMARK  Name = 
REMARK  13 active torsions:
REMARK  status: ('A' for Active; 'I' for Inactive)
REMARK    1  A    between atoms: C_1  and  O_2
REMARK    2  A    between atoms: O_2  and  C_3
REMARK    3  A    between atoms: C_4  and  C_30
REMARK    4  A    between atoms: C_8  and  O_15
REMARK    5  A    between atoms: C_10  and  O_14
REMARK    6  A    between atoms: O_15  and  C_16
REMARK    7  A    between atoms: C_18  and  O_29
REMARK    8  A    between atoms: C_19  and  O_28
REMARK    9  A    between atoms: C_21  and  O_27
REMARK   10  A    between atoms: C_23  and  C_25
REMARK   11  A    between atoms: C_25  and  O_26
REMARK   12  A    between atoms: C_32  and  O_37
REMARK   13  A    between atoms: C_33  and  O_36
REMARK                            x       y       z     vdW  Elec       q    Type
REMARK                         _______ _______ _______ _____ _____    ______ ____
ROOT
ATOM      1  C   UNL     1       8.635  -3.740  24.070  0.00  0.00    +0.211 A 
ATOM      2  C   UNL     1       9.404  -2.576  23.524  0.00  0.00    +0.238 A 
ATOM      3  O   UNL     1      10.568  -2.674  23.167  0.00  0.00    -0.283 OA
ATOM      4  C   UNL     1       8.656  -1.303  23.406  0.00  0.00    +0.109 A 
ATOM      5  C   UNL     1       7.266  -1.376  23.343  0.00  0.00    +0.147 A 
ATOM      6  C   UNL     1       6.494  -0.231  23.105  0.00  0.00    +0.093 A 
ATOM      7  C   UNL     1       7.107   1.020  23.036  0.00  0.00    +0.131 A 
ATOM      8  C   UNL     1       8.500   1.107  23.147  0.00  0.00    +0.092 A 
ATOM      9  O   UNL     1       6.585  -2.548  23.548  0.00  0.00    -0.451 OA
ATOM     10  C   UNL     1       9.270  -0.051  23.319  0.00  0.00    +0.135 A 
ATOM     11  C   UNL     1       7.290  -3.628  24.058  0.00  0.00    +0.181 A 
ENDROOT
BRANCH  11  12
ATOM     12  C   UNL     1       6.411  -4.656  24.644  0.00  0.00    +0.025 A 
ATOM     13  C   UNL     1       6.216  -4.670  26.038  0.00  0.00    +0.015 A 
ATOM     14  C   UNL     1       5.399  -5.627  26.635  0.00  0.00    +0.050 A 
ATOM     15  C   UNL     1       4.770  -6.570  25.837  0.00  0.00    +0.158 A 
ATOM     16  C   UNL     1       4.943  -6.562  24.454  0.00  0.00    +0.159 A 
ATOM     17  C   UNL     1       5.763  -5.612  23.847  0.00  0.00    +0.060 A 
BRANCH  15  18
ATOM     18  O   UNL     1       3.976  -7.516  26.422  0.00  0.00    -0.503 OA
ATOM     19  H   UNL     1       3.126  -7.455  25.941  0.00  0.00    +0.292 HD
ENDBRANCH  15  18
BRANCH  16  20
ATOM     20  O   UNL     1       4.278  -7.517  23.735  0.00  0.00    -0.503 OA
ATOM     21  H   UNL     1       4.893  -8.254  23.568  0.00  0.00    +0.292 HD
ENDBRANCH  16  20
ENDBRANCH  11  12
BRANCH   1  23
ATOM     22  C   UNL     1       9.818  -4.892  25.799  0.00  0.00    +0.277 C 
ATOM     23  O   UNL     1       9.245  -4.912  24.497  0.00  0.00    -0.488 OA
ENDBRANCH   1  23
BRANCH  10  24
ATOM     24  O   UNL     1      10.624   0.069  23.461  0.00  0.00    -0.506 OA
ATOM     25  H   UNL     1      11.013  -0.791  23.688  0.00  0.00    +0.292 HD
ENDBRANCH  10  24
BRANCH   7  26
ATOM     26  O   UNL     1       6.447   2.205  22.843  0.00  0.00    -0.461 OA
BRANCH  26  27
ATOM     27  C   UNL     1       5.662   2.702  23.944  0.00  0.00    +0.339 C 
ATOM     28  O   UNL     1       4.252   2.640  23.697  0.00  0.00    -0.331 OA
ATOM     29  C   UNL     1       3.793   3.496  22.636  0.00  0.00    +0.179 C 
ATOM     30  C   UNL     1       4.188   4.970  22.858  0.00  0.00    +0.177 C 
ATOM     31  C   UNL     1       5.691   5.093  23.105  0.00  0.00    +0.180 C 
ATOM     32  C   UNL     1       6.083   4.160  24.258  0.00  0.00    +0.214 C 
BRANCH  30  33
ATOM     33  O   UNL     1       3.819   5.766  21.724  0.00  0.00    -0.386 OA
ATOM     34  H   UNL     1       3.426   5.141  21.077  0.00  0.00    +0.210 HD
ENDBRANCH  30  33
BRANCH  31  35
ATOM     35  O   UNL     1       6.365   4.812  21.864  0.00  0.00    -0.386 OA
ATOM     36  H   UNL     1       7.328   4.869  22.013  0.00  0.00    +0.210 HD
ENDBRANCH  31  35
BRANCH  32  37
ATOM     37  O   UNL     1       7.475   4.309  24.540  0.00  0.00    -0.383 OA
ATOM     38  H   UNL     1       7.862   3.436  24.720  0.00  0.00    +0.210 HD
ENDBRANCH  32  37
BRANCH  29  39
ATOM     39  C   UNL     1       2.260   3.384  22.546  0.00  0.00    +0.190 C 
BRANCH  39  40
ATOM     40  O   UNL     1       1.708   2.608  23.606  0.00  0.00    -0.392 OA
ATOM     41  H   UNL     1       0.742   2.580  23.475  0.00  0.00    +0.210 HD
ENDBRANCH  39  40
ENDBRANCH  29  39
ENDBRANCH  26  27
ENDBRANCH   7  26
TORSDOF 12
ENDMDL
MODEL 3
REMARK VINA RESULT:      -7.1      2.015      9.038
REMARK  Name = 
REMARK  13 active torsions:
REMARK  status: ('A' for Active; 'I' for Inactive)
REMARK    1  A    between atoms: C_1  and  O_2
REMARK    2  A    between atoms: O_2  and  C_3
REMARK    3  A    between atoms: C_4  and  C_30
REMARK    4  A    between atoms: C_8  and  O_15
REMARK    5  A    between atoms: C_10  and  O_14
REMARK    6  A    between atoms: O_15  and  C_16
REMARK    7  A    between atoms: C_18  and  O_29
REMARK    8  A    between atoms: C_19  and  O_28
REMARK    9  A    between atoms: C_21  and  O_27
REMARK   10  A    between atoms: C_23  and  C_25
REMARK   11  A    between atoms: C_25  and  O_26
REMARK   12  A    between atoms: C_32  and  O_37
REMARK   13  A    between atoms: C_33  and  O_36
REMARK                            x       y       z     vdW  Elec       q    Type
REMARK                         _______ _______ _______ _____ _____    ______ ____
ROOT
ATOM      1  C   UNL     1       8.917  -1.328  23.531  0.00  0.00    +0.211 A 
ATOM      2  C   UNL     1       8.800  -2.805  23.755  0.00  0.00    +0.238 A 
ATOM      3  O   UNL     1       9.735  -3.477  24.164  0.00  0.00    -0.283 OA
ATOM      4  C   UNL     1       7.470  -3.397  23.486  0.00  0.00    +0.109 A 
ATOM      5  C   UNL     1       6.367  -2.548  23.521  0.00  0.00    +0.147 A 
ATOM      6  C   UNL     1       5.064  -3.052  23.404  0.00  0.00    +0.093 A 
ATOM      7  C   UNL     1       4.863  -4.406  23.139  0.00  0.00    +0.131 A 
ATOM      8  C   UNL     1       5.970  -5.259  23.056  0.00  0.00    +0.092 A 
ATOM      9  O   UNL     1       6.494  -1.187  23.631  0.00  0.00    -0.451 OA
ATOM     10  C   UNL     1       7.266  -4.758  23.240  0.00  0.00    +0.135 A 
ATOM     11  C   UNL     1       7.758  -0.638  23.467  0.00  0.00    +0.181 A 
ENDROOT
BRANCH  11  12
ATOM     12  C   UNL     1       7.717   0.803  23.164  0.00  0.00    +0.025 A 
ATOM     13  C   UNL     1       7.953   1.227  21.842  0.00  0.00    +0.015 A 
ATOM     14  C   UNL     1       7.932   2.580  21.511  0.00  0.00    +0.050 A 
ATOM     15  C   UNL     1       7.667   3.513  22.502  0.00  0.00    +0.158 A 
ATOM     16  C   UNL     1       7.418   3.108  23.813  0.00  0.00    +0.159 A 
ATOM     17  C   UNL     1       7.444   1.757  24.155  0.00  0.00    +0.060 A 
BRANCH  15  18
ATOM     18  O   UNL     1       7.654   4.841  22.182  0.00  0.00    -0.503 OA
ATOM     19  H   UNL     1       6.752   5.003  21.838  0.00  0.00    +0.292 HD
ENDBRANCH  15  18
BRANCH  16  20
ATOM     20  O   UNL     1       7.152   4.088  24.730  0.00  0.00    -0.503 OA
ATOM     21  H   UNL     1       6.361   3.825  25.233  0.00  0.00    +0.292 HD
ENDBRANCH  16  20
ENDBRANCH  11  12
BRANCH   1  23
ATOM     22  C   UNL     1      10.572  -0.025  24.663  0.00  0.00    +0.277 C 
ATOM     23  O   UNL     1      10.137  -0.669  23.471  0.00  0.00    -0.488 OA
ENDBRANCH   1  23
BRANCH  10  24
ATOM     24  O   UNL     1       8.329  -5.607  23.116  0.00  0.00    -0.506 OA
ATOM     25  H   UNL     1       9.119  -5.115  22.839  0.00  0.00    +0.292 HD
ENDBRANCH  10  24
BRANCH   7  26
ATOM     26  O   UNL     1       3.639  -4.998  22.971  0.00  0.00    -0.461 OA
BRANCH  26  27
ATOM     27  C   UNL     1       2.650  -4.750  23.990  0.00  0.00    +0.339 C 
ATOM     28  O   UNL     1       3.143  -4.979  25.315  0.00  0.00    -0.331 OA
ATOM     29  C   UNL     1       3.480  -6.348  25.599  0.00  0.00    +0.179 C 
ATOM     30  C   UNL     1       2.300  -7.308  25.342  0.00  0.00    +0.177 C 
ATOM     31  C   UNL     1       1.750  -7.118  23.928  0.00  0.00    +0.180 C 
ATOM     32  C   UNL     1       1.407  -5.637  23.725  0.00  0.00    +0.214 C 
BRANCH  30  33
ATOM     33  O   UNL     1       2.712  -8.670  25.520  0.00  0.00    -0.386 OA
ATOM     34  H   UNL     1       3.682  -8.638  25.663  0.00  0.00    +0.210 HD
ENDBRANCH  30  33
BRANCH  31  35
ATOM     35  O   UNL     1       2.728  -7.630  23.003  0.00  0.00    -0.386 OA
ATOM     36  H   UNL     1       2.265  -7.940  22.202  0.00  0.00    +0.210 HD
ENDBRANCH  31  35
BRANCH  32  37
ATOM     37  O   UNL     1       0.835  -5.455  22.428  0.00  0.00    -0.383 OA
ATOM     38  H   UNL     1       0.068  -4.862  22.496  0.00  0.00    +0.210 HD
ENDBRANCH  32  37
BRANCH  29  39
ATOM     39  C   UNL     1       3.911  -6.449  27.073  0.00  0.00    +0.190 C 
BRANCH  39  40
ATOM     40  O   UNL     1       4.954  -7.400  27.271  0.00  0.00    -0.392 OA
ATOM     41  H   UNL     1       4.785  -7.847  28.122  0.00  0.00    +0.210 HD
ENDBRANCH  39  40
ENDBRANCH  29  39
ENDBRANCH  26  27
ENDBRANCH   7  26
TORSDOF 12
ENDMDL
MODEL 4
REMARK VINA RESULT:      -6.8      1.228      2.232
REMARK  Name = 
REMARK  13 active torsions:
REMARK  status: ('A' for Active; 'I' for Inactive)
REMARK    1  A    between atoms: C_1  and  O_2
REMARK    2  A    between atoms: O_2  and  C_3
REMARK    3  A    between atoms: C_4  and  C_30
REMARK    4  A    between atoms: C_8  and  O_15
REMARK    5  A    between atoms: C_10  and  O_14
REMARK    6  A    between atoms: O_15  and  C_16
REMARK    7  A    between atoms: C_18  and  O_29
REMARK    8  A    between atoms: C_19  and  O_28
REMARK    9  A    between atoms: C_21  and  O_27
REMARK   10  A    between atoms: C_23  and  C_25
REMARK   11  A    between atoms: C_25  and  O_26
REMARK   12  A    between atoms: C_32  and  O_37
REMARK   13  A    between atoms: C_33  and  O_36
REMARK                            x       y       z     vdW  Elec       q    Type
REMARK                         _______ _______ _______ _____ _____    ______ ____
ROOT
ATOM      1  C   UNL     1       8.542  -3.868  24.140  0.00  0.00    +0.211 A 
ATOM      2  C   UNL     1       9.340  -2.638  23.834  0.00  0.00    +0.238 A 
ATOM      3  O   UNL     1      10.515  -2.690  23.502  0.00  0.00    -0.283 OA
ATOM      4  C   UNL     1       8.609  -1.353  23.920  0.00  0.00    +0.109 A 
ATOM      5  C   UNL     1       7.222  -1.392  23.801  0.00  0.00    +0.147 A 
ATOM      6  C   UNL     1       6.469  -0.211  23.745  0.00  0.00    +0.093 A 
ATOM      7  C   UNL     1       7.096   1.022  23.919  0.00  0.00    +0.131 A 
ATOM      8  C   UNL     1       8.485   1.067  24.087  0.00  0.00    +0.092 A 
ATOM      9  O   UNL     1       6.522  -2.571  23.773  0.00  0.00    -0.451 OA
ATOM     10  C   UNL     1       9.238  -0.115  24.076  0.00  0.00    +0.135 A 
ATOM     11  C   UNL     1       7.199  -3.736  24.106  0.00  0.00    +0.181 A 
ENDROOT
BRANCH  11  12
ATOM     12  C   UNL     1       6.291  -4.837  24.472  0.00  0.00    +0.025 A 
ATOM     13  C   UNL     1       5.465  -5.395  23.478  0.00  0.00    +0.015 A 
ATOM     14  C   UNL     1       4.586  -6.433  23.779  0.00  0.00    +0.050 A 
ATOM     15  C   UNL     1       4.536  -6.919  25.077  0.00  0.00    +0.158 A 
ATOM     16  C   UNL     1       5.357  -6.386  26.069  0.00  0.00    +0.159 A 
ATOM     17  C   UNL     1       6.235  -5.343  25.779  0.00  0.00    +0.060 A 
BRANCH  15  18
ATOM     18  O   UNL     1       3.668  -7.931  25.377  0.00  0.00    -0.503 OA
ATOM     19  H   UNL     1       4.117  -8.741  25.064  0.00  0.00    +0.292 HD
ENDBRANCH  15  18
BRANCH  16  20
ATOM     20  O   UNL     1       5.258  -6.928  27.321  0.00  0.00    -0.503 OA
ATOM     21  H   UNL     1       4.380  -7.340  27.404  0.00  0.00    +0.292 HD
ENDBRANCH  16  20
ENDBRANCH  11  12
BRANCH   1  23
ATOM     22  C   UNL     1       9.856  -5.249  25.584  0.00  0.00    +0.277 C 
ATOM     23  O   UNL     1       9.125  -5.106  24.371  0.00  0.00    -0.488 OA
ENDBRANCH   1  23
BRANCH  10  24
ATOM     24  O   UNL     1      10.587  -0.044  24.279  0.00  0.00    -0.506 OA
ATOM     25  H   UNL     1      10.940   0.774  23.893  0.00  0.00    +0.292 HD
ENDBRANCH  10  24
BRANCH   7  26
ATOM     26  O   UNL     1       6.454   2.234  23.918  0.00  0.00    -0.461 OA
BRANCH  26  27
ATOM     27  C   UNL     1       7.225   3.380  24.328  0.00  0.00    +0.339 C 
ATOM     28  O   UNL     1       6.641   4.081  25.432  0.00  0.00    -0.331 OA
ATOM     29  C   UNL     1       5.375   4.700  25.144  0.00  0.00    +0.179 C 
ATOM     30  C   UNL     1       5.452   5.661  23.939  0.00  0.00    +0.177 C 
ATOM     31  C   UNL     1       6.050   4.952  22.724  0.00  0.00    +0.180 C 
ATOM     32  C   UNL     1       7.399   4.339  23.122  0.00  0.00    +0.214 C 
BRANCH  30  33
ATOM     33  O   UNL     1       4.149   6.161  23.611  0.00  0.00    -0.386 OA
ATOM     34  H   UNL     1       4.063   7.012  24.093  0.00  0.00    +0.210 HD
ENDBRANCH  30  33
BRANCH  31  35
ATOM     35  O   UNL     1       5.083   3.995  22.252  0.00  0.00    -0.386 OA
ATOM     36  H   UNL     1       4.641   3.593  23.024  0.00  0.00    +0.210 HD
ENDBRANCH  31  35
BRANCH  32  37
ATOM     37  O   UNL     1       7.999   3.725  21.980  0.00  0.00    -0.383 OA
ATOM     38  H   UNL     1       7.995   2.760  22.095  0.00  0.00    +0.210 HD
ENDBRANCH  32  37
BRANCH  29  39
ATOM     39  C   UNL     1       4.917   5.478  26.391  0.00  0.00    +0.190 C 
BRANCH  39  40
ATOM     40  O   UNL     1       5.292   6.852  26.344  0.00  0.00    -0.392 OA
ATOM     41  H   UNL     1       4.903   7.288  27.125  0.00  0.00    +0.210 HD
ENDBRANCH  39  40
ENDBRANCH  29  39
ENDBRANCH  26  27
ENDBRANCH   7  26
TORSDOF 12
ENDMDL
MODEL 5
REMARK VINA RESULT:      -6.7      1.473      2.186
REMARK  Name = 
REMARK  13 active torsions:
REMARK  status: ('A' for Active; 'I' for Inactive)
REMARK    1  A    between atoms: C_1  and  O_2
REMARK    2  A    between atoms: O_2  and  C_3
REMARK    3  A    between atoms: C_4  and  C_30
REMARK    4  A    between atoms: C_8  and  O_15
REMARK    5  A    between atoms: C_10  and  O_14
REMARK    6  A    between atoms: O_15  and  C_16
REMARK    7  A    between atoms: C_18  and  O_29
REMARK    8  A    between atoms: C_19  and  O_28
REMARK    9  A    between atoms: C_21  and  O_27
REMARK   10  A    between atoms: C_23  and  C_25
REMARK   11  A    between atoms: C_25  and  O_26
REMARK   12  A    between atoms: C_32  and  O_37
REMARK   13  A    between atoms: C_33  and  O_36
REMARK                            x       y       z     vdW  Elec       q    Type
REMARK                         _______ _______ _______ _____ _____    ______ ____
ROOT
ATOM      1  C   UNL     1       8.288  -3.967  24.329  0.00  0.00    +0.211 A 
ATOM      2  C   UNL     1       9.095  -2.714  24.171  0.00  0.00    +0.238 A 
ATOM      3  O   UNL     1      10.213  -2.717  23.680  0.00  0.00    -0.283 OA
ATOM      4  C   UNL     1       8.439  -1.461  24.613  0.00  0.00    +0.109 A 
ATOM      5  C   UNL     1       7.048  -1.450  24.676  0.00  0.00    +0.147 A 
ATOM      6  C   UNL     1       6.348  -0.270  24.962  0.00  0.00    +0.093 A 
ATOM      7  C   UNL     1       7.047   0.890  25.294  0.00  0.00    +0.131 A 
ATOM      8  C   UNL     1       8.447   0.875  25.279  0.00  0.00    +0.092 A 
ATOM      9  O   UNL     1       6.298  -2.586  24.506  0.00  0.00    -0.451 OA
ATOM     10  C   UNL     1       9.138  -0.293  24.928  0.00  0.00    +0.135 A 
ATOM     11  C   UNL     1       6.959  -3.806  24.504  0.00  0.00    +0.181 A 
ENDROOT
BRANCH  11  12
ATOM     12  C   UNL     1       6.057  -4.942  24.759  0.00  0.00    +0.025 A 
ATOM     13  C   UNL     1       5.256  -5.424  23.707  0.00  0.00    +0.015 A 
ATOM     14  C   UNL     1       4.384  -6.492  23.904  0.00  0.00    +0.050 A 
ATOM     15  C   UNL     1       4.315  -7.084  25.156  0.00  0.00    +0.158 A 
ATOM     16  C   UNL     1       5.111  -6.627  26.205  0.00  0.00    +0.159 A 
ATOM     17  C   UNL     1       5.983  -5.555  26.018  0.00  0.00    +0.060 A 
BRANCH  15  18
ATOM     18  O   UNL     1       3.453  -8.126  25.354  0.00  0.00    -0.503 OA
ATOM     19  H   UNL     1       2.568  -7.710  25.384  0.00  0.00    +0.292 HD
ENDBRANCH  15  18
BRANCH  16  20
ATOM     20  O   UNL     1       4.995  -7.273  27.405  0.00  0.00    -0.503 OA
ATOM     21  H   UNL     1       4.930  -8.228  27.230  0.00  0.00    +0.292 HD
ENDBRANCH  16  20
ENDBRANCH  11  12
BRANCH   1  23
ATOM     22  C   UNL     1       9.591  -5.696  25.343  0.00  0.00    +0.277 C 
ATOM     23  O   UNL     1       8.840  -5.236  24.225  0.00  0.00    -0.488 OA
ENDBRANCH   1  23
BRANCH  10  24
ATOM     24  O   UNL     1      10.504  -0.289  24.957  0.00  0.00    -0.506 OA
ATOM     25  H   UNL     1      10.858  -0.363  24.056  0.00  0.00    +0.292 HD
ENDBRANCH  10  24
BRANCH   7  26
ATOM     26  O   UNL     1       6.466   2.087  25.624  0.00  0.00    -0.461 OA
BRANCH  26  27
ATOM     27  C   UNL     1       5.620   2.697  24.629  0.00  0.00    +0.339 C 
ATOM     28  O   UNL     1       6.074   2.463  23.291  0.00  0.00    -0.331 OA
ATOM     29  C   UNL     1       7.339   3.070  22.973  0.00  0.00    +0.179 C 
ATOM     30  C   UNL     1       7.341   4.590  23.233  0.00  0.00    +0.177 C 
ATOM     31  C   UNL     1       6.884   4.893  24.660  0.00  0.00    +0.180 C 
ATOM     32  C   UNL     1       5.526   4.220  24.899  0.00  0.00    +0.214 C 
BRANCH  30  33
ATOM     33  O   UNL     1       8.650   5.135  23.021  0.00  0.00    -0.386 OA
ATOM     34  H   UNL     1       9.272   4.384  23.133  0.00  0.00    +0.210 HD
ENDBRANCH  30  33
BRANCH  31  35
ATOM     35  O   UNL     1       7.924   4.460  25.556  0.00  0.00    -0.386 OA
ATOM     36  H   UNL     1       8.769   4.853  25.265  0.00  0.00    +0.210 HD
ENDBRANCH  31  35
BRANCH  32  37
ATOM     37  O   UNL     1       5.058   4.545  26.209  0.00  0.00    -0.383 OA
ATOM     38  H   UNL     1       4.101   4.707  26.177  0.00  0.00    +0.210 HD
ENDBRANCH  32  37
BRANCH  29  39
ATOM     39  C   UNL     1       7.650   2.803  21.490  0.00  0.00    +0.190 C 
BRANCH  39  40
ATOM     40  O   UNL     1       8.887   2.118  21.308  0.00  0.00    -0.392 OA
ATOM     41  H   UNL     1       9.125   1.713  22.163  0.00  0.00    +0.210 HD
ENDBRANCH  39  40
ENDBRANCH  29  39
ENDBRANCH  26  27
ENDBRANCH   7  26
TORSDOF 12
ENDMDL
MODEL 6
REMARK VINA RESULT:      -6.5      2.075      9.105
REMARK  Name = 
REMARK  13 active torsions:
REMARK  status: ('A' for Active; 'I' for Inactive)
REMARK    1  A    between atoms: C_1  and  O_2
REMARK    2  A    between atoms: O_2  and  C_3
REMARK    3  A    between atoms: C_4  and  C_30
REMARK    4  A    between atoms: C_8  and  O_15
REMARK    5  A    between atoms: C_10  and  O_14
REMARK    6  A    between atoms: O_15  and  C_16
REMARK    7  A    between atoms: C_18  and  O_29
REMARK    8  A    between atoms: C_19  and  O_28
REMARK    9  A    between atoms: C_21  and  O_27
REMARK   10  A    between atoms: C_23  and  C_25
REMARK   11  A    between atoms: C_25  and  O_26
REMARK   12  A    between atoms: C_32  and  O_37
REMARK   13  A    between atoms: C_33  and  O_36
REMARK                            x       y       z     vdW  Elec       q    Type
REMARK                         _______ _______ _______ _____ _____    ______ ____
ROOT
ATOM      1  C   UNL     1       9.382  -0.579  23.480  0.00  0.00    +0.211 A 
ATOM      2  C   UNL     1       9.660  -2.015  23.804  0.00  0.00    +0.238 A 
ATOM      3  O   UNL     1      10.607  -2.619  23.322  0.00  0.00    -0.283 OA
ATOM      4  C   UNL     1       8.739  -2.651  24.773  0.00  0.00    +0.109 A 
ATOM      5  C   UNL     1       8.033  -1.815  25.635  0.00  0.00    +0.147 A 
ATOM      6  C   UNL     1       7.240  -2.343  26.663  0.00  0.00    +0.093 A 
ATOM      7  C   UNL     1       7.061  -3.722  26.766  0.00  0.00    +0.131 A 
ATOM      8  C   UNL     1       7.730  -4.568  25.873  0.00  0.00    +0.092 A 
ATOM      9  O   UNL     1       8.043  -0.450  25.502  0.00  0.00    -0.451 OA
ATOM     10  C   UNL     1       8.574  -4.034  24.889  0.00  0.00    +0.135 A 
ATOM     11  C   UNL     1       8.581   0.085  24.341  0.00  0.00    +0.181 A 
ENDROOT
BRANCH  11  12
ATOM     12  C   UNL     1       8.152   1.474  24.102  0.00  0.00    +0.025 A 
ATOM     13  C   UNL     1       8.707   2.501  24.889  0.00  0.00    +0.015 A 
ATOM     14  C   UNL     1       8.326   3.828  24.704  0.00  0.00    +0.050 A 
ATOM     15  C   UNL     1       7.391   4.131  23.725  0.00  0.00    +0.158 A 
ATOM     16  C   UNL     1       6.842   3.127  22.929  0.00  0.00    +0.159 A 
ATOM     17  C   UNL     1       7.213   1.795  23.112  0.00  0.00    +0.060 A 
BRANCH  15  18
ATOM     18  O   UNL     1       7.009   5.431  23.548  0.00  0.00    -0.503 OA
ATOM     19  H   UNL     1       6.482   5.422  22.723  0.00  0.00    +0.292 HD
ENDBRANCH  15  18
BRANCH  16  20
ATOM     20  O   UNL     1       5.937   3.508  21.978  0.00  0.00    -0.503 OA
ATOM     21  H   UNL     1       5.232   2.838  21.944  0.00  0.00    +0.292 HD
ENDBRANCH  16  20
ENDBRANCH  11  12
BRANCH   1  23
ATOM     22  C   UNL     1       9.419  -0.193  21.121  0.00  0.00    +0.277 C 
ATOM     23  O   UNL     1       9.966   0.078  22.406  0.00  0.00    -0.488 OA
ENDBRANCH   1  23
BRANCH  10  24
ATOM     24  O   UNL     1       9.184  -4.882  24.009  0.00  0.00    -0.506 OA
ATOM     25  H   UNL     1       9.217  -5.779  24.377  0.00  0.00    +0.292 HD
ENDBRANCH  10  24
BRANCH   7  26
ATOM     26  O   UNL     1       6.282  -4.343  27.707  0.00  0.00    -0.461 OA
BRANCH  26  27
ATOM     27  C   UNL     1       6.386  -5.777  27.797  0.00  0.00    +0.339 C 
ATOM     28  O   UNL     1       5.854  -6.449  26.649  0.00  0.00    -0.331 OA
ATOM     29  C   UNL     1       4.435  -6.295  26.471  0.00  0.00    +0.179 C 
ATOM     30  C   UNL     1       3.636  -6.740  27.713  0.00  0.00    +0.177 C 
ATOM     31  C   UNL     1       4.152  -6.032  28.966  0.00  0.00    +0.180 C 
ATOM     32  C   UNL     1       5.665  -6.265  29.079  0.00  0.00    +0.214 C 
BRANCH  30  33
ATOM     33  O   UNL     1       2.241  -6.458  27.541  0.00  0.00    -0.386 OA
ATOM     34  H   UNL     1       1.893  -7.175  26.968  0.00  0.00    +0.210 HD
ENDBRANCH  30  33
BRANCH  31  35
ATOM     35  O   UNL     1       3.772  -4.647  28.877  0.00  0.00    -0.386 OA
ATOM     36  H   UNL     1       4.346  -4.209  28.220  0.00  0.00    +0.210 HD
ENDBRANCH  31  35
BRANCH  32  37
ATOM     37  O   UNL     1       6.150  -5.660  30.279  0.00  0.00    -0.383 OA
ATOM     38  H   UNL     1       5.473  -5.730  30.972  0.00  0.00    +0.210 HD
ENDBRANCH  32  37
BRANCH  29  39
ATOM     39  C   UNL     1       4.001  -7.134  25.255  0.00  0.00    +0.190 C 
BRANCH  39  40
ATOM     40  O   UNL     1       3.244  -8.282  25.628  0.00  0.00    -0.392 OA
ATOM     41  H   UNL     1       3.019  -8.189  26.573  0.00  0.00    +0.210 HD
ENDBRANCH  39  40
ENDBRANCH  29  39
ENDBRANCH  26  27
ENDBRANCH   7  26
TORSDOF 12
ENDMDL
MODEL 7
REMARK VINA RESULT:      -6.5      2.446      8.973
REMARK  Name = 
REMARK  13 active torsions:
REMARK  status: ('A' for Active; 'I' for Inactive)
REMARK    1  A    between atoms: C_1  and  O_2
REMARK    2  A    between atoms: O_2  and  C_3
REMARK    3  A    between atoms: C_4  and  C_30
REMARK    4  A    between atoms: C_8  and  O_15
REMARK    5  A    between atoms: C_10  and  O_14
REMARK    6  A    between atoms: O_15  and  C_16
REMARK    7  A    between atoms: C_18  and  O_29
REMARK    8  A    between atoms: C_19  and  O_28
REMARK    9  A    between atoms: C_21  and  O_27
REMARK   10  A    between atoms: C_23  and  C_25
REMARK   11  A    between atoms: C_25  and  O_26
REMARK   12  A    between atoms: C_32  and  O_37
REMARK   13  A    between atoms: C_33  and  O_36
REMARK                            x       y       z     vdW  Elec       q    Type
REMARK                         _______ _______ _______ _____ _____    ______ ____
ROOT
ATOM      1  C   UNL     1       8.595   3.070  23.493  0.00  0.00    +0.211 A 
ATOM      2  C   UNL     1       9.372   2.030  22.744  0.00  0.00    +0.238 A 
ATOM      3  O   UNL     1      10.063   2.307  21.775  0.00  0.00    -0.283 OA
ATOM      4  C   UNL     1       9.284   0.650  23.272  0.00  0.00    +0.109 A 
ATOM      5  C   UNL     1       8.923   0.492  24.607  0.00  0.00    +0.147 A 
ATOM      6  C   UNL     1       8.940  -0.770  25.215  0.00  0.00    +0.093 A 
ATOM      7  C   UNL     1       9.216  -1.906  24.454  0.00  0.00    +0.131 A 
ATOM      8  C   UNL     1       9.534  -1.760  23.098  0.00  0.00    +0.092 A 
ATOM      9  O   UNL     1       8.497   1.543  25.379  0.00  0.00    -0.451 OA
ATOM     10  C   UNL     1       9.579  -0.487  22.514  0.00  0.00    +0.135 A 
ATOM     11  C   UNL     1       8.202   2.739  24.741  0.00  0.00    +0.181 A 
ENDROOT
BRANCH  11  12
ATOM     12  C   UNL     1       7.357   3.627  25.560  0.00  0.00    +0.025 A 
ATOM     13  C   UNL     1       5.975   3.370  25.636  0.00  0.00    +0.015 A 
ATOM     14  C   UNL     1       5.137   4.187  26.392  0.00  0.00    +0.050 A 
ATOM     15  C   UNL     1       5.683   5.260  27.080  0.00  0.00    +0.158 A 
ATOM     16  C   UNL     1       7.051   5.519  27.026  0.00  0.00    +0.159 A 
ATOM     17  C   UNL     1       7.897   4.712  26.267  0.00  0.00    +0.060 A 
BRANCH  15  18
ATOM     18  O   UNL     1       4.861   6.068  27.815  0.00  0.00    -0.503 OA
ATOM     19  H   UNL     1       5.061   6.973  27.501  0.00  0.00    +0.292 HD
ENDBRANCH  15  18
BRANCH  16  20
ATOM     20  O   UNL     1       7.513   6.588  27.742  0.00  0.00    -0.503 OA
ATOM     21  H   UNL     1       8.435   6.756  27.477  0.00  0.00    +0.292 HD
ENDBRANCH  16  20
ENDBRANCH  11  12
BRANCH   1  23
ATOM     22  C   UNL     1       7.189   4.484  22.174  0.00  0.00    +0.277 C 
ATOM     23  O   UNL     1       8.349   4.338  22.986  0.00  0.00    -0.488 OA
ENDBRANCH   1  23
BRANCH  10  24
ATOM     24  O   UNL     1       9.855  -0.380  21.181  0.00  0.00    -0.506 OA
ATOM     25  H   UNL     1       9.740  -1.239  20.745  0.00  0.00    +0.292 HD
ENDBRANCH  10  24
BRANCH   7  26
ATOM     26  O   UNL     1       9.225  -3.188  24.936  0.00  0.00    -0.461 OA
BRANCH  26  27
ATOM     27  C   UNL     1       8.212  -4.082  24.434  0.00  0.00    +0.339 C 
ATOM     28  O   UNL     1       6.886  -3.688  24.805  0.00  0.00    -0.331 OA
ATOM     29  C   UNL     1       6.618  -3.749  26.217  0.00  0.00    +0.179 C 
ATOM     30  C   UNL     1       6.898  -5.146  26.807  0.00  0.00    +0.177 C 
ATOM     31  C   UNL     1       8.314  -5.604  26.457  0.00  0.00    +0.180 C 
ATOM     32  C   UNL     1       8.500  -5.519  24.936  0.00  0.00    +0.214 C 
BRANCH  30  33
ATOM     33  O   UNL     1       6.735  -5.132  28.232  0.00  0.00    -0.386 OA
ATOM     34  H   UNL     1       6.640  -4.187  28.479  0.00  0.00    +0.210 HD
ENDBRANCH  30  33
BRANCH  31  35
ATOM     35  O   UNL     1       9.237  -4.797  27.211  0.00  0.00    -0.386 OA
ATOM     36  H   UNL     1       8.789  -3.968  27.466  0.00  0.00    +0.210 HD
ENDBRANCH  31  35
BRANCH  32  37
ATOM     37  O   UNL     1       9.799  -6.002  24.588  0.00  0.00    -0.383 OA
ATOM     38  H   UNL     1      10.458  -5.314  24.776  0.00  0.00    +0.210 HD
ENDBRANCH  32  37
BRANCH  29  39
ATOM     39  C   UNL     1       5.142  -3.381  26.450  0.00  0.00    +0.190 C 
BRANCH  39  40
ATOM     40  O   UNL     1       4.356  -4.503  26.842  0.00  0.00    -0.392 OA
ATOM     41  H   UNL     1       4.568  -4.697  27.774  0.00  0.00    +0.210 HD
ENDBRANCH  39  40
ENDBRANCH  29  39
ENDBRANCH  26  27
ENDBRANCH   7  26
TORSDOF 12
ENDMDL
MODEL 8
REMARK VINA RESULT:      -6.5      2.410      3.422
REMARK  Name = 
REMARK  13 active torsions:
REMARK  status: ('A' for Active; 'I' for Inactive)
REMARK    1  A    between atoms: C_1  and  O_2
REMARK    2  A    between atoms: O_2  and  C_3
REMARK    3  A    between atoms: C_4  and  C_30
REMARK    4  A    between atoms: C_8  and  O_15
REMARK    5  A    between atoms: C_10  and  O_14
REMARK    6  A    between atoms: O_15  and  C_16
REMARK    7  A    between atoms: C_18  and  O_29
REMARK    8  A    between atoms: C_19  and  O_28
REMARK    9  A    between atoms: C_21  and  O_27
REMARK   10  A    between atoms: C_23  and  C_25
REMARK   11  A    between atoms: C_25  and  O_26
REMARK   12  A    between atoms: C_32  and  O_37
REMARK   13  A    between atoms: C_33  and  O_36
REMARK                            x       y       z     vdW  Elec       q    Type
REMARK                         _______ _______ _______ _____ _____    ______ ____
ROOT
ATOM      1  C   UNL     1       7.525  -2.067  25.663  0.00  0.00    +0.211 A 
ATOM      2  C   UNL     1       7.908  -0.783  26.334  0.00  0.00    +0.238 A 
ATOM      3  O   UNL     1       8.550  -0.758  27.374  0.00  0.00    -0.283 OA
ATOM      4  C   UNL     1       7.493   0.458  25.643  0.00  0.00    +0.109 A 
ATOM      5  C   UNL     1       7.234   0.379  24.277  0.00  0.00    +0.147 A 
ATOM      6  C   UNL     1       6.960   1.531  23.526  0.00  0.00    +0.093 A 
ATOM      7  C   UNL     1       6.836   2.764  24.165  0.00  0.00    +0.131 A 
ATOM      8  C   UNL     1       7.048   2.845  25.546  0.00  0.00    +0.092 A 
ATOM      9  O   UNL     1       7.193  -0.818  23.608  0.00  0.00    -0.451 OA
ATOM     10  C   UNL     1       7.387   1.698  26.279  0.00  0.00    +0.135 A 
ATOM     11  C   UNL     1       7.179  -1.982  24.361  0.00  0.00    +0.181 A 
ENDROOT
BRANCH  11  12
ATOM     12  C   UNL     1       6.697  -3.147  23.599  0.00  0.00    +0.025 A 
ATOM     13  C   UNL     1       7.632  -3.946  22.914  0.00  0.00    +0.015 A 
ATOM     14  C   UNL     1       7.221  -5.053  22.175  0.00  0.00    +0.050 A 
ATOM     15  C   UNL     1       5.872  -5.367  22.125  0.00  0.00    +0.158 A 
ATOM     16  C   UNL     1       4.935  -4.594  22.808  0.00  0.00    +0.159 A 
ATOM     17  C   UNL     1       5.336  -3.481  23.545  0.00  0.00    +0.060 A 
BRANCH  15  18
ATOM     18  O   UNL     1       5.465  -6.447  21.393  0.00  0.00    -0.503 OA
ATOM     19  H   UNL     1       6.275  -6.985  21.277  0.00  0.00    +0.292 HD
ENDBRANCH  15  18
BRANCH  16  20
ATOM     20  O   UNL     1       3.625  -4.977  22.720  0.00  0.00    -0.503 OA
ATOM     21  H   UNL     1       3.279  -5.087  23.623  0.00  0.00    +0.292 HD
ENDBRANCH  16  20
ENDBRANCH  11  12
BRANCH   1  23
ATOM     22  C   UNL     1       6.470  -3.664  27.096  0.00  0.00    +0.277 C 
ATOM     23  O   UNL     1       7.592  -3.299  26.300  0.00  0.00    -0.488 OA
ENDBRANCH   1  23
BRANCH  10  24
ATOM     24  O   UNL     1       7.551   1.801  27.631  0.00  0.00    -0.506 OA
ATOM     25  H   UNL     1       7.850   0.952  27.996  0.00  0.00    +0.292 HD
ENDBRANCH  10  24
BRANCH   7  26
ATOM     26  O   UNL     1       6.537   3.944  23.536  0.00  0.00    -0.461 OA
BRANCH  26  27
ATOM     27  C   UNL     1       7.345   4.299  22.396  0.00  0.00    +0.339 C 
ATOM     28  O   UNL     1       8.739   4.038  22.597  0.00  0.00    -0.331 OA
ATOM     29  C   UNL     1       9.355   4.839  23.620  0.00  0.00    +0.179 C 
ATOM     30  C   UNL     1       9.170   6.351  23.373  0.00  0.00    +0.177 C 
ATOM     31  C   UNL     1       7.692   6.686  23.174  0.00  0.00    +0.180 C 
ATOM     32  C   UNL     1       7.127   5.796  22.059  0.00  0.00    +0.214 C 
BRANCH  30  33
ATOM     33  O   UNL     1       9.691   7.108  24.474  0.00  0.00    -0.386 OA
ATOM     34  H   UNL     1       9.483   8.046  24.274  0.00  0.00    +0.210 HD
ENDBRANCH  30  33
BRANCH  31  35
ATOM     35  O   UNL     1       7.031   6.531  24.444  0.00  0.00    -0.386 OA
ATOM     36  H   UNL     1       6.124   6.885  24.368  0.00  0.00    +0.210 HD
ENDBRANCH  31  35
BRANCH  32  37
ATOM     37  O   UNL     1       5.761   6.140  21.820  0.00  0.00    -0.383 OA
ATOM     38  H   UNL     1       5.405   6.599  22.599  0.00  0.00    +0.210 HD
ENDBRANCH  32  37
BRANCH  29  39
ATOM     39  C   UNL     1      10.858   4.508  23.661  0.00  0.00    +0.190 C 
BRANCH  39  40
ATOM     40  O   UNL     1      11.617   5.307  22.758  0.00  0.00    -0.392 OA
ATOM     41  H   UNL     1      11.316   5.093  21.855  0.00  0.00    +0.210 HD
ENDBRANCH  39  40
ENDBRANCH  29  39
ENDBRANCH  26  27
ENDBRANCH   7  26
TORSDOF 12
ENDMDL
MODEL 9
REMARK VINA RESULT:      -6.4      1.752      8.916
REMARK  Name = 
REMARK  13 active torsions:
REMARK  status: ('A' for Active; 'I' for Inactive)
REMARK    1  A    between atoms: C_1  and  O_2
REMARK    2  A    between atoms: O_2  and  C_3
REMARK    3  A    between atoms: C_4  and  C_30
REMARK    4  A    between atoms: C_8  and  O_15
REMARK    5  A    between atoms: C_10  and  O_14
REMARK    6  A    between atoms: O_15  and  C_16
REMARK    7  A    between atoms: C_18  and  O_29
REMARK    8  A    between atoms: C_19  and  O_28
REMARK    9  A    between atoms: C_21  and  O_27
REMARK   10  A    between atoms: C_23  and  C_25
REMARK   11  A    between atoms: C_25  and  O_26
REMARK   12  A    between atoms: C_32  and  O_37
REMARK   13  A    between atoms: C_33  and  O_36
REMARK                            x       y       z     vdW  Elec       q    Type
REMARK                         _______ _______ _______ _____ _____    ______ ____
ROOT
ATOM      1  C   UNL     1       9.430   1.449  24.324  0.00  0.00    +0.211 A 
ATOM      2  C   UNL     1       9.995   0.061  24.324  0.00  0.00    +0.238 A 
ATOM      3  O   UNL     1      11.197  -0.153  24.365  0.00  0.00    -0.283 OA
ATOM      4  C   UNL     1       9.005  -1.041  24.311  0.00  0.00    +0.109 A 
ATOM      5  C   UNL     1       7.720  -0.758  24.765  0.00  0.00    +0.147 A 
ATOM      6  C   UNL     1       6.764  -1.774  24.903  0.00  0.00    +0.093 A 
ATOM      7  C   UNL     1       7.059  -3.069  24.480  0.00  0.00    +0.131 A 
ATOM      8  C   UNL     1       8.335  -3.352  23.977  0.00  0.00    +0.092 A 
ATOM      9  O   UNL     1       7.312   0.517  25.061  0.00  0.00    -0.451 OA
ATOM     10  C   UNL     1       9.306  -2.344  23.904  0.00  0.00    +0.135 A 
ATOM     11  C   UNL     1       8.131   1.567  24.672  0.00  0.00    +0.181 A 
ENDROOT
BRANCH  11  12
ATOM     12  C   UNL     1       7.421   2.858  24.630  0.00  0.00    +0.025 A 
ATOM     13  C   UNL     1       7.356   3.636  25.802  0.00  0.00    +0.015 A 
ATOM     14  C   UNL     1       6.690   4.859  25.812  0.00  0.00    +0.050 A 
ATOM     15  C   UNL     1       6.091   5.310  24.645  0.00  0.00    +0.158 A 
ATOM     16  C   UNL     1       6.158   4.557  23.474  0.00  0.00    +0.159 A 
ATOM     17  C   UNL     1       6.817   3.329  23.456  0.00  0.00    +0.060 A 
BRANCH  15  18
ATOM     18  O   UNL     1       5.429   6.505  24.655  0.00  0.00    -0.503 OA
ATOM     19  H   UNL     1       6.115   7.164  24.883  0.00  0.00    +0.292 HD
ENDBRANCH  15  18
BRANCH  16  20
ATOM     20  O   UNL     1       5.553   5.077  22.362  0.00  0.00    -0.503 OA
ATOM     21  H   UNL     1       5.972   5.932  22.161  0.00  0.00    +0.292 HD
ENDBRANCH  16  20
ENDBRANCH  11  12
BRANCH   1  23
ATOM     22  C   UNL     1      10.564   2.794  22.705  0.00  0.00    +0.277 C 
ATOM     23  O   UNL     1      10.199   2.574  24.063  0.00  0.00    -0.488 OA
ENDBRANCH   1  23
BRANCH  10  24
ATOM     24  O   UNL     1      10.530  -2.640  23.375  0.00  0.00    -0.506 OA
ATOM     25  H   UNL     1      11.089  -3.067  24.044  0.00  0.00    +0.292 HD
ENDBRANCH  10  24
BRANCH   7  26
ATOM     26  O   UNL     1       6.190  -4.128  24.536  0.00  0.00    -0.461 OA
BRANCH  26  27
ATOM     27  C   UNL     1       4.793  -3.836  24.341  0.00  0.00    +0.339 C 
ATOM     28  O   UNL     1       3.958  -4.390  25.364  0.00  0.00    -0.331 OA
ATOM     29  C   UNL     1       3.927  -5.827  25.398  0.00  0.00    +0.179 C 
ATOM     30  C   UNL     1       3.511  -6.437  24.043  0.00  0.00    +0.177 C 
ATOM     31  C   UNL     1       4.390  -5.893  22.916  0.00  0.00    +0.180 C 
ATOM     32  C   UNL     1       4.348  -4.359  22.951  0.00  0.00    +0.214 C 
BRANCH  30  33
ATOM     33  O   UNL     1       3.611  -7.867  24.083  0.00  0.00    -0.386 OA
ATOM     34  H   UNL     1       4.463  -8.086  23.648  0.00  0.00    +0.210 HD
ENDBRANCH  30  33
BRANCH  31  35
ATOM     35  O   UNL     1       5.707  -6.451  23.076  0.00  0.00    -0.386 OA
ATOM     36  H   UNL     1       6.019  -6.765  22.207  0.00  0.00    +0.210 HD
ENDBRANCH  31  35
BRANCH  32  37
ATOM     37  O   UNL     1       5.116  -3.837  21.866  0.00  0.00    -0.383 OA
ATOM     38  H   UNL     1       5.456  -4.573  21.329  0.00  0.00    +0.210 HD
ENDBRANCH  32  37
BRANCH  29  39
ATOM     39  C   UNL     1       2.932  -6.270  26.485  0.00  0.00    +0.190 C 
BRANCH  39  40
ATOM     40  O   UNL     1       3.219  -7.572  26.989  0.00  0.00    -0.392 OA
ATOM     41  H   UNL     1       2.540  -8.177  26.637  0.00  0.00    +0.210 HD
ENDBRANCH  39  40
ENDBRANCH  29  39
ENDBRANCH  26  27
ENDBRANCH   7  26
TORSDOF 12
ENDMDL
