MODEL 1
REMARK VINA RESULT:      -7.6      0.000      0.000
REMARK  Name = 
REMARK  16 active torsions:
REMARK  status: ('A' for Active; 'I' for Inactive)
REMARK    1  A    between atoms: C_1  and  C_2
REMARK    2  A    between atoms: C_3  and  C_4
REMARK    3  A    between atoms: C_3  and  C_5
REMARK    4  A    between atoms: C_5  and  O_7
REMARK    5  A    between atoms: O_7  and  C_8
REMARK    6  A    between atoms: C_8  and  C_9
REMARK    7  A    between atoms: C_10  and  O_42
REMARK    8  A    between atoms: C_12  and  O_41
REMARK    9  A    between atoms: C_14  and  O_40
REMARK   10  A    between atoms: C_15  and  O_18
REMARK   11  A    between atoms: O_18  and  C_19
REMARK   12  A    between atoms: C_21  and  O_39
REMARK   13  A    between atoms: C_26  and  C_31
REMARK   14  A    between atoms: C_27  and  O_30
REMARK   15  A    between atoms: C_33  and  O_38
REMARK   16  A    between atoms: C_34  and  O_37
REMARK                            x       y       z     vdW  Elec       q    Type
REMARK                         _______ _______ _______ _____ _____    ______ ____
ROOT
ATOM      1  C   UNL     1       6.898  -2.978  22.672  0.00  0.00    +0.131 A 
ATOM      2  C   UNL     1       6.490  -1.632  22.763  0.00  0.00    +0.093 A 
ATOM      3  C   UNL     1       7.428  -0.606  23.015  0.00  0.00    +0.147 A 
ATOM      4  O   UNL     1       6.969   0.700  23.047  0.00  0.00    -0.451 OA
ATOM      5  C   UNL     1       7.891   1.738  23.241  0.00  0.00    +0.181 A 
ATOM      6  C   UNL     1       9.195   1.529  23.493  0.00  0.00    +0.208 A 
ATOM      7  C   UNL     1       9.724   0.149  23.510  0.00  0.00    +0.238 A 
ATOM      8  O   UNL     1      10.907  -0.001  23.798  0.00  0.00    -0.283 OA
ATOM      9  C   UNL     1       8.773  -0.932  23.206  0.00  0.00    +0.109 A 
ATOM     10  C   UNL     1       9.177  -2.266  23.118  0.00  0.00    +0.135 A 
ATOM     11  C   UNL     1       8.245  -3.274  22.869  0.00  0.00    +0.092 A 
ENDROOT
BRANCH   5  12
ATOM     12  C   UNL     1       7.326   3.118  23.258  0.00  0.00    +0.025 A 
ATOM     13  C   UNL     1       6.616   3.590  24.372  0.00  0.00    +0.015 A 
ATOM     14  C   UNL     1       6.192   4.925  24.444  0.00  0.00    +0.050 A 
ATOM     15  C   UNL     1       6.479   5.793  23.404  0.00  0.00    +0.158 A 
ATOM     16  C   UNL     1       7.156   5.346  22.283  0.00  0.00    +0.159 A 
ATOM     17  C   UNL     1       7.552   4.013  22.189  0.00  0.00    +0.060 A 
BRANCH  15  18
ATOM     18  O   UNL     1       6.107   7.107  23.496  0.00  0.00    -0.503 OA
ATOM     19  H   UNL     1       5.414   7.211  22.813  0.00  0.00    +0.292 HD
ENDBRANCH  15  18
BRANCH  16  20
ATOM     20  O   UNL     1       7.447   6.256  21.300  0.00  0.00    -0.503 OA
ATOM     21  H   UNL     1       6.678   6.312  20.710  0.00  0.00    +0.292 HD
ENDBRANCH  16  20
ENDBRANCH   5  12
BRANCH   6  22
ATOM     22  O   UNL     1      10.095   2.533  23.820  0.00  0.00    -0.501 OA
ATOM     23  H   UNL     1       9.602   3.122  24.431  0.00  0.00    +0.292 HD
ENDBRANCH   6  22
BRANCH  10  24
ATOM     24  O   UNL     1      10.488  -2.622  23.253  0.00  0.00    -0.506 OA
ATOM     25  H   UNL     1      10.673  -3.446  22.774  0.00  0.00    +0.292 HD
ENDBRANCH  10  24
BRANCH   1  26
ATOM     26  O   UNL     1       5.936  -3.920  22.366  0.00  0.00    -0.461 OA
BRANCH  26  29
ATOM     27  C   UNL     1       5.495  -5.335  25.759  0.00  0.00    +0.191 C 
ATOM     28  O   UNL     1       6.105  -4.762  24.589  0.00  0.00    -0.330 OA
ATOM     29  C   UNL     1       5.224  -4.544  23.467  0.00  0.00    +0.339 C 
ATOM     30  C   UNL     1       4.635  -5.918  23.026  0.00  0.00    +0.214 C 
ATOM     31  C   UNL     1       3.922  -6.566  24.238  0.00  0.00    +0.180 C 
ATOM     32  C   UNL     1       4.898  -6.709  25.414  0.00  0.00    +0.178 C 
BRANCH  30  33
ATOM     33  O   UNL     1       5.676  -6.791  22.554  0.00  0.00    -0.383 OA
ATOM     34  H   UNL     1       5.664  -7.593  23.108  0.00  0.00    +0.210 HD
ENDBRANCH  30  33
BRANCH  31  35
ATOM     35  O   UNL     1       3.375  -7.852  23.923  0.00  0.00    -0.386 OA
ATOM     36  H   UNL     1       4.040  -8.287  23.352  0.00  0.00    +0.210 HD
ENDBRANCH  31  35
BRANCH  32  37
ATOM     37  O   UNL     1       4.232  -7.337  26.513  0.00  0.00    -0.386 OA
ATOM     38  H   UNL     1       3.427  -7.759  26.158  0.00  0.00    +0.210 HD
ENDBRANCH  32  37
BRANCH  27  39
ATOM     39  C   UNL     1       4.521  -4.353  26.457  0.00  0.00    +0.266 C 
BRANCH  39  40
ATOM     40  O   UNL     1       5.174  -3.191  26.989  0.00  0.00    -0.459 OA
BRANCH  40  41
ATOM     41  C   UNL     1       5.010  -2.044  26.284  0.00  0.00    +0.335 C 
ATOM     42  O   UNL     1       4.041  -1.791  25.585  0.00  0.00    -0.245 OA
BRANCH  41  45
ATOM     43  C   UNL     1       8.694  -1.048  26.861  0.00  0.00    +0.036 C 
ATOM     44  C   UNL     1       7.392  -1.754  26.652  0.00  0.00    -0.020 C 
ATOM     45  C   UNL     1       6.201  -1.156  26.448  0.00  0.00    +0.029 C 
ATOM     46  C   UNL     1       5.997   0.331  26.394  0.00  0.00    +0.051 C 
ENDBRANCH  41  45
ENDBRANCH  40  41
ENDBRANCH  39  40
ENDBRANCH  27  39
ENDBRANCH  26  29
ENDBRANCH   1  26
TORSDOF 14
ENDMDL
MODEL 2
REMARK VINA RESULT:      -7.5      1.911      3.824
REMARK  Name = 
REMARK  16 active torsions:
REMARK  status: ('A' for Active; 'I' for Inactive)
REMARK    1  A    between atoms: C_1  and  C_2
REMARK    2  A    between atoms: C_3  and  C_4
REMARK    3  A    between atoms: C_3  and  C_5
REMARK    4  A    between atoms: C_5  and  O_7
REMARK    5  A    between atoms: O_7  and  C_8
REMARK    6  A    between atoms: C_8  and  C_9
REMARK    7  A    between atoms: C_10  and  O_42
REMARK    8  A    between atoms: C_12  and  O_41
REMARK    9  A    between atoms: C_14  and  O_40
REMARK   10  A    between atoms: C_15  and  O_18
REMARK   11  A    between atoms: O_18  and  C_19
REMARK   12  A    between atoms: C_21  and  O_39
REMARK   13  A    between atoms: C_26  and  C_31
REMARK   14  A    between atoms: C_27  and  O_30
REMARK   15  A    between atoms: C_33  and  O_38
REMARK   16  A    between atoms: C_34  and  O_37
REMARK                            x       y       z     vdW  Elec       q    Type
REMARK                         _______ _______ _______ _____ _____    ______ ____
ROOT
ATOM      1  C   UNL     1       7.152  -3.668  26.826  0.00  0.00    +0.131 A 
ATOM      2  C   UNL     1       7.125  -2.298  26.496  0.00  0.00    +0.093 A 
ATOM      3  C   UNL     1       7.961  -1.781  25.481  0.00  0.00    +0.147 A 
ATOM      4  O   UNL     1       7.851  -0.435  25.173  0.00  0.00    -0.451 OA
ATOM      5  C   UNL     1       8.632   0.088  24.134  0.00  0.00    +0.181 A 
ATOM      6  C   UNL     1       9.558  -0.630  23.474  0.00  0.00    +0.208 A 
ATOM      7  C   UNL     1       9.740  -2.060  23.796  0.00  0.00    +0.238 A 
ATOM      8  O   UNL     1      10.632  -2.665  23.210  0.00  0.00    -0.283 OA
ATOM      9  C   UNL     1       8.849  -2.631  24.818  0.00  0.00    +0.109 A 
ATOM     10  C   UNL     1       8.877  -3.988  25.148  0.00  0.00    +0.135 A 
ATOM     11  C   UNL     1       8.049  -4.492  26.151  0.00  0.00    +0.092 A 
ENDROOT
BRANCH   5  12
ATOM     12  C   UNL     1       8.458   1.543  23.855  0.00  0.00    +0.025 A 
ATOM     13  C   UNL     1       9.345   2.488  24.390  0.00  0.00    +0.015 A 
ATOM     14  C   UNL     1       9.261   3.841  24.031  0.00  0.00    +0.050 A 
ATOM     15  C   UNL     1       8.290   4.252  23.131  0.00  0.00    +0.158 A 
ATOM     16  C   UNL     1       7.388   3.344  22.608  0.00  0.00    +0.159 A 
ATOM     17  C   UNL     1       7.445   2.004  22.986  0.00  0.00    +0.060 A 
BRANCH  15  18
ATOM     18  O   UNL     1       8.239   5.564  22.743  0.00  0.00    -0.503 OA
ATOM     19  H   UNL     1       8.346   6.067  23.576  0.00  0.00    +0.292 HD
ENDBRANCH  15  18
BRANCH  16  20
ATOM     20  O   UNL     1       6.472   3.798  21.694  0.00  0.00    -0.503 OA
ATOM     21  H   UNL     1       6.929   4.407  21.093  0.00  0.00    +0.292 HD
ENDBRANCH  16  20
ENDBRANCH   5  12
BRANCH   6  22
ATOM     22  O   UNL     1      10.432  -0.097  22.537  0.00  0.00    -0.501 OA
ATOM     23  H   UNL     1      10.165   0.843  22.450  0.00  0.00    +0.292 HD
ENDBRANCH   6  22
BRANCH  10  24
ATOM     24  O   UNL     1       9.698  -4.861  24.492  0.00  0.00    -0.506 OA
ATOM     25  H   UNL     1       9.287  -5.168  23.668  0.00  0.00    +0.292 HD
ENDBRANCH  10  24
BRANCH   1  26
ATOM     26  O   UNL     1       6.266  -4.113  27.788  0.00  0.00    -0.461 OA
BRANCH  26  29
ATOM     27  C   UNL     1       3.512  -6.006  26.194  0.00  0.00    +0.191 C 
ATOM     28  O   UNL     1       4.359  -4.920  26.608  0.00  0.00    -0.330 OA
ATOM     29  C   UNL     1       5.455  -5.277  27.476  0.00  0.00    +0.339 C 
ATOM     30  C   UNL     1       4.872  -5.899  28.780  0.00  0.00    +0.214 C 
ATOM     31  C   UNL     1       3.984  -7.109  28.400  0.00  0.00    +0.180 C 
ATOM     32  C   UNL     1       2.880  -6.672  27.427  0.00  0.00    +0.178 C 
BRANCH  30  33
ATOM     33  O   UNL     1       4.089  -4.932  29.501  0.00  0.00    -0.383 OA
ATOM     34  H   UNL     1       4.707  -4.310  29.929  0.00  0.00    +0.210 HD
ENDBRANCH  30  33
BRANCH  31  35
ATOM     35  O   UNL     1       3.382  -7.724  29.546  0.00  0.00    -0.386 OA
ATOM     36  H   UNL     1       3.734  -7.237  30.320  0.00  0.00    +0.210 HD
ENDBRANCH  31  35
BRANCH  32  37
ATOM     37  O   UNL     1       2.050  -7.793  27.111  0.00  0.00    -0.386 OA
ATOM     38  H   UNL     1       2.621  -8.585  27.123  0.00  0.00    +0.210 HD
ENDBRANCH  32  37
BRANCH  27  39
ATOM     39  C   UNL     1       4.230  -6.975  25.222  0.00  0.00    +0.266 C 
BRANCH  39  40
ATOM     40  O   UNL     1       5.212  -6.327  24.400  0.00  0.00    -0.459 OA
BRANCH  40  41
ATOM     41  C   UNL     1       4.744  -5.740  23.270  0.00  0.00    +0.335 C 
ATOM     42  O   UNL     1       3.679  -6.007  22.737  0.00  0.00    -0.245 OA
BRANCH  41  45
ATOM     43  C   UNL     1       6.259  -2.311  22.349  0.00  0.00    +0.036 C 
ATOM     44  C   UNL     1       5.416  -3.447  22.833  0.00  0.00    -0.020 C 
ATOM     45  C   UNL     1       5.738  -4.754  22.747  0.00  0.00    +0.029 C 
ATOM     46  C   UNL     1       7.014  -5.274  22.149  0.00  0.00    +0.051 C 
ENDBRANCH  41  45
ENDBRANCH  40  41
ENDBRANCH  39  40
ENDBRANCH  27  39
ENDBRANCH  26  29
ENDBRANCH   1  26
TORSDOF 14
ENDMDL
MODEL 3
REMARK VINA RESULT:      -7.3      2.489      9.068
REMARK  Name = 
REMARK  16 active torsions:
REMARK  status: ('A' for Active; 'I' for Inactive)
REMARK    1  A    between atoms: C_1  and  C_2
REMARK    2  A    between atoms: C_3  and  C_4
REMARK    3  A    between atoms: C_3  and  C_5
REMARK    4  A    between atoms: C_5  and  O_7
REMARK    5  A    between atoms: O_7  and  C_8
REMARK    6  A    between atoms: C_8  and  C_9
REMARK    7  A    between atoms: C_10  and  O_42
REMARK    8  A    between atoms: C_12  and  O_41
REMARK    9  A    between atoms: C_14  and  O_40
REMARK   10  A    between atoms: C_15  and  O_18
REMARK   11  A    between atoms: O_18  and  C_19
REMARK   12  A    between atoms: C_21  and  O_39
REMARK   13  A    between atoms: C_26  and  C_31
REMARK   14  A    between atoms: C_27  and  O_30
REMARK   15  A    between atoms: C_33  and  O_38
REMARK   16  A    between atoms: C_34  and  O_37
REMARK                            x       y       z     vdW  Elec       q    Type
REMARK                         _______ _______ _______ _____ _____    ______ ____
ROOT
ATOM      1  C   UNL     1       7.096  -0.325  22.939  0.00  0.00    +0.131 A 
ATOM      2  C   UNL     1       6.461  -1.308  23.724  0.00  0.00    +0.093 A 
ATOM      3  C   UNL     1       7.196  -2.380  24.276  0.00  0.00    +0.147 A 
ATOM      4  O   UNL     1       6.521  -3.287  25.076  0.00  0.00    -0.451 OA
ATOM      5  C   UNL     1       7.241  -4.327  25.678  0.00  0.00    +0.181 A 
ATOM      6  C   UNL     1       8.547  -4.552  25.446  0.00  0.00    +0.208 A 
ATOM      7  C   UNL     1       9.301  -3.635  24.565  0.00  0.00    +0.238 A 
ATOM      8  O   UNL     1      10.474  -3.906  24.335  0.00  0.00    -0.283 OA
ATOM      9  C   UNL     1       8.565  -2.485  24.015  0.00  0.00    +0.109 A 
ATOM     10  C   UNL     1       9.193  -1.512  23.235  0.00  0.00    +0.135 A 
ATOM     11  C   UNL     1       8.460  -0.456  22.693  0.00  0.00    +0.092 A 
ENDROOT
BRANCH   5  12
ATOM     12  C   UNL     1       6.450  -5.261  26.530  0.00  0.00    +0.025 A 
ATOM     13  C   UNL     1       6.602  -5.266  27.924  0.00  0.00    +0.015 A 
ATOM     14  C   UNL     1       5.773  -6.052  28.738  0.00  0.00    +0.050 A 
ATOM     15  C   UNL     1       4.788  -6.835  28.158  0.00  0.00    +0.158 A 
ATOM     16  C   UNL     1       4.634  -6.868  26.784  0.00  0.00    +0.159 A 
ATOM     17  C   UNL     1       5.475  -6.114  25.967  0.00  0.00    +0.060 A 
BRANCH  15  18
ATOM     18  O   UNL     1       3.948  -7.566  28.955  0.00  0.00    -0.503 OA
ATOM     19  H   UNL     1       4.427  -8.405  29.106  0.00  0.00    +0.292 HD
ENDBRANCH  15  18
BRANCH  16  20
ATOM     20  O   UNL     1       3.619  -7.631  26.267  0.00  0.00    -0.503 OA
ATOM     21  H   UNL     1       3.609  -7.498  25.305  0.00  0.00    +0.292 HD
ENDBRANCH  16  20
ENDBRANCH   5  12
BRANCH   6  22
ATOM     22  O   UNL     1       9.244  -5.652  25.925  0.00  0.00    -0.501 OA
ATOM     23  H   UNL     1       8.586  -6.156  26.450  0.00  0.00    +0.292 HD
ENDBRANCH   6  22
BRANCH  10  24
ATOM     24  O   UNL     1      10.537  -1.553  22.995  0.00  0.00    -0.506 OA
ATOM     25  H   UNL     1      10.719  -1.487  22.043  0.00  0.00    +0.292 HD
ENDBRANCH  10  24
BRANCH   1  26
ATOM     26  O   UNL     1       6.325   0.726  22.480  0.00  0.00    -0.461 OA
BRANCH  26  29
ATOM     27  C   UNL     1       7.376   3.478  24.722  0.00  0.00    +0.191 C 
ATOM     28  O   UNL     1       6.922   2.194  24.259  0.00  0.00    -0.330 OA
ATOM     29  C   UNL     1       6.735   2.073  22.833  0.00  0.00    +0.339 C 
ATOM     30  C   UNL     1       5.657   3.105  22.386  0.00  0.00    +0.214 C 
ATOM     31  C   UNL     1       6.114   4.521  22.818  0.00  0.00    +0.180 C 
ATOM     32  C   UNL     1       6.356   4.561  24.333  0.00  0.00    +0.178 C 
BRANCH  30  33
ATOM     33  O   UNL     1       4.384   2.805  22.984  0.00  0.00    -0.383 OA
ATOM     34  H   UNL     1       4.043   1.994  22.563  0.00  0.00    +0.210 HD
ENDBRANCH  30  33
BRANCH  31  35
ATOM     35  O   UNL     1       5.160   5.531  22.469  0.00  0.00    -0.386 OA
ATOM     36  H   UNL     1       5.192   5.595  21.492  0.00  0.00    +0.210 HD
ENDBRANCH  31  35
BRANCH  32  37
ATOM     37  O   UNL     1       6.747   5.881  24.720  0.00  0.00    -0.386 OA
ATOM     38  H   UNL     1       7.721   5.919  24.670  0.00  0.00    +0.210 HD
ENDBRANCH  32  37
BRANCH  27  39
ATOM     39  C   UNL     1       8.837   3.773  24.303  0.00  0.00    +0.266 C 
BRANCH  39  40
ATOM     40  O   UNL     1       9.329   5.024  24.808  0.00  0.00    -0.459 OA
BRANCH  40  41
ATOM     41  C   UNL     1       9.826   5.882  23.882  0.00  0.00    +0.335 C 
ATOM     42  O   UNL     1       9.151   6.497  23.071  0.00  0.00    -0.245 OA
BRANCH  41  45
ATOM     43  C   UNL     1      13.502   5.131  22.977  0.00  0.00    +0.036 C 
ATOM     44  C   UNL     1      12.012   5.229  23.050  0.00  0.00    -0.020 C 
ATOM     45  C   UNL     1      11.317   5.933  23.967  0.00  0.00    +0.029 C 
ATOM     46  C   UNL     1      11.943   6.742  25.067  0.00  0.00    +0.051 C 
ENDBRANCH  41  45
ENDBRANCH  40  41
ENDBRANCH  39  40
ENDBRANCH  27  39
ENDBRANCH  26  29
ENDBRANCH   1  26
TORSDOF 14
ENDMDL
MODEL 4
REMARK VINA RESULT:      -7.2      1.842      3.511
REMARK  Name = 
REMARK  16 active torsions:
REMARK  status: ('A' for Active; 'I' for Inactive)
REMARK    1  A    between atoms: C_1  and  C_2
REMARK    2  A    between atoms: C_3  and  C_4
REMARK    3  A    between atoms: C_3  and  C_5
REMARK    4  A    between atoms: C_5  and  O_7
REMARK    5  A    between atoms: O_7  and  C_8
REMARK    6  A    between atoms: C_8  and  C_9
REMARK    7  A    between atoms: C_10  and  O_42
REMARK    8  A    between atoms: C_12  and  O_41
REMARK    9  A    between atoms: C_14  and  O_40
REMARK   10  A    between atoms: C_15  and  O_18
REMARK   11  A    between atoms: O_18  and  C_19
REMARK   12  A    between atoms: C_21  and  O_39
REMARK   13  A    between atoms: C_26  and  C_31
REMARK   14  A    between atoms: C_27  and  O_30
REMARK   15  A    between atoms: C_33  and  O_38
REMARK   16  A    between atoms: C_34  and  O_37
REMARK                            x       y       z     vdW  Elec       q    Type
REMARK                         _______ _______ _______ _____ _____    ______ ____
ROOT
ATOM      1  C   UNL     1       7.199  -2.735  26.316  0.00  0.00    +0.131 A 
ATOM      2  C   UNL     1       7.172  -1.365  25.989  0.00  0.00    +0.093 A 
ATOM      3  C   UNL     1       7.947  -0.859  24.922  0.00  0.00    +0.147 A 
ATOM      4  O   UNL     1       7.839   0.489  24.623  0.00  0.00    -0.451 OA
ATOM      5  C   UNL     1       8.558   1.001  23.535  0.00  0.00    +0.181 A 
ATOM      6  C   UNL     1       9.426   0.270  22.814  0.00  0.00    +0.208 A 
ATOM      7  C   UNL     1       9.606  -1.164  23.122  0.00  0.00    +0.238 A 
ATOM      8  O   UNL     1      10.447  -1.782  22.478  0.00  0.00    -0.283 OA
ATOM      9  C   UNL     1       8.775  -1.722  24.201  0.00  0.00    +0.109 A 
ATOM     10  C   UNL     1       8.803  -3.080  24.526  0.00  0.00    +0.135 A 
ATOM     11  C   UNL     1       8.035  -3.572  25.582  0.00  0.00    +0.092 A 
ENDROOT
BRANCH   5  12
ATOM     12  C   UNL     1       8.390   2.460  23.269  0.00  0.00    +0.025 A 
ATOM     13  C   UNL     1       7.429   2.918  22.356  0.00  0.00    +0.015 A 
ATOM     14  C   UNL     1       7.182   4.289  22.196  0.00  0.00    +0.050 A 
ATOM     15  C   UNL     1       7.895   5.206  22.951  0.00  0.00    +0.158 A 
ATOM     16  C   UNL     1       8.866   4.782  23.840  0.00  0.00    +0.159 A 
ATOM     17  C   UNL     1       9.139   3.422  23.981  0.00  0.00    +0.060 A 
BRANCH  15  18
ATOM     18  O   UNL     1       7.620   6.542  22.829  0.00  0.00    -0.503 OA
ATOM     19  H   UNL     1       6.768   6.657  23.297  0.00  0.00    +0.292 HD
ENDBRANCH  15  18
BRANCH  16  20
ATOM     20  O   UNL     1       9.515   5.729  24.588  0.00  0.00    -0.503 OA
ATOM     21  H   UNL     1       8.917   6.007  25.300  0.00  0.00    +0.292 HD
ENDBRANCH  16  20
ENDBRANCH   5  12
BRANCH   6  22
ATOM     22  O   UNL     1      10.244   0.790  21.821  0.00  0.00    -0.501 OA
ATOM     23  H   UNL     1      10.012   1.742  21.778  0.00  0.00    +0.292 HD
ENDBRANCH   6  22
BRANCH  10  24
ATOM     24  O   UNL     1       9.564  -3.965  23.817  0.00  0.00    -0.506 OA
ATOM     25  H   UNL     1      10.477  -3.979  24.150  0.00  0.00    +0.292 HD
ENDBRANCH  10  24
BRANCH   1  26
ATOM     26  O   UNL     1       6.371  -3.168  27.334  0.00  0.00    -0.461 OA
BRANCH  26  29
ATOM     27  C   UNL     1       3.267  -5.177  27.151  0.00  0.00    +0.191 C 
ATOM     28  O   UNL     1       4.174  -4.088  27.396  0.00  0.00    -0.330 OA
ATOM     29  C   UNL     1       5.561  -4.349  27.093  0.00  0.00    +0.339 C 
ATOM     30  C   UNL     1       6.047  -5.533  27.981  0.00  0.00    +0.214 C 
ATOM     31  C   UNL     1       5.132  -6.756  27.724  0.00  0.00    +0.180 C 
ATOM     32  C   UNL     1       3.668  -6.391  28.004  0.00  0.00    +0.178 C 
BRANCH  30  33
ATOM     33  O   UNL     1       6.002  -5.179  29.374  0.00  0.00    -0.383 OA
ATOM     34  H   UNL     1       6.702  -5.682  29.831  0.00  0.00    +0.210 HD
ENDBRANCH  30  33
BRANCH  31  35
ATOM     35  O   UNL     1       5.496  -7.886  28.527  0.00  0.00    -0.386 OA
ATOM     36  H   UNL     1       6.378  -7.673  28.896  0.00  0.00    +0.210 HD
ENDBRANCH  31  35
BRANCH  32  37
ATOM     37  O   UNL     1       2.841  -7.538  27.792  0.00  0.00    -0.386 OA
ATOM     38  H   UNL     1       3.286  -8.296  28.217  0.00  0.00    +0.210 HD
ENDBRANCH  32  37
BRANCH  27  39
ATOM     39  C   UNL     1       3.090  -5.467  25.640  0.00  0.00    +0.266 C 
BRANCH  39  40
ATOM     40  O   UNL     1       3.816  -4.557  24.800  0.00  0.00    -0.459 OA
BRANCH  40  41
ATOM     41  C   UNL     1       3.754  -4.802  23.467  0.00  0.00    +0.335 C 
ATOM     42  O   UNL     1       2.760  -5.198  22.879  0.00  0.00    -0.245 OA
BRANCH  41  45
ATOM     43  C   UNL     1       7.147  -5.624  21.821  0.00  0.00    +0.036 C 
ATOM     44  C   UNL     1       5.791  -5.648  22.451  0.00  0.00    -0.020 C 
ATOM     45  C   UNL     1       5.085  -4.563  22.832  0.00  0.00    +0.029 C 
ATOM     46  C   UNL     1       5.557  -3.146  22.673  0.00  0.00    +0.051 C 
ENDBRANCH  41  45
ENDBRANCH  40  41
ENDBRANCH  39  40
ENDBRANCH  27  39
ENDBRANCH  26  29
ENDBRANCH   1  26
TORSDOF 14
ENDMDL
MODEL 5
REMARK VINA RESULT:      -7.0      2.574      5.194
REMARK  Name = 
REMARK  16 active torsions:
REMARK  status: ('A' for Active; 'I' for Inactive)
REMARK    1  A    between atoms: C_1  and  C_2
REMARK    2  A    between atoms: C_3  and  C_4
REMARK    3  A    between atoms: C_3  and  C_5
REMARK    4  A    between atoms: C_5  and  O_7
REMARK    5  A    between atoms: O_7  and  C_8
REMARK    6  A    between atoms: C_8  and  C_9
REMARK    7  A    between atoms: C_10  and  O_42
REMARK    8  A    between atoms: C_12  and  O_41
REMARK    9  A    between atoms: C_14  and  O_40
REMARK   10  A    between atoms: C_15  and  O_18
REMARK   11  A    between atoms: O_18  and  C_19
REMARK   12  A    between atoms: C_21  and  O_39
REMARK   13  A    between atoms: C_26  and  C_31
REMARK   14  A    between atoms: C_27  and  O_30
REMARK   15  A    between atoms: C_33  and  O_38
REMARK   16  A    between atoms: C_34  and  O_37
REMARK                            x       y       z     vdW  Elec       q    Type
REMARK                         _______ _______ _______ _____ _____    ______ ____
ROOT
ATOM      1  C   UNL     1       6.245  -0.177  26.358  0.00  0.00    +0.131 A 
ATOM      2  C   UNL     1       7.315   0.690  26.060  0.00  0.00    +0.093 A 
ATOM      3  C   UNL     1       7.077   2.006  25.605  0.00  0.00    +0.147 A 
ATOM      4  O   UNL     1       8.172   2.822  25.375  0.00  0.00    -0.451 OA
ATOM      5  C   UNL     1       7.957   4.147  24.975  0.00  0.00    +0.181 A 
ATOM      6  C   UNL     1       6.738   4.650  24.709  0.00  0.00    +0.208 A 
ATOM      7  C   UNL     1       5.541   3.804  24.900  0.00  0.00    +0.238 A 
ATOM      8  O   UNL     1       4.454   4.282  24.594  0.00  0.00    -0.283 OA
ATOM      9  C   UNL     1       5.763   2.444  25.417  0.00  0.00    +0.109 A 
ATOM     10  C   UNL     1       4.703   1.584  25.710  0.00  0.00    +0.135 A 
ATOM     11  C   UNL     1       4.946   0.286  26.159  0.00  0.00    +0.092 A 
ENDROOT
BRANCH   5  12
ATOM     12  C   UNL     1       9.182   4.969  24.750  0.00  0.00    +0.025 A 
ATOM     13  C   UNL     1       9.482   6.055  25.585  0.00  0.00    +0.015 A 
ATOM     14  C   UNL     1      10.692   6.751  25.456  0.00  0.00    +0.050 A 
ATOM     15  C   UNL     1      11.607   6.361  24.492  0.00  0.00    +0.158 A 
ATOM     16  C   UNL     1      11.325   5.310  23.639  0.00  0.00    +0.159 A 
ATOM     17  C   UNL     1      10.110   4.634  23.740  0.00  0.00    +0.060 A 
BRANCH  15  18
ATOM     18  O   UNL     1      12.809   7.011  24.398  0.00  0.00    -0.503 OA
ATOM     19  H   UNL     1      13.417   6.475  24.946  0.00  0.00    +0.292 HD
ENDBRANCH  15  18
BRANCH  16  20
ATOM     20  O   UNL     1      12.282   4.943  22.729  0.00  0.00    -0.503 OA
ATOM     21  H   UNL     1      13.036   4.578  23.220  0.00  0.00    +0.292 HD
ENDBRANCH  16  20
ENDBRANCH   5  12
BRANCH   6  22
ATOM     22  O   UNL     1       6.516   5.915  24.184  0.00  0.00    -0.501 OA
ATOM     23  H   UNL     1       7.310   6.434  24.435  0.00  0.00    +0.292 HD
ENDBRANCH   6  22
BRANCH  10  24
ATOM     24  O   UNL     1       3.405   1.988  25.583  0.00  0.00    -0.506 OA
ATOM     25  H   UNL     1       3.165   2.605  26.294  0.00  0.00    +0.292 HD
ENDBRANCH  10  24
BRANCH   1  26
ATOM     26  O   UNL     1       6.552  -1.428  26.854  0.00  0.00    -0.461 OA
BRANCH  26  29
ATOM     27  C   UNL     1       7.406  -3.374  23.822  0.00  0.00    +0.191 C 
ATOM     28  O   UNL     1       6.689  -2.545  24.754  0.00  0.00    -0.330 OA
ATOM     29  C   UNL     1       7.344  -2.314  26.019  0.00  0.00    +0.339 C 
ATOM     30  C   UNL     1       7.554  -3.686  26.726  0.00  0.00    +0.214 C 
ATOM     31  C   UNL     1       8.365  -4.611  25.785  0.00  0.00    +0.180 C 
ATOM     32  C   UNL     1       7.645  -4.762  24.438  0.00  0.00    +0.178 C 
BRANCH  30  33
ATOM     33  O   UNL     1       6.290  -4.300  27.035  0.00  0.00    -0.383 OA
ATOM     34  H   UNL     1       5.644  -3.998  26.370  0.00  0.00    +0.210 HD
ENDBRANCH  30  33
BRANCH  31  35
ATOM     35  O   UNL     1       8.578  -5.910  26.351  0.00  0.00    -0.386 OA
ATOM     36  H   UNL     1       9.035  -5.754  27.203  0.00  0.00    +0.210 HD
ENDBRANCH  31  35
BRANCH  32  37
ATOM     37  O   UNL     1       8.391  -5.643  23.594  0.00  0.00    -0.386 OA
ATOM     38  H   UNL     1       7.955  -5.640  22.720  0.00  0.00    +0.210 HD
ENDBRANCH  32  37
BRANCH  27  39
ATOM     39  C   UNL     1       8.673  -2.676  23.267  0.00  0.00    +0.266 C 
BRANCH  39  40
ATOM     40  O   UNL     1       8.419  -1.355  22.768  0.00  0.00    -0.459 OA
BRANCH  40  41
ATOM     41  C   UNL     1       9.275  -0.389  23.184  0.00  0.00    +0.335 C 
ATOM     42  O   UNL     1      10.113  -0.533  24.059  0.00  0.00    -0.245 OA
BRANCH  41  45
ATOM     43  C   UNL     1       7.260   2.516  21.635  0.00  0.00    +0.036 C 
ATOM     44  C   UNL     1       7.731   1.287  22.344  0.00  0.00    -0.020 C 
ATOM     45  C   UNL     1       9.014   0.888  22.452  0.00  0.00    +0.029 C 
ATOM     46  C   UNL     1      10.184   1.632  21.874  0.00  0.00    +0.051 C 
ENDBRANCH  41  45
ENDBRANCH  40  41
ENDBRANCH  39  40
ENDBRANCH  27  39
ENDBRANCH  26  29
ENDBRANCH   1  26
TORSDOF 14
ENDMDL
MODEL 6
REMARK VINA RESULT:      -7.0      2.379      9.197
REMARK  Name = 
REMARK  16 active torsions:
REMARK  status: ('A' for Active; 'I' for Inactive)
REMARK    1  A    between atoms: C_1  and  C_2
REMARK    2  A    between atoms: C_3  and  C_4
REMARK    3  A    between atoms: C_3  and  C_5
REMARK    4  A    between atoms: C_5  and  O_7
REMARK    5  A    between atoms: O_7  and  C_8
REMARK    6  A    between atoms: C_8  and  C_9
REMARK    7  A    between atoms: C_10  and  O_42
REMARK    8  A    between atoms: C_12  and  O_41
REMARK    9  A    between atoms: C_14  and  O_40
REMARK   10  A    between atoms: C_15  and  O_18
REMARK   11  A    between atoms: O_18  and  C_19
REMARK   12  A    between atoms: C_21  and  O_39
REMARK   13  A    between atoms: C_26  and  C_31
REMARK   14  A    between atoms: C_27  and  O_30
REMARK   15  A    between atoms: C_33  and  O_38
REMARK   16  A    between atoms: C_34  and  O_37
REMARK                            x       y       z     vdW  Elec       q    Type
REMARK                         _______ _______ _______ _____ _____    ______ ____
ROOT
ATOM      1  C   UNL     1       7.520   1.073  25.036  0.00  0.00    +0.131 A 
ATOM      2  C   UNL     1       6.700  -0.072  25.097  0.00  0.00    +0.093 A 
ATOM      3  C   UNL     1       7.232  -1.358  24.861  0.00  0.00    +0.147 A 
ATOM      4  O   UNL     1       6.382  -2.445  24.982  0.00  0.00    -0.451 OA
ATOM      5  C   UNL     1       6.902  -3.734  24.805  0.00  0.00    +0.181 A 
ATOM      6  C   UNL     1       8.171  -3.974  24.429  0.00  0.00    +0.208 A 
ATOM      7  C   UNL     1       9.105  -2.843  24.247  0.00  0.00    +0.238 A 
ATOM      8  O   UNL     1      10.237  -3.100  23.850  0.00  0.00    -0.283 OA
ATOM      9  C   UNL     1       8.583  -1.497  24.531  0.00  0.00    +0.109 A 
ATOM     10  C   UNL     1       9.395  -0.362  24.469  0.00  0.00    +0.135 A 
ATOM     11  C   UNL     1       8.862   0.906  24.703  0.00  0.00    +0.092 A 
ENDROOT
BRANCH   5  12
ATOM     12  C   UNL     1       5.931  -4.857  24.955  0.00  0.00    +0.025 A 
ATOM     13  C   UNL     1       5.191  -5.319  23.857  0.00  0.00    +0.015 A 
ATOM     14  C   UNL     1       4.372  -6.452  23.965  0.00  0.00    +0.050 A 
ATOM     15  C   UNL     1       4.292  -7.127  25.171  0.00  0.00    +0.158 A 
ATOM     16  C   UNL     1       4.991  -6.678  26.276  0.00  0.00    +0.159 A 
ATOM     17  C   UNL     1       5.782  -5.533  26.186  0.00  0.00    +0.060 A 
BRANCH  15  18
ATOM     18  O   UNL     1       3.529  -8.261  25.263  0.00  0.00    -0.503 OA
ATOM     19  H   UNL     1       3.392  -8.383  26.224  0.00  0.00    +0.292 HD
ENDBRANCH  15  18
BRANCH  16  20
ATOM     20  O   UNL     1       4.905  -7.405  27.435  0.00  0.00    -0.503 OA
ATOM     21  H   UNL     1       5.709  -7.945  27.508  0.00  0.00    +0.292 HD
ENDBRANCH  16  20
ENDBRANCH   5  12
BRANCH   6  22
ATOM     22  O   UNL     1       8.666  -5.232  24.119  0.00  0.00    -0.501 OA
ATOM     23  H   UNL     1       7.896  -5.724  23.761  0.00  0.00    +0.292 HD
ENDBRANCH   6  22
BRANCH  10  24
ATOM     24  O   UNL     1      10.729  -0.458  24.195  0.00  0.00    -0.506 OA
ATOM     25  H   UNL     1      11.093  -1.290  24.540  0.00  0.00    +0.292 HD
ENDBRANCH  10  24
BRANCH   1  26
ATOM     26  O   UNL     1       6.943   2.291  25.335  0.00  0.00    -0.461 OA
BRANCH  26  29
ATOM     27  C   UNL     1       6.728   5.640  23.771  0.00  0.00    +0.191 C 
ATOM     28  O   UNL     1       6.831   4.601  24.760  0.00  0.00    -0.330 OA
ATOM     29  C   UNL     1       6.782   3.250  24.256  0.00  0.00    +0.339 C 
ATOM     30  C   UNL     1       5.415   3.038  23.539  0.00  0.00    +0.214 C 
ATOM     31  C   UNL     1       5.267   4.103  22.425  0.00  0.00    +0.180 C 
ATOM     32  C   UNL     1       5.393   5.513  23.020  0.00  0.00    +0.178 C 
BRANCH  30  33
ATOM     33  O   UNL     1       4.326   3.157  24.471  0.00  0.00    -0.383 OA
ATOM     34  H   UNL     1       4.627   2.797  25.326  0.00  0.00    +0.210 HD
ENDBRANCH  30  33
BRANCH  31  35
ATOM     35  O   UNL     1       4.018   3.996  21.733  0.00  0.00    -0.386 OA
ATOM     36  H   UNL     1       3.361   4.443  22.306  0.00  0.00    +0.210 HD
ENDBRANCH  31  35
BRANCH  32  37
ATOM     37  O   UNL     1       5.222   6.485  21.985  0.00  0.00    -0.386 OA
ATOM     38  H   UNL     1       5.791   7.246  22.209  0.00  0.00    +0.210 HD
ENDBRANCH  32  37
BRANCH  27  39
ATOM     39  C   UNL     1       7.983   5.718  22.866  0.00  0.00    +0.266 C 
BRANCH  39  40
ATOM     40  O   UNL     1       9.017   6.555  23.405  0.00  0.00    -0.459 OA
BRANCH  40  41
ATOM     41  C   UNL     1       9.792   5.995  24.367  0.00  0.00    +0.335 C 
ATOM     42  O   UNL     1       9.626   6.144  25.567  0.00  0.00    -0.245 OA
BRANCH  41  45
ATOM     43  C   UNL     1      13.230   5.292  22.760  0.00  0.00    +0.036 C 
ATOM     44  C   UNL     1      12.021   5.886  23.408  0.00  0.00    -0.020 C 
ATOM     45  C   UNL     1      10.904   5.211  23.749  0.00  0.00    +0.029 C 
ATOM     46  C   UNL     1      10.705   3.738  23.532  0.00  0.00    +0.051 C 
ENDBRANCH  41  45
ENDBRANCH  40  41
ENDBRANCH  39  40
ENDBRANCH  27  39
ENDBRANCH  26  29
ENDBRANCH   1  26
TORSDOF 14
ENDMDL
MODEL 7
REMARK VINA RESULT:      -6.9      2.219      8.815
REMARK  Name = 
REMARK  16 active torsions:
REMARK  status: ('A' for Active; 'I' for Inactive)
REMARK    1  A    between atoms: C_1  and  C_2
REMARK    2  A    between atoms: C_3  and  C_4
REMARK    3  A    between atoms: C_3  and  C_5
REMARK    4  A    between atoms: C_5  and  O_7
REMARK    5  A    between atoms: O_7  and  C_8
REMARK    6  A    between atoms: C_8  and  C_9
REMARK    7  A    between atoms: C_10  and  O_42
REMARK    8  A    between atoms: C_12  and  O_41
REMARK    9  A    between atoms: C_14  and  O_40
REMARK   10  A    between atoms: C_15  and  O_18
REMARK   11  A    between atoms: O_18  and  C_19
REMARK   12  A    between atoms: C_21  and  O_39
REMARK   13  A    between atoms: C_26  and  C_31
REMARK   14  A    between atoms: C_27  and  O_30
REMARK   15  A    between atoms: C_33  and  O_38
REMARK   16  A    between atoms: C_34  and  O_37
REMARK                            x       y       z     vdW  Elec       q    Type
REMARK                         _______ _______ _______ _____ _____    ______ ____
ROOT
ATOM      1  C   UNL     1       8.460  -2.914  23.697  0.00  0.00    +0.131 A 
ATOM      2  C   UNL     1       7.304  -3.662  23.395  0.00  0.00    +0.093 A 
ATOM      3  C   UNL     1       6.727  -4.524  24.354  0.00  0.00    +0.147 A 
ATOM      4  O   UNL     1       5.565  -5.194  24.009  0.00  0.00    -0.451 OA
ATOM      5  C   UNL     1       4.946  -6.012  24.963  0.00  0.00    +0.181 A 
ATOM      6  C   UNL     1       5.472  -6.260  26.176  0.00  0.00    +0.208 A 
ATOM      7  C   UNL     1       6.733  -5.600  26.574  0.00  0.00    +0.238 A 
ATOM      8  O   UNL     1       7.208  -5.894  27.666  0.00  0.00    -0.283 OA
ATOM      9  C   UNL     1       7.327  -4.662  25.608  0.00  0.00    +0.109 A 
ATOM     10  C   UNL     1       8.474  -3.924  25.906  0.00  0.00    +0.135 A 
ATOM     11  C   UNL     1       9.038  -3.074  24.954  0.00  0.00    +0.092 A 
ENDROOT
BRANCH   5  12
ATOM     12  C   UNL     1       3.696  -6.698  24.523  0.00  0.00    +0.025 A 
ATOM     13  C   UNL     1       2.995  -6.259  23.391  0.00  0.00    +0.015 A 
ATOM     14  C   UNL     1       1.893  -6.975  22.903  0.00  0.00    +0.050 A 
ATOM     15  C   UNL     1       1.490  -8.134  23.545  0.00  0.00    +0.158 A 
ATOM     16  C   UNL     1       2.148  -8.575  24.678  0.00  0.00    +0.159 A 
ATOM     17  C   UNL     1       3.224  -7.851  25.189  0.00  0.00    +0.060 A 
BRANCH  15  18
ATOM     18  O   UNL     1       0.443  -8.859  23.040  0.00  0.00    -0.503 OA
ATOM     19  H   UNL     1      -0.304  -8.227  23.028  0.00  0.00    +0.292 HD
ENDBRANCH  15  18
BRANCH  16  20
ATOM     20  O   UNL     1       1.730  -9.748  25.252  0.00  0.00    -0.503 OA
ATOM     21  H   UNL     1       2.427 -10.047  25.858  0.00  0.00    +0.292 HD
ENDBRANCH  16  20
ENDBRANCH   5  12
BRANCH   6  22
ATOM     22  O   UNL     1       4.945  -7.170  27.081  0.00  0.00    -0.501 OA
ATOM     23  H   UNL     1       4.743  -7.967  26.546  0.00  0.00    +0.292 HD
ENDBRANCH   6  22
BRANCH  10  24
ATOM     24  O   UNL     1       9.065  -3.995  27.135  0.00  0.00    -0.506 OA
ATOM     25  H   UNL     1       8.409  -4.196  27.822  0.00  0.00    +0.292 HD
ENDBRANCH  10  24
BRANCH   1  26
ATOM     26  O   UNL     1       8.934  -2.048  22.732  0.00  0.00    -0.461 OA
BRANCH  26  29
ATOM     27  C   UNL     1       7.806   1.357  23.646  0.00  0.00    +0.191 C 
ATOM     28  O   UNL     1       7.787  -0.024  23.247  0.00  0.00    -0.330 OA
ATOM     29  C   UNL     1       9.079  -0.648  23.088  0.00  0.00    +0.339 C 
ATOM     30  C   UNL     1       9.865   0.117  21.982  0.00  0.00    +0.214 C 
ATOM     31  C   UNL     1       9.960   1.610  22.381  0.00  0.00    +0.180 C 
ATOM     32  C   UNL     1       8.556   2.192  22.596  0.00  0.00    +0.178 C 
BRANCH  30  33
ATOM     33  O   UNL     1       9.204  -0.002  20.710  0.00  0.00    -0.383 OA
ATOM     34  H   UNL     1       9.572   0.680  20.119  0.00  0.00    +0.210 HD
ENDBRANCH  30  33
BRANCH  31  35
ATOM     35  O   UNL     1      10.647   2.394  21.398  0.00  0.00    -0.386 OA
ATOM     36  H   UNL     1      10.128   2.293  20.573  0.00  0.00    +0.210 HD
ENDBRANCH  31  35
BRANCH  32  37
ATOM     37  O   UNL     1       8.660   3.578  22.933  0.00  0.00    -0.386 OA
ATOM     38  H   UNL     1       7.810   3.996  22.695  0.00  0.00    +0.210 HD
ENDBRANCH  32  37
BRANCH  27  39
ATOM     39  C   UNL     1       8.298   1.542  25.104  0.00  0.00    +0.266 C 
BRANCH  39  40
ATOM     40  O   UNL     1       7.266   1.336  26.079  0.00  0.00    -0.459 OA
BRANCH  40  41
ATOM     41  C   UNL     1       7.298   0.148  26.734  0.00  0.00    +0.335 C 
ATOM     42  O   UNL     1       8.308  -0.373  27.179  0.00  0.00    -0.245 OA
BRANCH  41  45
ATOM     43  C   UNL     1       3.840  -0.779  28.176  0.00  0.00    +0.036 C 
ATOM     44  C   UNL     1       5.212  -0.247  27.914  0.00  0.00    -0.020 C 
ATOM     45  C   UNL     1       5.930  -0.452  26.791  0.00  0.00    +0.029 C 
ATOM     46  C   UNL     1       5.451  -1.252  25.613  0.00  0.00    +0.051 C 
ENDBRANCH  41  45
ENDBRANCH  40  41
ENDBRANCH  39  40
ENDBRANCH  27  39
ENDBRANCH  26  29
ENDBRANCH   1  26
TORSDOF 14
ENDMDL
MODEL 8
REMARK VINA RESULT:      -6.7      2.318      8.574
REMARK  Name = 
REMARK  16 active torsions:
REMARK  status: ('A' for Active; 'I' for Inactive)
REMARK    1  A    between atoms: C_1  and  C_2
REMARK    2  A    between atoms: C_3  and  C_4
REMARK    3  A    between atoms: C_3  and  C_5
REMARK    4  A    between atoms: C_5  and  O_7
REMARK    5  A    between atoms: O_7  and  C_8
REMARK    6  A    between atoms: C_8  and  C_9
REMARK    7  A    between atoms: C_10  and  O_42
REMARK    8  A    between atoms: C_12  and  O_41
REMARK    9  A    between atoms: C_14  and  O_40
REMARK   10  A    between atoms: C_15  and  O_18
REMARK   11  A    between atoms: O_18  and  C_19
REMARK   12  A    between atoms: C_21  and  O_39
REMARK   13  A    between atoms: C_26  and  C_31
REMARK   14  A    between atoms: C_27  and  O_30
REMARK   15  A    between atoms: C_33  and  O_38
REMARK   16  A    between atoms: C_34  and  O_37
REMARK                            x       y       z     vdW  Elec       q    Type
REMARK                         _______ _______ _______ _____ _____    ______ ____
ROOT
ATOM      1  C   UNL     1       7.170   0.958  22.578  0.00  0.00    +0.131 A 
ATOM      2  C   UNL     1       6.526  -0.184  23.096  0.00  0.00    +0.093 A 
ATOM      3  C   UNL     1       7.264  -1.335  23.447  0.00  0.00    +0.147 A 
ATOM      4  O   UNL     1       6.576  -2.406  23.994  0.00  0.00    -0.451 OA
ATOM      5  C   UNL     1       7.296  -3.538  24.400  0.00  0.00    +0.181 A 
ATOM      6  C   UNL     1       8.618  -3.682  24.200  0.00  0.00    +0.208 A 
ATOM      7  C   UNL     1       9.388  -2.583  23.582  0.00  0.00    +0.238 A 
ATOM      8  O   UNL     1      10.580  -2.776  23.368  0.00  0.00    -0.283 OA
ATOM      9  C   UNL     1       8.647  -1.356  23.250  0.00  0.00    +0.109 A 
ATOM     10  C   UNL     1       9.285  -0.226  22.734  0.00  0.00    +0.135 A 
ATOM     11  C   UNL     1       8.549   0.909  22.389  0.00  0.00    +0.092 A 
ENDROOT
BRANCH   5  12
ATOM     12  C   UNL     1       6.490  -4.649  24.984  0.00  0.00    +0.025 A 
ATOM     13  C   UNL     1       6.285  -4.737  26.369  0.00  0.00    +0.015 A 
ATOM     14  C   UNL     1       5.427  -5.705  26.911  0.00  0.00    +0.050 A 
ATOM     15  C   UNL     1       4.771  -6.588  26.069  0.00  0.00    +0.158 A 
ATOM     16  C   UNL     1       4.976  -6.539  24.702  0.00  0.00    +0.159 A 
ATOM     17  C   UNL     1       5.852  -5.600  24.159  0.00  0.00    +0.060 A 
BRANCH  15  18
ATOM     18  O   UNL     1       3.897  -7.502  26.595  0.00  0.00    -0.503 OA
ATOM     19  H   UNL     1       3.119  -7.459  26.004  0.00  0.00    +0.292 HD
ENDBRANCH  15  18
BRANCH  16  20
ATOM     20  O   UNL     1       4.273  -7.412  23.913  0.00  0.00    -0.503 OA
ATOM     21  H   UNL     1       4.793  -8.227  23.835  0.00  0.00    +0.292 HD
ENDBRANCH  16  20
ENDBRANCH   5  12
BRANCH   6  22
ATOM     22  O   UNL     1       9.322  -4.846  24.472  0.00  0.00    -0.501 OA
ATOM     23  H   UNL     1       9.417  -4.860  25.448  0.00  0.00    +0.292 HD
ENDBRANCH   6  22
BRANCH  10  24
ATOM     24  O   UNL     1      10.640  -0.189  22.568  0.00  0.00    -0.506 OA
ATOM     25  H   UNL     1      10.932  -0.884  21.956  0.00  0.00    +0.292 HD
ENDBRANCH  10  24
BRANCH   1  26
ATOM     26  O   UNL     1       6.392   2.067  22.312  0.00  0.00    -0.461 OA
BRANCH  26  29
ATOM     27  C   UNL     1       6.853   3.559  25.669  0.00  0.00    +0.191 C 
ATOM     28  O   UNL     1       6.872   2.620  24.579  0.00  0.00    -0.330 OA
ATOM     29  C   UNL     1       6.271   3.077  23.349  0.00  0.00    +0.339 C 
ATOM     30  C   UNL     1       4.772   3.401  23.621  0.00  0.00    +0.214 C 
ATOM     31  C   UNL     1       4.688   4.448  24.759  0.00  0.00    +0.180 C 
ATOM     32  C   UNL     1       5.400   3.925  26.014  0.00  0.00    +0.178 C 
BRANCH  30  33
ATOM     33  O   UNL     1       4.054   2.214  24.001  0.00  0.00    -0.383 OA
ATOM     34  H   UNL     1       3.244   2.494  24.467  0.00  0.00    +0.210 HD
ENDBRANCH  30  33
BRANCH  31  35
ATOM     35  O   UNL     1       3.335   4.781  25.093  0.00  0.00    -0.386 OA
ATOM     36  H   UNL     1       2.791   4.038  24.758  0.00  0.00    +0.210 HD
ENDBRANCH  31  35
BRANCH  32  37
ATOM     37  O   UNL     1       5.286   4.889  27.065  0.00  0.00    -0.386 OA
ATOM     38  H   UNL     1       4.411   5.313  26.972  0.00  0.00    +0.210 HD
ENDBRANCH  32  37
BRANCH  27  39
ATOM     39  C   UNL     1       7.792   4.766  25.423  0.00  0.00    +0.266 C 
BRANCH  39  40
ATOM     40  O   UNL     1       9.077   4.387  24.908  0.00  0.00    -0.459 OA
BRANCH  40  41
ATOM     41  C   UNL     1       9.709   5.317  24.148  0.00  0.00    +0.335 C 
ATOM     42  O   UNL     1       9.266   6.427  23.898  0.00  0.00    -0.245 OA
BRANCH  41  45
ATOM     43  C   UNL     1      13.343   5.316  22.849  0.00  0.00    +0.036 C 
ATOM     44  C   UNL     1      11.991   5.654  23.392  0.00  0.00    -0.020 C 
ATOM     45  C   UNL     1      10.998   4.772  23.625  0.00  0.00    +0.029 C 
ATOM     46  C   UNL     1      11.101   3.295  23.377  0.00  0.00    +0.051 C 
ENDBRANCH  41  45
ENDBRANCH  40  41
ENDBRANCH  39  40
ENDBRANCH  27  39
ENDBRANCH  26  29
ENDBRANCH   1  26
TORSDOF 14
ENDMDL
MODEL 9
REMARK VINA RESULT:      -6.7      2.009      3.380
REMARK  Name = 
REMARK  16 active torsions:
REMARK  status: ('A' for Active; 'I' for Inactive)
REMARK    1  A    between atoms: C_1  and  C_2
REMARK    2  A    between atoms: C_3  and  C_4
REMARK    3  A    between atoms: C_3  and  C_5
REMARK    4  A    between atoms: C_5  and  O_7
REMARK    5  A    between atoms: O_7  and  C_8
REMARK    6  A    between atoms: C_8  and  C_9
REMARK    7  A    between atoms: C_10  and  O_42
REMARK    8  A    between atoms: C_12  and  O_41
REMARK    9  A    between atoms: C_14  and  O_40
REMARK   10  A    between atoms: C_15  and  O_18
REMARK   11  A    between atoms: O_18  and  C_19
REMARK   12  A    between atoms: C_21  and  O_39
REMARK   13  A    between atoms: C_26  and  C_31
REMARK   14  A    between atoms: C_27  and  O_30
REMARK   15  A    between atoms: C_33  and  O_38
REMARK   16  A    between atoms: C_34  and  O_37
REMARK                            x       y       z     vdW  Elec       q    Type
REMARK                         _______ _______ _______ _____ _____    ______ ____
ROOT
ATOM      1  C   UNL     1       8.580  -2.634  25.038  0.00  0.00    +0.131 A 
ATOM      2  C   UNL     1       8.168  -1.350  25.447  0.00  0.00    +0.093 A 
ATOM      3  C   UNL     1       8.357  -0.228  24.610  0.00  0.00    +0.147 A 
ATOM      4  O   UNL     1       7.886   0.998  25.051  0.00  0.00    -0.451 OA
ATOM      5  C   UNL     1       8.015   2.114  24.214  0.00  0.00    +0.181 A 
ATOM      6  C   UNL     1       8.658   2.081  23.034  0.00  0.00    +0.208 A 
ATOM      7  C   UNL     1       9.213   0.804  22.539  0.00  0.00    +0.238 A 
ATOM      8  O   UNL     1       9.840   0.827  21.485  0.00  0.00    -0.283 OA
ATOM      9  C   UNL     1       8.989  -0.387  23.374  0.00  0.00    +0.109 A 
ATOM     10  C   UNL     1       9.400  -1.659  22.971  0.00  0.00    +0.135 A 
ATOM     11  C   UNL     1       9.210  -2.763  23.802  0.00  0.00    +0.092 A 
ENDROOT
BRANCH   5  12
ATOM     12  C   UNL     1       7.482   3.399  24.753  0.00  0.00    +0.025 A 
ATOM     13  C   UNL     1       6.173   3.810  24.466  0.00  0.00    +0.015 A 
ATOM     14  C   UNL     1       5.627   4.952  25.070  0.00  0.00    +0.050 A 
ATOM     15  C   UNL     1       6.390   5.685  25.964  0.00  0.00    +0.158 A 
ATOM     16  C   UNL     1       7.692   5.316  26.245  0.00  0.00    +0.159 A 
ATOM     17  C   UNL     1       8.253   4.200  25.624  0.00  0.00    +0.060 A 
BRANCH  15  18
ATOM     18  O   UNL     1       5.841   6.773  26.590  0.00  0.00    -0.503 OA
ATOM     19  H   UNL     1       5.364   6.395  27.357  0.00  0.00    +0.292 HD
ENDBRANCH  15  18
BRANCH  16  20
ATOM     20  O   UNL     1       8.389   6.055  27.165  0.00  0.00    -0.503 OA
ATOM     21  H   UNL     1       9.106   6.513  26.697  0.00  0.00    +0.292 HD
ENDBRANCH  16  20
ENDBRANCH   5  12
BRANCH   6  22
ATOM     22  O   UNL     1       8.912   3.201  22.255  0.00  0.00    -0.501 OA
ATOM     23  H   UNL     1       8.043   3.646  22.165  0.00  0.00    +0.292 HD
ENDBRANCH   6  22
BRANCH  10  24
ATOM     24  O   UNL     1       9.980  -1.865  21.752  0.00  0.00    -0.506 OA
ATOM     25  H   UNL     1      10.928  -2.051  21.848  0.00  0.00    +0.292 HD
ENDBRANCH  10  24
BRANCH   1  26
ATOM     26  O   UNL     1       8.311  -3.693  25.883  0.00  0.00    -0.461 OA
BRANCH  26  29
ATOM     27  C   UNL     1       4.704  -3.650  26.714  0.00  0.00    +0.191 C 
ATOM     28  O   UNL     1       6.091  -3.279  26.644  0.00  0.00    -0.330 OA
ATOM     29  C   UNL     1       6.949  -4.195  25.930  0.00  0.00    +0.339 C 
ATOM     30  C   UNL     1       6.902  -5.577  26.647  0.00  0.00    +0.214 C 
ATOM     31  C   UNL     1       5.430  -6.054  26.712  0.00  0.00    +0.180 C 
ATOM     32  C   UNL     1       4.564  -5.006  27.425  0.00  0.00    +0.178 C 
BRANCH  30  33
ATOM     33  O   UNL     1       7.438  -5.481  27.978  0.00  0.00    -0.383 OA
ATOM     34  H   UNL     1       6.715  -5.200  28.569  0.00  0.00    +0.210 HD
ENDBRANCH  30  33
BRANCH  31  35
ATOM     35  O   UNL     1       5.294  -7.311  27.385  0.00  0.00    -0.386 OA
ATOM     36  H   UNL     1       4.653  -7.826  26.854  0.00  0.00    +0.210 HD
ENDBRANCH  31  35
BRANCH  32  37
ATOM     37  O   UNL     1       3.215  -5.475  27.505  0.00  0.00    -0.386 OA
ATOM     38  H   UNL     1       3.139  -6.237  26.898  0.00  0.00    +0.210 HD
ENDBRANCH  32  37
BRANCH  27  39
ATOM     39  C   UNL     1       3.997  -3.556  25.339  0.00  0.00    +0.266 C 
BRANCH  39  40
ATOM     40  O   UNL     1       3.629  -4.835  24.803  0.00  0.00    -0.459 OA
BRANCH  40  41
ATOM     41  C   UNL     1       3.621  -4.931  23.450  0.00  0.00    +0.335 C 
ATOM     42  O   UNL     1       2.634  -5.183  22.777  0.00  0.00    -0.245 OA
BRANCH  41  45
ATOM     43  C   UNL     1       7.217  -5.819  22.363  0.00  0.00    +0.036 C 
ATOM     44  C   UNL     1       5.803  -5.813  22.851  0.00  0.00    -0.020 C 
ATOM     45  C   UNL     1       4.999  -4.732  22.906  0.00  0.00    +0.029 C 
ATOM     46  C   UNL     1       5.403  -3.351  22.474  0.00  0.00    +0.051 C 
ENDBRANCH  41  45
ENDBRANCH  40  41
ENDBRANCH  39  40
ENDBRANCH  27  39
ENDBRANCH  26  29
ENDBRANCH   1  26
TORSDOF 14
ENDMDL
