MODEL 1
REMARK VINA RESULT:      -8.0      0.000      0.000
REMARK  Name = 
REMARK  7 active torsions:
REMARK  status: ('A' for Active; 'I' for Inactive)
REMARK    1  A    between atoms: C_1  and  C_2
REMARK    2  A    between atoms: C_2  and  C_4
REMARK    3  A    between atoms: C_12  and  O_13
REMARK    4  A    between atoms: C_16  and  O_27
REMARK    5  A    between atoms: C_17  and  C_19
REMARK    6  A    between atoms: C_21  and  O_26
REMARK    7  A    between atoms: C_22  and  O_25
REMARK                            x       y       z     vdW  Elec       q    Type
REMARK                         _______ _______ _______ _____ _____    ______ ____
ROOT
ATOM      1  C   UNL     1       7.938   2.702  22.095  0.00  0.00    +0.203 C 
ATOM      2  O   UNL     1       6.769   1.873  22.377  0.00  0.00    -0.484 OA
ATOM      3  C   UNL     1       7.261   0.636  22.709  0.00  0.00    +0.132 A 
ATOM      4  C   UNL     1       6.483  -0.455  23.076  0.00  0.00    +0.093 A 
ATOM      5  C   UNL     1       7.134  -1.649  23.419  0.00  0.00    +0.147 A 
ATOM      6  O   UNL     1       6.361  -2.732  23.786  0.00  0.00    -0.451 OA
ATOM      7  C   UNL     1       6.988  -3.931  24.160  0.00  0.00    +0.181 A 
ATOM      8  C   UNL     1       8.328  -4.077  24.186  0.00  0.00    +0.208 A 
ATOM      9  C   UNL     1       9.182  -2.953  23.763  0.00  0.00    +0.238 A 
ATOM     10  O   UNL     1      10.404  -3.083  23.747  0.00  0.00    -0.283 OA
ATOM     11  C   UNL     1       8.532  -1.707  23.377  0.00  0.00    +0.109 A 
ATOM     12  C   UNL     1       9.295  -0.601  22.989  0.00  0.00    +0.138 A 
ATOM     13  C   UNL     1       8.641   0.564  22.660  0.00  0.00    +0.040 A 
ATOM     14  C   UNL     1       9.217   1.858  22.232  0.00  0.00    +0.091 C 
ENDROOT
BRANCH   7  15
ATOM     15  C   UNL     1       6.039  -5.026  24.533  0.00  0.00    +0.025 A 
ATOM     16  C   UNL     1       5.138  -5.547  23.584  0.00  0.00    +0.015 A 
ATOM     17  C   UNL     1       4.258  -6.593  23.906  0.00  0.00    +0.050 A 
ATOM     18  C   UNL     1       4.273  -7.127  25.184  0.00  0.00    +0.158 A 
ATOM     19  C   UNL     1       5.144  -6.628  26.142  0.00  0.00    +0.159 A 
ATOM     20  C   UNL     1       6.029  -5.600  25.822  0.00  0.00    +0.060 A 
BRANCH  18  21
ATOM     21  O   UNL     1       3.430  -8.153  25.499  0.00  0.00    -0.503 OA
ATOM     22  H   UNL     1       3.007  -8.393  24.650  0.00  0.00    +0.292 HD
ENDBRANCH  18  21
BRANCH  19  23
ATOM     23  O   UNL     1       5.103  -7.184  27.393  0.00  0.00    -0.503 OA
ATOM     24  H   UNL     1       4.556  -6.612  27.960  0.00  0.00    +0.292 HD
ENDBRANCH  19  23
ENDBRANCH   7  15
BRANCH   1  26
ATOM     25  C   UNL     1       8.687   3.813  24.306  0.00  0.00    +0.042 C 
ATOM     26  C   UNL     1       7.964   3.931  22.994  0.00  0.00    -0.040 C 
ATOM     27  C   UNL     1       7.399   5.092  22.618  0.00  0.00    +0.011 C 
ENDBRANCH   1  26
BRANCH   8  28
ATOM     28  O   UNL     1       8.998  -5.221  24.579  0.00  0.00    -0.501 OA
ATOM     29  H   UNL     1       9.950  -5.018  24.441  0.00  0.00    +0.292 HD
ENDBRANCH   8  28
BRANCH  12  30
ATOM     30  O   UNL     1      10.659  -0.606  22.924  0.00  0.00    -0.506 OA
ATOM     31  H   UNL     1      10.951  -1.475  22.569  0.00  0.00    +0.292 HD
ENDBRANCH  12  30
TORSDOF 6
ENDMDL
MODEL 2
REMARK VINA RESULT:      -8.0      1.218      1.862
REMARK  Name = 
REMARK  7 active torsions:
REMARK  status: ('A' for Active; 'I' for Inactive)
REMARK    1  A    between atoms: C_1  and  C_2
REMARK    2  A    between atoms: C_2  and  C_4
REMARK    3  A    between atoms: C_12  and  O_13
REMARK    4  A    between atoms: C_16  and  O_27
REMARK    5  A    between atoms: C_17  and  C_19
REMARK    6  A    between atoms: C_21  and  O_26
REMARK    7  A    between atoms: C_22  and  O_25
REMARK                            x       y       z     vdW  Elec       q    Type
REMARK                         _______ _______ _______ _____ _____    ______ ____
ROOT
ATOM      1  C   UNL     1       7.665   1.801  21.967  0.00  0.00    +0.203 C 
ATOM      2  O   UNL     1       6.606   1.137  22.723  0.00  0.00    -0.484 OA
ATOM      3  C   UNL     1       7.151  -0.040  23.170  0.00  0.00    +0.132 A 
ATOM      4  C   UNL     1       6.488  -0.972  23.958  0.00  0.00    +0.093 A 
ATOM      5  C   UNL     1       7.189  -2.117  24.365  0.00  0.00    +0.147 A 
ATOM      6  O   UNL     1       6.530  -3.041  25.150  0.00  0.00    -0.451 OA
ATOM      7  C   UNL     1       7.218  -4.183  25.593  0.00  0.00    +0.181 A 
ATOM      8  C   UNL     1       8.510  -4.420  25.292  0.00  0.00    +0.208 A 
ATOM      9  C   UNL     1       9.231  -3.473  24.424  0.00  0.00    +0.238 A 
ATOM     10  O   UNL     1      10.399  -3.694  24.110  0.00  0.00    -0.283 OA
ATOM     11  C   UNL     1       8.520  -2.287  23.965  0.00  0.00    +0.109 A 
ATOM     12  C   UNL     1       9.163  -1.342  23.157  0.00  0.00    +0.138 A 
ATOM     13  C   UNL     1       8.462  -0.223  22.772  0.00  0.00    +0.040 A 
ATOM     14  C   UNL     1       8.918   0.909  21.936  0.00  0.00    +0.091 C 
ENDROOT
BRANCH   7  15
ATOM     15  C   UNL     1       6.392  -5.105  26.433  0.00  0.00    +0.025 A 
ATOM     16  C   UNL     1       6.541  -5.128  27.834  0.00  0.00    +0.015 A 
ATOM     17  C   UNL     1       5.758  -5.967  28.642  0.00  0.00    +0.050 A 
ATOM     18  C   UNL     1       4.816  -6.793  28.052  0.00  0.00    +0.158 A 
ATOM     19  C   UNL     1       4.651  -6.800  26.675  0.00  0.00    +0.159 A 
ATOM     20  C   UNL     1       5.417  -5.958  25.871  0.00  0.00    +0.060 A 
BRANCH  18  21
ATOM     21  O   UNL     1       4.041  -7.601  28.835  0.00  0.00    -0.503 OA
ATOM     22  H   UNL     1       3.923  -8.416  28.305  0.00  0.00    +0.292 HD
ENDBRANCH  18  21
BRANCH  19  23
ATOM     23  O   UNL     1       3.716  -7.649  26.148  0.00  0.00    -0.503 OA
ATOM     24  H   UNL     1       4.170  -8.256  25.537  0.00  0.00    +0.292 HD
ENDBRANCH  19  23
ENDBRANCH   7  15
BRANCH   1  26
ATOM     25  C   UNL     1       9.161   3.321  23.427  0.00  0.00    +0.042 C 
ATOM     26  C   UNL     1       7.957   3.182  22.539  0.00  0.00    -0.040 C 
ATOM     27  C   UNL     1       7.197   4.248  22.232  0.00  0.00    +0.011 C 
ENDBRANCH   1  26
BRANCH   8  28
ATOM     28  O   UNL     1       9.244  -5.507  25.729  0.00  0.00    -0.501 OA
ATOM     29  H   UNL     1       9.890  -5.136  26.371  0.00  0.00    +0.292 HD
ENDBRANCH   8  28
BRANCH  12  30
ATOM     30  O   UNL     1      10.455  -1.463  22.734  0.00  0.00    -0.506 OA
ATOM     31  H   UNL     1      11.051  -1.249  23.485  0.00  0.00    +0.292 HD
ENDBRANCH  12  30
TORSDOF 6
ENDMDL
MODEL 3
REMARK VINA RESULT:      -8.0      1.089      1.419
REMARK  Name = 
REMARK  7 active torsions:
REMARK  status: ('A' for Active; 'I' for Inactive)
REMARK    1  A    between atoms: C_1  and  C_2
REMARK    2  A    between atoms: C_2  and  C_4
REMARK    3  A    between atoms: C_12  and  O_13
REMARK    4  A    between atoms: C_16  and  O_27
REMARK    5  A    between atoms: C_17  and  C_19
REMARK    6  A    between atoms: C_21  and  O_26
REMARK    7  A    between atoms: C_22  and  O_25
REMARK                            x       y       z     vdW  Elec       q    Type
REMARK                         _______ _______ _______ _____ _____    ______ ____
ROOT
ATOM      1  C   UNL     1       7.274   2.982  22.011  0.00  0.00    +0.203 C 
ATOM      2  O   UNL     1       6.350   2.192  22.821  0.00  0.00    -0.484 OA
ATOM      3  C   UNL     1       6.980   0.993  23.040  0.00  0.00    +0.132 A 
ATOM      4  C   UNL     1       6.459  -0.051  23.793  0.00  0.00    +0.093 A 
ATOM      5  C   UNL     1       7.236  -1.207  23.954  0.00  0.00    +0.147 A 
ATOM      6  O   UNL     1       6.719  -2.243  24.705  0.00  0.00    -0.451 OA
ATOM      7  C   UNL     1       7.488  -3.401  24.904  0.00  0.00    +0.181 A 
ATOM      8  C   UNL     1       8.729  -3.550  24.397  0.00  0.00    +0.208 A 
ATOM      9  C   UNL     1       9.296  -2.478  23.559  0.00  0.00    +0.238 A 
ATOM     10  O   UNL     1      10.411  -2.615  23.060  0.00  0.00    -0.283 OA
ATOM     11  C   UNL     1       8.499  -1.276  23.354  0.00  0.00    +0.109 A 
ATOM     12  C   UNL     1       8.998  -0.218  22.586  0.00  0.00    +0.138 A 
ATOM     13  C   UNL     1       8.225   0.910  22.442  0.00  0.00    +0.040 A 
ATOM     14  C   UNL     1       8.530   2.151  21.696  0.00  0.00    +0.091 C 
ENDROOT
BRANCH   7  15
ATOM     15  C   UNL     1       6.812  -4.448  25.732  0.00  0.00    +0.025 A 
ATOM     16  C   UNL     1       5.974  -5.407  25.130  0.00  0.00    +0.015 A 
ATOM     17  C   UNL     1       5.352  -6.414  25.886  0.00  0.00    +0.050 A 
ATOM     18  C   UNL     1       5.565  -6.469  27.253  0.00  0.00    +0.158 A 
ATOM     19  C   UNL     1       6.378  -5.533  27.875  0.00  0.00    +0.159 A 
ATOM     20  C   UNL     1       7.009  -4.541  27.126  0.00  0.00    +0.060 A 
BRANCH  18  21
ATOM     21  O   UNL     1       4.974  -7.455  27.991  0.00  0.00    -0.503 OA
ATOM     22  H   UNL     1       4.720  -8.135  27.334  0.00  0.00    +0.292 HD
ENDBRANCH  18  21
BRANCH  19  23
ATOM     23  O   UNL     1       6.539  -5.627  29.231  0.00  0.00    -0.503 OA
ATOM     24  H   UNL     1       5.789  -6.134  29.590  0.00  0.00    +0.292 HD
ENDBRANCH  19  23
ENDBRANCH   7  15
BRANCH   1  26
ATOM     25  C   UNL     1       8.505   4.232  23.910  0.00  0.00    +0.042 C 
ATOM     26  C   UNL     1       7.615   4.296  22.701  0.00  0.00    -0.040 C 
ATOM     27  C   UNL     1       7.175   5.477  22.229  0.00  0.00    +0.011 C 
ENDBRANCH   1  26
BRANCH   8  28
ATOM     28  O   UNL     1       9.542  -4.651  24.591  0.00  0.00    -0.501 OA
ATOM     29  H   UNL     1      10.340  -4.477  24.043  0.00  0.00    +0.292 HD
ENDBRANCH   8  28
BRANCH  12  30
ATOM     30  O   UNL     1      10.219  -0.236  21.974  0.00  0.00    -0.506 OA
ATOM     31  H   UNL     1      10.608   0.664  22.028  0.00  0.00    +0.292 HD
ENDBRANCH  12  30
TORSDOF 6
ENDMDL
MODEL 4
REMARK VINA RESULT:      -7.6      2.743      8.601
REMARK  Name = 
REMARK  7 active torsions:
REMARK  status: ('A' for Active; 'I' for Inactive)
REMARK    1  A    between atoms: C_1  and  C_2
REMARK    2  A    between atoms: C_2  and  C_4
REMARK    3  A    between atoms: C_12  and  O_13
REMARK    4  A    between atoms: C_16  and  O_27
REMARK    5  A    between atoms: C_17  and  C_19
REMARK    6  A    between atoms: C_21  and  O_26
REMARK    7  A    between atoms: C_22  and  O_25
REMARK                            x       y       z     vdW  Elec       q    Type
REMARK                         _______ _______ _______ _____ _____    ______ ____
ROOT
ATOM      1  C   UNL     1       1.605  -7.163  25.004  0.00  0.00    +0.203 C 
ATOM      2  O   UNL     1       2.183  -6.038  24.272  0.00  0.00    -0.484 OA
ATOM      3  C   UNL     1       3.394  -5.790  24.870  0.00  0.00    +0.132 A 
ATOM      4  C   UNL     1       4.291  -4.810  24.467  0.00  0.00    +0.093 A 
ATOM      5  C   UNL     1       5.506  -4.696  25.158  0.00  0.00    +0.147 A 
ATOM      6  O   UNL     1       6.398  -3.723  24.755  0.00  0.00    -0.451 OA
ATOM      7  C   UNL     1       7.633  -3.607  25.413  0.00  0.00    +0.181 A 
ATOM      8  C   UNL     1       8.000  -4.415  26.429  0.00  0.00    +0.208 A 
ATOM      9  C   UNL     1       7.055  -5.439  26.908  0.00  0.00    +0.238 A 
ATOM     10  O   UNL     1       7.360  -6.159  27.857  0.00  0.00    -0.283 OA
ATOM     11  C   UNL     1       5.774  -5.563  26.225  0.00  0.00    +0.109 A 
ATOM     12  C   UNL     1       4.848  -6.533  26.624  0.00  0.00    +0.138 A 
ATOM     13  C   UNL     1       3.664  -6.634  25.932  0.00  0.00    +0.040 A 
ATOM     14  C   UNL     1       2.542  -7.572  26.153  0.00  0.00    +0.091 C 
ENDROOT
BRANCH   7  15
ATOM     15  C   UNL     1       8.507  -2.513  24.884  0.00  0.00    +0.025 A 
ATOM     16  C   UNL     1       8.730  -1.345  25.638  0.00  0.00    +0.015 A 
ATOM     17  C   UNL     1       9.566  -0.319  25.171  0.00  0.00    +0.050 A 
ATOM     18  C   UNL     1      10.188  -0.455  23.941  0.00  0.00    +0.158 A 
ATOM     19  C   UNL     1       9.982  -1.590  23.171  0.00  0.00    +0.159 A 
ATOM     20  C   UNL     1       9.163  -2.617  23.638  0.00  0.00    +0.060 A 
BRANCH  18  21
ATOM     21  O   UNL     1      11.015   0.533  23.487  0.00  0.00    -0.503 OA
ATOM     22  H   UNL     1      11.804   0.060  23.153  0.00  0.00    +0.292 HD
ENDBRANCH  18  21
BRANCH  19  23
ATOM     23  O   UNL     1      10.610  -1.662  21.957  0.00  0.00    -0.503 OA
ATOM     24  H   UNL     1      11.435  -1.148  22.012  0.00  0.00    +0.292 HD
ENDBRANCH  19  23
ENDBRANCH   7  15
BRANCH   1  26
ATOM     25  C   UNL     1       1.077  -9.674  24.687  0.00  0.00    +0.042 C 
ATOM     26  C   UNL     1       1.306  -8.325  24.066  0.00  0.00    -0.040 C 
ATOM     27  C   UNL     1       1.207  -8.151  22.735  0.00  0.00    +0.011 C 
ENDBRANCH   1  26
BRANCH   8  28
ATOM     28  O   UNL     1       9.214  -4.368  27.087  0.00  0.00    -0.501 OA
ATOM     29  H   UNL     1       9.726  -5.128  26.731  0.00  0.00    +0.292 HD
ENDBRANCH   8  28
BRANCH  12  30
ATOM     30  O   UNL     1       5.056  -7.397  27.661  0.00  0.00    -0.506 OA
ATOM     31  H   UNL     1       4.832  -6.937  28.500  0.00  0.00    +0.292 HD
ENDBRANCH  12  30
TORSDOF 6
ENDMDL
MODEL 5
REMARK VINA RESULT:      -7.6      2.017      8.337
REMARK  Name = 
REMARK  7 active torsions:
REMARK  status: ('A' for Active; 'I' for Inactive)
REMARK    1  A    between atoms: C_1  and  C_2
REMARK    2  A    between atoms: C_2  and  C_4
REMARK    3  A    between atoms: C_12  and  O_13
REMARK    4  A    between atoms: C_16  and  O_27
REMARK    5  A    between atoms: C_17  and  C_19
REMARK    6  A    between atoms: C_21  and  O_26
REMARK    7  A    between atoms: C_22  and  O_25
REMARK                            x       y       z     vdW  Elec       q    Type
REMARK                         _______ _______ _______ _____ _____    ______ ____
ROOT
ATOM      1  C   UNL     1       6.646  -5.262  27.557  0.00  0.00    +0.203 C 
ATOM      2  O   UNL     1       6.244  -3.858  27.519  0.00  0.00    -0.484 OA
ATOM      3  C   UNL     1       7.073  -3.260  26.603  0.00  0.00    +0.132 A 
ATOM      4  C   UNL     1       7.015  -1.921  26.238  0.00  0.00    +0.093 A 
ATOM      5  C   UNL     1       7.910  -1.459  25.261  0.00  0.00    +0.147 A 
ATOM      6  O   UNL     1       7.850  -0.130  24.897  0.00  0.00    -0.451 OA
ATOM      7  C   UNL     1       8.716   0.351  23.902  0.00  0.00    +0.181 A 
ATOM      8  C   UNL     1       9.610  -0.435  23.269  0.00  0.00    +0.208 A 
ATOM      9  C   UNL     1       9.725  -1.851  23.661  0.00  0.00    +0.238 A 
ATOM     10  O   UNL     1      10.561  -2.572  23.119  0.00  0.00    -0.283 OA
ATOM     11  C   UNL     1       8.826  -2.352  24.692  0.00  0.00    +0.109 A 
ATOM     12  C   UNL     1       8.877  -3.693  25.086  0.00  0.00    +0.138 A 
ATOM     13  C   UNL     1       7.989  -4.130  26.042  0.00  0.00    +0.040 A 
ATOM     14  C   UNL     1       7.840  -5.486  26.613  0.00  0.00    +0.091 C 
ENDROOT
BRANCH   7  15
ATOM     15  C   UNL     1       8.553   1.808  23.602  0.00  0.00    +0.025 A 
ATOM     16  C   UNL     1       9.461   2.752  24.119  0.00  0.00    +0.015 A 
ATOM     17  C   UNL     1       9.342   4.120  23.829  0.00  0.00    +0.050 A 
ATOM     18  C   UNL     1       8.309   4.556  23.015  0.00  0.00    +0.158 A 
ATOM     19  C   UNL     1       7.394   3.651  22.498  0.00  0.00    +0.159 A 
ATOM     20  C   UNL     1       7.518   2.290  22.773  0.00  0.00    +0.060 A 
BRANCH  18  21
ATOM     21  O   UNL     1       8.196   5.884  22.717  0.00  0.00    -0.503 OA
ATOM     22  H   UNL     1       8.846   6.031  22.000  0.00  0.00    +0.292 HD
ENDBRANCH  18  21
BRANCH  19  23
ATOM     23  O   UNL     1       6.385   4.140  21.713  0.00  0.00    -0.503 OA
ATOM     24  H   UNL     1       6.775   4.453  20.878  0.00  0.00    +0.292 HD
ENDBRANCH  19  23
ENDBRANCH   7  15
BRANCH   1  26
ATOM     25  C   UNL     1       4.724  -6.787  28.372  0.00  0.00    +0.042 C 
ATOM     26  C   UNL     1       5.472  -6.173  27.223  0.00  0.00    -0.040 C 
ATOM     27  C   UNL     1       5.088  -6.390  25.952  0.00  0.00    +0.011 C 
ENDBRANCH   1  26
BRANCH   8  28
ATOM     28  O   UNL     1      10.461  -0.024  22.260  0.00  0.00    -0.501 OA
ATOM     29  H   UNL     1      10.019   0.756  21.856  0.00  0.00    +0.292 HD
ENDBRANCH   8  28
BRANCH  12  30
ATOM     30  O   UNL     1       9.755  -4.602  24.569  0.00  0.00    -0.506 OA
ATOM     31  H   UNL     1       9.254  -5.238  24.012  0.00  0.00    +0.292 HD
ENDBRANCH  12  30
TORSDOF 6
ENDMDL
MODEL 6
REMARK VINA RESULT:      -7.3      1.975      3.509
REMARK  Name = 
REMARK  7 active torsions:
REMARK  status: ('A' for Active; 'I' for Inactive)
REMARK    1  A    between atoms: C_1  and  C_2
REMARK    2  A    between atoms: C_2  and  C_4
REMARK    3  A    between atoms: C_12  and  O_13
REMARK    4  A    between atoms: C_16  and  O_27
REMARK    5  A    between atoms: C_17  and  C_19
REMARK    6  A    between atoms: C_21  and  O_26
REMARK    7  A    between atoms: C_22  and  O_25
REMARK                            x       y       z     vdW  Elec       q    Type
REMARK                         _______ _______ _______ _____ _____    ______ ____
ROOT
ATOM      1  C   UNL     1       9.800  -0.901  22.296  0.00  0.00    +0.203 C 
ATOM      2  O   UNL     1       8.595  -1.485  21.713  0.00  0.00    -0.484 OA
ATOM      3  C   UNL     1       8.154  -2.412  22.624  0.00  0.00    +0.132 A 
ATOM      4  C   UNL     1       7.010  -3.187  22.477  0.00  0.00    +0.093 A 
ATOM      5  C   UNL     1       6.669  -4.071  23.511  0.00  0.00    +0.147 A 
ATOM      6  O   UNL     1       5.532  -4.839  23.365  0.00  0.00    -0.451 OA
ATOM      7  C   UNL     1       5.154  -5.712  24.398  0.00  0.00    +0.181 A 
ATOM      8  C   UNL     1       5.852  -5.834  25.544  0.00  0.00    +0.208 A 
ATOM      9  C   UNL     1       7.093  -5.057  25.716  0.00  0.00    +0.238 A 
ATOM     10  O   UNL     1       7.761  -5.185  26.740  0.00  0.00    -0.283 OA
ATOM     11  C   UNL     1       7.485  -4.149  24.646  0.00  0.00    +0.109 A 
ATOM     12  C   UNL     1       8.642  -3.371  24.766  0.00  0.00    +0.138 A 
ATOM     13  C   UNL     1       8.958  -2.505  23.745  0.00  0.00    +0.040 A 
ATOM     14  C   UNL     1      10.109  -1.581  23.641  0.00  0.00    +0.091 C 
ENDROOT
BRANCH   7  15
ATOM     15  C   UNL     1       3.905  -6.488  24.115  0.00  0.00    +0.025 A 
ATOM     16  C   UNL     1       3.034  -6.092  23.082  0.00  0.00    +0.015 A 
ATOM     17  C   UNL     1       1.872  -6.821  22.783  0.00  0.00    +0.050 A 
ATOM     18  C   UNL     1       1.572  -7.955  23.520  0.00  0.00    +0.158 A 
ATOM     19  C   UNL     1       2.406  -8.364  24.549  0.00  0.00    +0.159 A 
ATOM     20  C   UNL     1       3.568  -7.651  24.839  0.00  0.00    +0.060 A 
BRANCH  18  21
ATOM     21  O   UNL     1       0.450  -8.676  23.225  0.00  0.00    -0.503 OA
ATOM     22  H   UNL     1       0.785  -9.481  22.780  0.00  0.00    +0.292 HD
ENDBRANCH  18  21
BRANCH  19  23
ATOM     23  O   UNL     1       2.050  -9.483  25.253  0.00  0.00    -0.503 OA
ATOM     24  H   UNL     1       1.099  -9.424  25.454  0.00  0.00    +0.292 HD
ENDBRANCH  19  23
ENDBRANCH   7  15
BRANCH   1  26
ATOM     25  C   UNL     1       8.711   1.304  21.502  0.00  0.00    +0.042 C 
ATOM     26  C   UNL     1       9.660   0.609  22.436  0.00  0.00    -0.040 C 
ATOM     27  C   UNL     1      10.325   1.295  23.383  0.00  0.00    +0.011 C 
ENDBRANCH   1  26
BRANCH   8  28
ATOM     28  O   UNL     1       5.507  -6.650  26.606  0.00  0.00    -0.501 OA
ATOM     29  H   UNL     1       4.733  -6.212  27.023  0.00  0.00    +0.292 HD
ENDBRANCH   8  28
BRANCH  12  30
ATOM     30  O   UNL     1       9.475  -3.413  25.847  0.00  0.00    -0.506 OA
ATOM     31  H   UNL     1      10.393  -3.555  25.528  0.00  0.00    +0.292 HD
ENDBRANCH  12  30
TORSDOF 6
ENDMDL
MODEL 7
REMARK VINA RESULT:      -7.3      2.733      8.118
REMARK  Name = 
REMARK  7 active torsions:
REMARK  status: ('A' for Active; 'I' for Inactive)
REMARK    1  A    between atoms: C_1  and  C_2
REMARK    2  A    between atoms: C_2  and  C_4
REMARK    3  A    between atoms: C_12  and  O_13
REMARK    4  A    between atoms: C_16  and  O_27
REMARK    5  A    between atoms: C_17  and  C_19
REMARK    6  A    between atoms: C_21  and  O_26
REMARK    7  A    between atoms: C_22  and  O_25
REMARK                            x       y       z     vdW  Elec       q    Type
REMARK                         _______ _______ _______ _____ _____    ______ ____
ROOT
ATOM      1  C   UNL     1       3.866  -4.604  29.089  0.00  0.00    +0.203 C 
ATOM      2  O   UNL     1       4.030  -3.334  28.387  0.00  0.00    -0.484 OA
ATOM      3  C   UNL     1       5.207  -3.443  27.690  0.00  0.00    +0.132 A 
ATOM      4  C   UNL     1       5.733  -2.460  26.861  0.00  0.00    +0.093 A 
ATOM      5  C   UNL     1       6.933  -2.731  26.189  0.00  0.00    +0.147 A 
ATOM      6  O   UNL     1       7.454  -1.755  25.363  0.00  0.00    -0.451 OA
ATOM      7  C   UNL     1       8.640  -2.011  24.658  0.00  0.00    +0.181 A 
ATOM      8  C   UNL     1       9.302  -3.182  24.741  0.00  0.00    +0.208 A 
ATOM      9  C   UNL     1       8.794  -4.231  25.643  0.00  0.00    +0.238 A 
ATOM     10  O   UNL     1       9.407  -5.291  25.758  0.00  0.00    -0.283 OA
ATOM     11  C   UNL     1       7.562  -3.968  26.374  0.00  0.00    +0.109 A 
ATOM     12  C   UNL     1       7.023  -4.938  27.227  0.00  0.00    +0.138 A 
ATOM     13  C   UNL     1       5.842  -4.658  27.875  0.00  0.00    +0.040 A 
ATOM     14  C   UNL     1       5.076  -5.511  28.809  0.00  0.00    +0.091 C 
ENDROOT
BRANCH   7  15
ATOM     15  C   UNL     1       9.099  -0.872  23.801  0.00  0.00    +0.025 A 
ATOM     16  C   UNL     1       8.725  -0.799  22.445  0.00  0.00    +0.015 A 
ATOM     17  C   UNL     1       9.123   0.274  21.632  0.00  0.00    +0.050 A 
ATOM     18  C   UNL     1       9.902   1.285  22.171  0.00  0.00    +0.158 A 
ATOM     19  C   UNL     1      10.292   1.236  23.501  0.00  0.00    +0.159 A 
ATOM     20  C   UNL     1       9.887   0.180  24.315  0.00  0.00    +0.060 A 
BRANCH  18  21
ATOM     21  O   UNL     1      10.280   2.338  21.389  0.00  0.00    -0.503 OA
ATOM     22  H   UNL     1       9.486   2.546  20.856  0.00  0.00    +0.292 HD
ENDBRANCH  18  21
BRANCH  19  23
ATOM     23  O   UNL     1      11.075   2.254  23.975  0.00  0.00    -0.503 OA
ATOM     24  H   UNL     1      10.810   3.075  23.522  0.00  0.00    +0.292 HD
ENDBRANCH  19  23
ENDBRANCH   7  15
BRANCH   1  26
ATOM     25  C   UNL     1       1.282  -4.550  29.067  0.00  0.00    +0.042 C 
ATOM     26  C   UNL     1       2.550  -5.270  28.707  0.00  0.00    -0.040 C 
ATOM     27  C   UNL     1       2.518  -6.437  28.038  0.00  0.00    +0.011 C 
ENDBRANCH   1  26
BRANCH   8  28
ATOM     28  O   UNL     1      10.452  -3.500  24.043  0.00  0.00    -0.501 OA
ATOM     29  H   UNL     1      11.053  -3.900  24.711  0.00  0.00    +0.292 HD
ENDBRANCH   8  28
BRANCH  12  30
ATOM     30  O   UNL     1       7.598  -6.156  27.448  0.00  0.00    -0.506 OA
ATOM     31  H   UNL     1       8.465  -6.016  27.891  0.00  0.00    +0.292 HD
ENDBRANCH  12  30
TORSDOF 6
ENDMDL
MODEL 8
REMARK VINA RESULT:      -7.2      2.074      3.010
REMARK  Name = 
REMARK  7 active torsions:
REMARK  status: ('A' for Active; 'I' for Inactive)
REMARK    1  A    between atoms: C_1  and  C_2
REMARK    2  A    between atoms: C_2  and  C_4
REMARK    3  A    between atoms: C_12  and  O_13
REMARK    4  A    between atoms: C_16  and  O_27
REMARK    5  A    between atoms: C_17  and  C_19
REMARK    6  A    between atoms: C_21  and  O_26
REMARK    7  A    between atoms: C_22  and  O_25
REMARK                            x       y       z     vdW  Elec       q    Type
REMARK                         _______ _______ _______ _____ _____    ______ ____
ROOT
ATOM      1  C   UNL     1       8.151   5.130  24.874  0.00  0.00    +0.203 C 
ATOM      2  O   UNL     1       7.261   4.102  25.408  0.00  0.00    -0.484 OA
ATOM      3  C   UNL     1       7.817   2.902  25.040  0.00  0.00    +0.132 A 
ATOM      4  C   UNL     1       7.301   1.655  25.368  0.00  0.00    +0.093 A 
ATOM      5  C   UNL     1       8.000   0.515  24.946  0.00  0.00    +0.147 A 
ATOM      6  O   UNL     1       7.488  -0.724  25.275  0.00  0.00    -0.451 OA
ATOM      7  C   UNL     1       8.183  -1.881  24.888  0.00  0.00    +0.181 A 
ATOM      8  C   UNL     1       9.347  -1.841  24.209  0.00  0.00    +0.208 A 
ATOM      9  C   UNL     1       9.901  -0.536  23.809  0.00  0.00    +0.238 A 
ATOM     10  O   UNL     1      10.943  -0.485  23.158  0.00  0.00    -0.283 OA
ATOM     11  C   UNL     1       9.182   0.666  24.212  0.00  0.00    +0.109 A 
ATOM     12  C   UNL     1       9.676   1.932  23.879  0.00  0.00    +0.138 A 
ATOM     13  C   UNL     1       8.980   3.040  24.305  0.00  0.00    +0.040 A 
ATOM     14  C   UNL     1       9.297   4.468  24.091  0.00  0.00    +0.091 C 
ENDROOT
BRANCH   7  15
ATOM     15  C   UNL     1       7.521  -3.158  25.302  0.00  0.00    +0.025 A 
ATOM     16  C   UNL     1       6.334  -3.586  24.677  0.00  0.00    +0.015 A 
ATOM     17  C   UNL     1       5.713  -4.793  25.033  0.00  0.00    +0.050 A 
ATOM     18  C   UNL     1       6.276  -5.584  26.020  0.00  0.00    +0.158 A 
ATOM     19  C   UNL     1       7.441  -5.185  26.659  0.00  0.00    +0.159 A 
ATOM     20  C   UNL     1       8.068  -3.994  26.299  0.00  0.00    +0.060 A 
BRANCH  18  21
ATOM     21  O   UNL     1       5.684  -6.767  26.360  0.00  0.00    -0.503 OA
ATOM     22  H   UNL     1       5.377  -7.141  25.509  0.00  0.00    +0.292 HD
ENDBRANCH  18  21
BRANCH  19  23
ATOM     23  O   UNL     1       7.943  -5.999  27.639  0.00  0.00    -0.503 OA
ATOM     24  H   UNL     1       8.778  -6.381  27.316  0.00  0.00    +0.292 HD
ENDBRANCH  19  23
ENDBRANCH   7  15
BRANCH   1  26
ATOM     25  C   UNL     1       7.810   6.175  27.214  0.00  0.00    +0.042 C 
ATOM     26  C   UNL     1       8.664   6.036  25.986  0.00  0.00    -0.040 C 
ATOM     27  C   UNL     1       9.854   6.658  25.897  0.00  0.00    +0.011 C 
ENDBRANCH   1  26
BRANCH   8  28
ATOM     28  O   UNL     1      10.089  -2.946  23.834  0.00  0.00    -0.501 OA
ATOM     29  H   UNL     1      10.846  -2.968  24.461  0.00  0.00    +0.292 HD
ENDBRANCH   8  28
BRANCH  12  30
ATOM     30  O   UNL     1      10.818   2.134  23.159  0.00  0.00    -0.506 OA
ATOM     31  H   UNL     1      11.540   1.606  23.565  0.00  0.00    +0.292 HD
ENDBRANCH  12  30
TORSDOF 6
ENDMDL
MODEL 9
REMARK VINA RESULT:      -7.1      1.960      8.346
REMARK  Name = 
REMARK  7 active torsions:
REMARK  status: ('A' for Active; 'I' for Inactive)
REMARK    1  A    between atoms: C_1  and  C_2
REMARK    2  A    between atoms: C_2  and  C_4
REMARK    3  A    between atoms: C_12  and  O_13
REMARK    4  A    between atoms: C_16  and  O_27
REMARK    5  A    between atoms: C_17  and  C_19
REMARK    6  A    between atoms: C_21  and  O_26
REMARK    7  A    between atoms: C_22  and  O_25
REMARK                            x       y       z     vdW  Elec       q    Type
REMARK                         _______ _______ _______ _____ _____    ______ ____
ROOT
ATOM      1  C   UNL     1       1.788  -6.701  24.425  0.00  0.00    +0.203 C 
ATOM      2  O   UNL     1       2.106  -5.499  23.657  0.00  0.00    -0.484 OA
ATOM      3  C   UNL     1       3.383  -5.153  24.022  0.00  0.00    +0.132 A 
ATOM      4  C   UNL     1       4.090  -4.074  23.507  0.00  0.00    +0.093 A 
ATOM      5  C   UNL     1       5.402  -3.864  23.955  0.00  0.00    +0.147 A 
ATOM      6  O   UNL     1       6.105  -2.794  23.441  0.00  0.00    -0.451 OA
ATOM      7  C   UNL     1       7.429  -2.578  23.853  0.00  0.00    +0.181 A 
ATOM      8  C   UNL     1       8.061  -3.380  24.733  0.00  0.00    +0.208 A 
ATOM      9  C   UNL     1       7.327  -4.509  25.330  0.00  0.00    +0.238 A 
ATOM     10  O   UNL     1       7.877  -5.228  26.162  0.00  0.00    -0.283 OA
ATOM     11  C   UNL     1       5.953  -4.736  24.902  0.00  0.00    +0.109 A 
ATOM     12  C   UNL     1       5.217  -5.807  25.420  0.00  0.00    +0.138 A 
ATOM     13  C   UNL     1       3.933  -6.001  24.965  0.00  0.00    +0.040 A 
ATOM     14  C   UNL     1       2.967  -7.054  25.348  0.00  0.00    +0.091 C 
ENDROOT
BRANCH   7  15
ATOM     15  C   UNL     1       8.078  -1.384  23.224  0.00  0.00    +0.025 A 
ATOM     16  C   UNL     1       8.838  -1.519  22.046  0.00  0.00    +0.015 A 
ATOM     17  C   UNL     1       9.432  -0.409  21.426  0.00  0.00    +0.050 A 
ATOM     18  C   UNL     1       9.270   0.849  21.982  0.00  0.00    +0.158 A 
ATOM     19  C   UNL     1       8.534   1.012  23.146  0.00  0.00    +0.159 A 
ATOM     20  C   UNL     1       7.931  -0.086  23.757  0.00  0.00    +0.060 A 
BRANCH  18  21
ATOM     21  O   UNL     1       9.834   1.935  21.375  0.00  0.00    -0.503 OA
ATOM     22  H   UNL     1      10.789   1.725  21.333  0.00  0.00    +0.292 HD
ENDBRANCH  18  21
BRANCH  19  23
ATOM     23  O   UNL     1       8.422   2.277  23.659  0.00  0.00    -0.503 OA
ATOM     24  H   UNL     1       8.294   2.203  24.621  0.00  0.00    +0.292 HD
ENDBRANCH  19  23
ENDBRANCH   7  15
BRANCH   1  26
ATOM     25  C   UNL     1       1.223  -9.206  24.128  0.00  0.00    +0.042 C 
ATOM     26  C   UNL     1       1.417  -7.854  23.502  0.00  0.00    -0.040 C 
ATOM     27  C   UNL     1       1.227  -7.668  22.183  0.00  0.00    +0.011 C 
ENDBRANCH   1  26
BRANCH   8  28
ATOM     28  O   UNL     1       9.372  -3.235  25.146  0.00  0.00    -0.501 OA
ATOM     29  H   UNL     1       9.459  -3.822  25.930  0.00  0.00    +0.292 HD
ENDBRANCH   8  28
BRANCH  12  30
ATOM     30  O   UNL     1       5.703  -6.682  26.349  0.00  0.00    -0.506 OA
ATOM     31  H   UNL     1       5.320  -6.452  27.224  0.00  0.00    +0.292 HD
ENDBRANCH  12  30
TORSDOF 6
ENDMDL
