MODEL 1
REMARK VINA RESULT:      -7.3      0.000      0.000
REMARK  Name = 
REMARK  7 active torsions:
REMARK  status: ('A' for Active; 'I' for Inactive)
REMARK    1  A    between atoms: C_1  and  O_2
REMARK    2  A    between atoms: O_2  and  C_3
REMARK    3  A    between atoms: C_4  and  O_23
REMARK    4  A    between atoms: C_6  and  C_9
REMARK    5  A    between atoms: C_10  and  O_22
REMARK    6  A    between atoms: C_14  and  O_21
REMARK    7  A    between atoms: C_16  and  O_20
REMARK                            x       y       z     vdW  Elec       q    Type
REMARK                         _______ _______ _______ _____ _____    ______ ____
ROOT
ATOM      1  C   UNL     1       7.758  -3.618  25.145  0.00  0.00    +0.181 A 
ATOM      2  O   UNL     1       6.722  -4.002  24.299  0.00  0.00    -0.451 OA
ATOM      3  C   UNL     1       5.889  -5.025  24.676  0.00  0.00    +0.147 A 
ATOM      4  C   UNL     1       6.003  -5.679  25.897  0.00  0.00    +0.109 A 
ATOM      5  C   UNL     1       5.122  -6.716  26.221  0.00  0.00    +0.135 A 
ATOM      6  C   UNL     1       4.125  -7.099  25.329  0.00  0.00    +0.091 A 
ATOM      7  C   UNL     1       4.017  -6.434  24.113  0.00  0.00    +0.124 A 
ATOM      8  C   UNL     1       7.066  -5.259  26.815  0.00  0.00    +0.238 A 
ATOM      9  O   UNL     1       7.180  -5.814  27.902  0.00  0.00    -0.283 OA
ATOM     10  C   UNL     1       4.891  -5.400  23.779  0.00  0.00    +0.092 A 
ATOM     11  C   UNL     1       7.989  -4.193  26.346  0.00  0.00    +0.208 A 
ENDROOT
BRANCH   1  15
ATOM     12  C   UNL     1       9.913  -0.285  23.427  0.00  0.00    +0.161 A 
ATOM     13  C   UNL     1       9.395  -0.192  24.714  0.00  0.00    +0.050 A 
ATOM     14  C   UNL     1       8.691  -1.268  25.269  0.00  0.00    +0.015 A 
ATOM     15  C   UNL     1       8.549  -2.487  24.586  0.00  0.00    +0.025 A 
ATOM     16  C   UNL     1       9.112  -2.583  23.302  0.00  0.00    +0.060 A 
ATOM     17  C   UNL     1       9.771  -1.490  22.737  0.00  0.00    +0.159 A 
BRANCH  12  19
ATOM     18  C   UNL     1       9.707   1.730  22.215  0.00  0.00    +0.277 C 
ATOM     19  O   UNL     1      10.558   0.722  22.758  0.00  0.00    -0.491 OA
ENDBRANCH  12  19
BRANCH  17  20
ATOM     20  O   UNL     1      10.241  -1.614  21.458  0.00  0.00    -0.503 OA
ATOM     21  H   UNL     1      10.583  -2.528  21.394  0.00  0.00    +0.292 HD
ENDBRANCH  17  20
ENDBRANCH   1  15
BRANCH   5  22
ATOM     22  O   UNL     1       5.187  -7.406  27.403  0.00  0.00    -0.506 OA
ATOM     23  H   UNL     1       5.668  -8.251  27.237  0.00  0.00    +0.292 HD
ENDBRANCH   5  22
BRANCH   7  24
ATOM     24  O   UNL     1       3.055  -6.771  23.206  0.00  0.00    -0.507 OA
ATOM     25  H   UNL     1       3.257  -7.654  22.847  0.00  0.00    +0.292 HD
ENDBRANCH   7  24
BRANCH  11  26
ATOM     26  O   UNL     1       9.037  -3.881  27.192  0.00  0.00    -0.501 OA
ATOM     27  H   UNL     1       9.798  -3.618  26.647  0.00  0.00    +0.292 HD
ENDBRANCH  11  26
TORSDOF 6
ENDMDL
MODEL 2
REMARK VINA RESULT:      -7.2      1.535      3.176
REMARK  Name = 
REMARK  7 active torsions:
REMARK  status: ('A' for Active; 'I' for Inactive)
REMARK    1  A    between atoms: C_1  and  O_2
REMARK    2  A    between atoms: O_2  and  C_3
REMARK    3  A    between atoms: C_4  and  O_23
REMARK    4  A    between atoms: C_6  and  C_9
REMARK    5  A    between atoms: C_10  and  O_22
REMARK    6  A    between atoms: C_14  and  O_21
REMARK    7  A    between atoms: C_16  and  O_20
REMARK                            x       y       z     vdW  Elec       q    Type
REMARK                         _______ _______ _______ _____ _____    ______ ____
ROOT
ATOM      1  C   UNL     1       6.590  -3.383  23.326  0.00  0.00    +0.181 A 
ATOM      2  O   UNL     1       6.776  -3.815  24.636  0.00  0.00    -0.451 OA
ATOM      3  C   UNL     1       6.079  -4.906  25.091  0.00  0.00    +0.147 A 
ATOM      4  C   UNL     1       5.216  -5.637  24.285  0.00  0.00    +0.109 A 
ATOM      5  C   UNL     1       4.532  -6.740  24.810  0.00  0.00    +0.135 A 
ATOM      6  C   UNL     1       4.713  -7.114  26.138  0.00  0.00    +0.091 A 
ATOM      7  C   UNL     1       5.584  -6.378  26.933  0.00  0.00    +0.124 A 
ATOM      8  C   UNL     1       5.039  -5.217  22.891  0.00  0.00    +0.238 A 
ATOM      9  O   UNL     1       4.290  -5.853  22.158  0.00  0.00    -0.283 OA
ATOM     10  C   UNL     1       6.268  -5.276  26.421  0.00  0.00    +0.092 A 
ATOM     11  C   UNL     1       5.759  -3.994  22.453  0.00  0.00    +0.208 A 
ENDROOT
BRANCH   1  15
ATOM     12  C   UNL     1       8.999   0.030  22.207  0.00  0.00    +0.161 A 
ATOM     13  C   UNL     1       7.726   0.217  22.734  0.00  0.00    +0.050 A 
ATOM     14  C   UNL     1       6.942  -0.888  23.090  0.00  0.00    +0.015 A 
ATOM     15  C   UNL     1       7.434  -2.201  23.000  0.00  0.00    +0.025 A 
ATOM     16  C   UNL     1       8.738  -2.375  22.505  0.00  0.00    +0.060 A 
ATOM     17  C   UNL     1       9.495  -1.272  22.107  0.00  0.00    +0.159 A 
BRANCH  12  19
ATOM     18  C   UNL     1      10.018   2.107  22.675  0.00  0.00    +0.277 C 
ATOM     19  O   UNL     1       9.827   1.027  21.763  0.00  0.00    -0.491 OA
ENDBRANCH  12  19
BRANCH  17  20
ATOM     20  O   UNL     1      10.732  -1.502  21.569  0.00  0.00    -0.503 OA
ATOM     21  H   UNL     1      10.950  -0.693  21.065  0.00  0.00    +0.292 HD
ENDBRANCH  17  20
ENDBRANCH   1  15
BRANCH   5  22
ATOM     22  O   UNL     1       3.661  -7.497  24.072  0.00  0.00    -0.506 OA
ATOM     23  H   UNL     1       3.734  -7.214  23.130  0.00  0.00    +0.292 HD
ENDBRANCH   5  22
BRANCH   7  24
ATOM     24  O   UNL     1       5.797  -6.706  28.241  0.00  0.00    -0.507 OA
ATOM     25  H   UNL     1       5.913  -7.672  28.307  0.00  0.00    +0.292 HD
ENDBRANCH   7  24
BRANCH  11  26
ATOM     26  O   UNL     1       5.503  -3.567  21.163  0.00  0.00    -0.501 OA
ATOM     27  H   UNL     1       5.260  -2.627  21.197  0.00  0.00    +0.292 HD
ENDBRANCH  11  26
TORSDOF 6
ENDMDL
MODEL 3
REMARK VINA RESULT:      -6.8      1.983      7.324
REMARK  Name = 
REMARK  7 active torsions:
REMARK  status: ('A' for Active; 'I' for Inactive)
REMARK    1  A    between atoms: C_1  and  O_2
REMARK    2  A    between atoms: O_2  and  C_3
REMARK    3  A    between atoms: C_4  and  O_23
REMARK    4  A    between atoms: C_6  and  C_9
REMARK    5  A    between atoms: C_10  and  O_22
REMARK    6  A    between atoms: C_14  and  O_21
REMARK    7  A    between atoms: C_16  and  O_20
REMARK                            x       y       z     vdW  Elec       q    Type
REMARK                         _______ _______ _______ _____ _____    ______ ____
ROOT
ATOM      1  C   UNL     1       7.918  -2.288  23.938  0.00  0.00    +0.181 A 
ATOM      2  O   UNL     1       6.974  -1.282  23.757  0.00  0.00    -0.451 OA
ATOM      3  C   UNL     1       7.351  -0.104  23.163  0.00  0.00    +0.147 A 
ATOM      4  C   UNL     1       8.637   0.123  22.689  0.00  0.00    +0.109 A 
ATOM      5  C   UNL     1       8.958   1.348  22.094  0.00  0.00    +0.135 A 
ATOM      6  C   UNL     1       7.996   2.345  21.969  0.00  0.00    +0.091 A 
ATOM      7  C   UNL     1       6.710   2.104  22.442  0.00  0.00    +0.124 A 
ATOM      8  C   UNL     1       9.633  -0.942  22.840  0.00  0.00    +0.238 A 
ATOM      9  O   UNL     1      10.772  -0.769  22.420  0.00  0.00    -0.283 OA
ATOM     10  C   UNL     1       6.380   0.888  23.038  0.00  0.00    +0.092 A 
ATOM     11  C   UNL     1       9.207  -2.178  23.545  0.00  0.00    +0.208 A 
ENDROOT
BRANCH   1  15
ATOM     12  C   UNL     1       6.152  -5.694  25.934  0.00  0.00    +0.161 A 
ATOM     13  C   UNL     1       5.532  -5.140  24.820  0.00  0.00    +0.050 A 
ATOM     14  C   UNL     1       6.100  -4.033  24.176  0.00  0.00    +0.015 A 
ATOM     15  C   UNL     1       7.334  -3.497  24.582  0.00  0.00    +0.025 A 
ATOM     16  C   UNL     1       7.971  -4.092  25.684  0.00  0.00    +0.060 A 
ATOM     17  C   UNL     1       7.375  -5.164  26.349  0.00  0.00    +0.159 A 
BRANCH  12  19
ATOM     18  C   UNL     1       4.236  -6.785  26.775  0.00  0.00    +0.277 C 
ATOM     19  O   UNL     1       5.658  -6.731  26.682  0.00  0.00    -0.491 OA
ENDBRANCH  12  19
BRANCH  17  20
ATOM     20  O   UNL     1       8.005  -5.662  27.458  0.00  0.00    -0.503 OA
ATOM     21  H   UNL     1       7.601  -6.539  27.613  0.00  0.00    +0.292 HD
ENDBRANCH  17  20
ENDBRANCH   1  15
BRANCH   5  22
ATOM     22  O   UNL     1      10.209   1.638  21.615  0.00  0.00    -0.506 OA
ATOM     23  H   UNL     1      10.566   2.396  22.135  0.00  0.00    +0.292 HD
ENDBRANCH   5  22
BRANCH   7  24
ATOM     24  O   UNL     1       5.731   3.049  22.340  0.00  0.00    -0.507 OA
ATOM     25  H   UNL     1       5.759   3.435  21.446  0.00  0.00    +0.292 HD
ENDBRANCH   7  24
BRANCH  11  26
ATOM     26  O   UNL     1      10.189  -3.128  23.755  0.00  0.00    -0.501 OA
ATOM     27  H   UNL     1      10.271  -3.274  24.713  0.00  0.00    +0.292 HD
ENDBRANCH  11  26
TORSDOF 6
ENDMDL
MODEL 4
REMARK VINA RESULT:      -6.8      1.914      7.698
REMARK  Name = 
REMARK  7 active torsions:
REMARK  status: ('A' for Active; 'I' for Inactive)
REMARK    1  A    between atoms: C_1  and  O_2
REMARK    2  A    between atoms: O_2  and  C_3
REMARK    3  A    between atoms: C_4  and  O_23
REMARK    4  A    between atoms: C_6  and  C_9
REMARK    5  A    between atoms: C_10  and  O_22
REMARK    6  A    between atoms: C_14  and  O_21
REMARK    7  A    between atoms: C_16  and  O_20
REMARK                            x       y       z     vdW  Elec       q    Type
REMARK                         _______ _______ _______ _____ _____    ______ ____
ROOT
ATOM      1  C   UNL     1       7.989  -1.857  24.058  0.00  0.00    +0.181 A 
ATOM      2  O   UNL     1       7.757  -0.744  24.862  0.00  0.00    -0.451 OA
ATOM      3  C   UNL     1       8.194   0.489  24.446  0.00  0.00    +0.147 A 
ATOM      4  C   UNL     1       8.828   0.692  23.227  0.00  0.00    +0.109 A 
ATOM      5  C   UNL     1       9.252   1.975  22.863  0.00  0.00    +0.135 A 
ATOM      6  C   UNL     1       9.039   3.056  23.713  0.00  0.00    +0.091 A 
ATOM      7  C   UNL     1       8.397   2.841  24.928  0.00  0.00    +0.124 A 
ATOM      8  C   UNL     1       9.046  -0.465  22.353  0.00  0.00    +0.238 A 
ATOM      9  O   UNL     1       9.594  -0.309  21.268  0.00  0.00    -0.283 OA
ATOM     10  C   UNL     1       7.974   1.566  25.302  0.00  0.00    +0.092 A 
ATOM     11  C   UNL     1       8.619  -1.793  22.863  0.00  0.00    +0.208 A 
ENDROOT
BRANCH   1  15
ATOM     12  C   UNL     1       6.338  -5.386  25.935  0.00  0.00    +0.161 A 
ATOM     13  C   UNL     1       5.605  -4.700  24.972  0.00  0.00    +0.050 A 
ATOM     14  C   UNL     1       6.136  -3.553  24.369  0.00  0.00    +0.015 A 
ATOM     15  C   UNL     1       7.436  -3.104  24.655  0.00  0.00    +0.025 A 
ATOM     16  C   UNL     1       8.182  -3.829  25.599  0.00  0.00    +0.060 A 
ATOM     17  C   UNL     1       7.628  -4.943  26.231  0.00  0.00    +0.159 A 
BRANCH  12  19
ATOM     18  C   UNL     1       4.537  -6.839  26.402  0.00  0.00    +0.277 C 
ATOM     19  O   UNL     1       5.896  -6.476  26.638  0.00  0.00    -0.491 OA
ENDBRANCH  12  19
BRANCH  17  20
ATOM     20  O   UNL     1       8.372  -5.573  27.192  0.00  0.00    -0.503 OA
ATOM     21  H   UNL     1       8.492  -6.488  26.869  0.00  0.00    +0.292 HD
ENDBRANCH  17  20
ENDBRANCH   1  15
BRANCH   5  22
ATOM     22  O   UNL     1       9.890   2.241  21.680  0.00  0.00    -0.506 OA
ATOM     23  H   UNL     1      10.761   2.654  21.889  0.00  0.00    +0.292 HD
ENDBRANCH   5  22
BRANCH   7  24
ATOM     24  O   UNL     1       8.163   3.868  25.795  0.00  0.00    -0.507 OA
ATOM     25  H   UNL     1       8.971   4.410  25.866  0.00  0.00    +0.292 HD
ENDBRANCH   7  24
BRANCH  11  26
ATOM     26  O   UNL     1       8.918  -2.878  22.061  0.00  0.00    -0.501 OA
ATOM     27  H   UNL     1       9.606  -3.403  22.504  0.00  0.00    +0.292 HD
ENDBRANCH  11  26
TORSDOF 6
ENDMDL
MODEL 5
REMARK VINA RESULT:      -6.8      2.759      4.324
REMARK  Name = 
REMARK  7 active torsions:
REMARK  status: ('A' for Active; 'I' for Inactive)
REMARK    1  A    between atoms: C_1  and  O_2
REMARK    2  A    between atoms: O_2  and  C_3
REMARK    3  A    between atoms: C_4  and  O_23
REMARK    4  A    between atoms: C_6  and  C_9
REMARK    5  A    between atoms: C_10  and  O_22
REMARK    6  A    between atoms: C_14  and  O_21
REMARK    7  A    between atoms: C_16  and  O_20
REMARK                            x       y       z     vdW  Elec       q    Type
REMARK                         _______ _______ _______ _____ _____    ______ ____
ROOT
ATOM      1  C   UNL     1       8.313  -0.387  23.396  0.00  0.00    +0.181 A 
ATOM      2  O   UNL     1       7.054  -0.933  23.162  0.00  0.00    -0.451 OA
ATOM      3  C   UNL     1       6.893  -2.295  23.197  0.00  0.00    +0.147 A 
ATOM      4  C   UNL     1       7.930  -3.168  23.499  0.00  0.00    +0.109 A 
ATOM      5  C   UNL     1       7.701  -4.549  23.516  0.00  0.00    +0.135 A 
ATOM      6  C   UNL     1       6.437  -5.057  23.235  0.00  0.00    +0.091 A 
ATOM      7  C   UNL     1       5.405  -4.172  22.940  0.00  0.00    +0.124 A 
ATOM      8  C   UNL     1       9.255  -2.606  23.784  0.00  0.00    +0.238 A 
ATOM      9  O   UNL     1      10.183  -3.357  24.063  0.00  0.00    -0.283 OA
ATOM     10  C   UNL     1       5.623  -2.795  22.918  0.00  0.00    +0.092 A 
ATOM     11  C   UNL     1       9.407  -1.133  23.674  0.00  0.00    +0.208 A 
ENDROOT
BRANCH   1  15
ATOM     12  C   UNL     1       8.132   3.933  23.322  0.00  0.00    +0.161 A 
ATOM     13  C   UNL     1       9.020   3.286  24.175  0.00  0.00    +0.050 A 
ATOM     14  C   UNL     1       9.075   1.887  24.204  0.00  0.00    +0.015 A 
ATOM     15  C   UNL     1       8.301   1.100  23.335  0.00  0.00    +0.025 A 
ATOM     16  C   UNL     1       7.437   1.766  22.450  0.00  0.00    +0.060 A 
ATOM     17  C   UNL     1       7.353   3.159  22.459  0.00  0.00    +0.159 A 
BRANCH  12  19
ATOM     18  C   UNL     1       9.118   6.074  23.452  0.00  0.00    +0.277 C 
ATOM     19  O   UNL     1       7.943   5.289  23.254  0.00  0.00    -0.491 OA
ENDBRANCH  12  19
BRANCH  17  20
ATOM     20  O   UNL     1       6.447   3.754  21.624  0.00  0.00    -0.503 OA
ATOM     21  H   UNL     1       6.891   3.808  20.755  0.00  0.00    +0.292 HD
ENDBRANCH  17  20
ENDBRANCH   1  15
BRANCH   5  22
ATOM     22  O   UNL     1       8.682  -5.463  23.796  0.00  0.00    -0.506 OA
ATOM     23  H   UNL     1       9.549  -5.068  23.543  0.00  0.00    +0.292 HD
ENDBRANCH   5  22
BRANCH   7  24
ATOM     24  O   UNL     1       4.147  -4.621  22.660  0.00  0.00    -0.507 OA
ATOM     25  H   UNL     1       4.176  -5.143  21.838  0.00  0.00    +0.292 HD
ENDBRANCH   7  24
BRANCH  11  26
ATOM     26  O   UNL     1      10.684  -0.638  23.857  0.00  0.00    -0.501 OA
ATOM     27  H   UNL     1      10.766   0.188  23.350  0.00  0.00    +0.292 HD
ENDBRANCH  11  26
TORSDOF 6
ENDMDL
MODEL 6
REMARK VINA RESULT:      -6.7      2.910      4.965
REMARK  Name = 
REMARK  7 active torsions:
REMARK  status: ('A' for Active; 'I' for Inactive)
REMARK    1  A    between atoms: C_1  and  O_2
REMARK    2  A    between atoms: O_2  and  C_3
REMARK    3  A    between atoms: C_4  and  O_23
REMARK    4  A    between atoms: C_6  and  C_9
REMARK    5  A    between atoms: C_10  and  O_22
REMARK    6  A    between atoms: C_14  and  O_21
REMARK    7  A    between atoms: C_16  and  O_20
REMARK                            x       y       z     vdW  Elec       q    Type
REMARK                         _______ _______ _______ _____ _____    ______ ____
ROOT
ATOM      1  C   UNL     1       8.221  -0.205  23.821  0.00  0.00    +0.181 A 
ATOM      2  O   UNL     1       9.084  -1.132  24.400  0.00  0.00    -0.451 OA
ATOM      3  C   UNL     1       8.802  -2.471  24.294  0.00  0.00    +0.147 A 
ATOM      4  C   UNL     1       7.705  -2.957  23.592  0.00  0.00    +0.109 A 
ATOM      5  C   UNL     1       7.472  -4.335  23.524  0.00  0.00    +0.135 A 
ATOM      6  C   UNL     1       8.335  -5.228  24.151  0.00  0.00    +0.091 A 
ATOM      7  C   UNL     1       9.432  -4.730  24.845  0.00  0.00    +0.124 A 
ATOM      8  C   UNL     1       6.808  -1.993  22.946  0.00  0.00    +0.238 A 
ATOM      9  O   UNL     1       5.840  -2.398  22.313  0.00  0.00    -0.283 OA
ATOM     10  C   UNL     1       9.672  -3.358  24.922  0.00  0.00    +0.092 A 
ATOM     11  C   UNL     1       7.108  -0.551  23.136  0.00  0.00    +0.208 A 
ENDROOT
BRANCH   1  15
ATOM     12  C   UNL     1       9.482   3.909  24.255  0.00  0.00    +0.161 A 
ATOM     13  C   UNL     1       8.453   3.408  25.045  0.00  0.00    +0.050 A 
ATOM     14  C   UNL     1       8.040   2.077  24.901  0.00  0.00    +0.015 A 
ATOM     15  C   UNL     1       8.688   1.195  24.020  0.00  0.00    +0.025 A 
ATOM     16  C   UNL     1       9.752   1.703  23.257  0.00  0.00    +0.060 A 
ATOM     17  C   UNL     1      10.128   3.042  23.371  0.00  0.00    +0.159 A 
BRANCH  12  19
ATOM     18  C   UNL     1       9.427   6.011  25.329  0.00  0.00    +0.277 C 
ATOM     19  O   UNL     1       9.925   5.206  24.261  0.00  0.00    -0.491 OA
ENDBRANCH  12  19
BRANCH  17  20
ATOM     20  O   UNL     1      11.126   3.502  22.556  0.00  0.00    -0.503 OA
ATOM     21  H   UNL     1      11.697   2.728  22.383  0.00  0.00    +0.292 HD
ENDBRANCH  17  20
ENDBRANCH   1  15
BRANCH   5  22
ATOM     22  O   UNL     1       6.405  -4.877  22.857  0.00  0.00    -0.506 OA
ATOM     23  H   UNL     1       5.597  -4.376  23.116  0.00  0.00    +0.292 HD
ENDBRANCH   5  22
BRANCH   7  24
ATOM     24  O   UNL     1      10.309  -5.565  25.475  0.00  0.00    -0.507 OA
ATOM     25  H   UNL     1      10.219  -6.458  25.096  0.00  0.00    +0.292 HD
ENDBRANCH   7  24
BRANCH  11  26
ATOM     26  O   UNL     1       6.197   0.336  22.595  0.00  0.00    -0.501 OA
ATOM     27  H   UNL     1       5.307   0.070  22.881  0.00  0.00    +0.292 HD
ENDBRANCH  11  26
TORSDOF 6
ENDMDL
MODEL 7
REMARK VINA RESULT:      -6.6      2.626      7.910
REMARK  Name = 
REMARK  7 active torsions:
REMARK  status: ('A' for Active; 'I' for Inactive)
REMARK    1  A    between atoms: C_1  and  O_2
REMARK    2  A    between atoms: O_2  and  C_3
REMARK    3  A    between atoms: C_4  and  O_23
REMARK    4  A    between atoms: C_6  and  C_9
REMARK    5  A    between atoms: C_10  and  O_22
REMARK    6  A    between atoms: C_14  and  O_21
REMARK    7  A    between atoms: C_16  and  O_20
REMARK                            x       y       z     vdW  Elec       q    Type
REMARK                         _______ _______ _______ _____ _____    ______ ____
ROOT
ATOM      1  C   UNL     1       8.252  -0.600  23.133  0.00  0.00    +0.181 A 
ATOM      2  O   UNL     1       7.662   0.106  24.178  0.00  0.00    -0.451 OA
ATOM      3  C   UNL     1       8.038   1.406  24.409  0.00  0.00    +0.147 A 
ATOM      4  C   UNL     1       8.960   2.075  23.615  0.00  0.00    +0.109 A 
ATOM      5  C   UNL     1       9.303   3.401  23.905  0.00  0.00    +0.135 A 
ATOM      6  C   UNL     1       8.722   4.059  24.985  0.00  0.00    +0.091 A 
ATOM      7  C   UNL     1       7.795   3.380  25.769  0.00  0.00    +0.124 A 
ATOM      8  C   UNL     1       9.562   1.356  22.487  0.00  0.00    +0.238 A 
ATOM      9  O   UNL     1      10.371   1.930  21.766  0.00  0.00    -0.283 OA
ATOM     10  C   UNL     1       7.449   2.058  25.490  0.00  0.00    +0.092 A 
ATOM     11  C   UNL     1       9.180  -0.068  22.307  0.00  0.00    +0.208 A 
ENDROOT
BRANCH   1  15
ATOM     12  C   UNL     1       6.647  -4.612  22.973  0.00  0.00    +0.161 A 
ATOM     13  C   UNL     1       5.911  -3.546  22.467  0.00  0.00    +0.050 A 
ATOM     14  C   UNL     1       6.427  -2.245  22.524  0.00  0.00    +0.015 A 
ATOM     15  C   UNL     1       7.716  -1.984  23.019  0.00  0.00    +0.025 A 
ATOM     16  C   UNL     1       8.466  -3.076  23.490  0.00  0.00    +0.060 A 
ATOM     17  C   UNL     1       7.926  -4.362  23.474  0.00  0.00    +0.159 A 
BRANCH  12  19
ATOM     18  C   UNL     1       5.145  -6.156  23.940  0.00  0.00    +0.277 C 
ATOM     19  O   UNL     1       6.218  -5.913  23.032  0.00  0.00    -0.491 OA
ENDBRANCH  12  19
BRANCH  17  20
ATOM     20  O   UNL     1       8.671  -5.379  24.006  0.00  0.00    -0.503 OA
ATOM     21  H   UNL     1       8.119  -5.761  24.716  0.00  0.00    +0.292 HD
ENDBRANCH  17  20
ENDBRANCH   1  15
BRANCH   5  22
ATOM     22  O   UNL     1      10.211   4.114  23.167  0.00  0.00    -0.506 OA
ATOM     23  H   UNL     1      10.887   3.483  22.825  0.00  0.00    +0.292 HD
ENDBRANCH   5  22
BRANCH   7  24
ATOM     24  O   UNL     1       7.197   3.982  26.837  0.00  0.00    -0.507 OA
ATOM     25  H   UNL     1       6.625   3.332  27.284  0.00  0.00    +0.292 HD
ENDBRANCH   7  24
BRANCH  11  26
ATOM     26  O   UNL     1       9.830  -0.748  21.295  0.00  0.00    -0.501 OA
ATOM     27  H   UNL     1       9.459  -1.646  21.245  0.00  0.00    +0.292 HD
ENDBRANCH  11  26
TORSDOF 6
ENDMDL
MODEL 8
REMARK VINA RESULT:      -6.6      2.578      4.581
REMARK  Name = 
REMARK  7 active torsions:
REMARK  status: ('A' for Active; 'I' for Inactive)
REMARK    1  A    between atoms: C_1  and  O_2
REMARK    2  A    between atoms: O_2  and  C_3
REMARK    3  A    between atoms: C_4  and  O_23
REMARK    4  A    between atoms: C_6  and  C_9
REMARK    5  A    between atoms: C_10  and  O_22
REMARK    6  A    between atoms: C_14  and  O_21
REMARK    7  A    between atoms: C_16  and  O_20
REMARK                            x       y       z     vdW  Elec       q    Type
REMARK                         _______ _______ _______ _____ _____    ______ ____
ROOT
ATOM      1  C   UNL     1       7.916  -0.346  24.142  0.00  0.00    +0.181 A 
ATOM      2  O   UNL     1       8.846  -1.368  24.306  0.00  0.00    -0.451 OA
ATOM      3  C   UNL     1       8.407  -2.648  24.533  0.00  0.00    +0.147 A 
ATOM      4  C   UNL     1       7.060  -2.988  24.565  0.00  0.00    +0.109 A 
ATOM      5  C   UNL     1       6.678  -4.313  24.803  0.00  0.00    +0.135 A 
ATOM      6  C   UNL     1       7.638  -5.299  25.004  0.00  0.00    +0.091 A 
ATOM      7  C   UNL     1       8.983  -4.948  24.963  0.00  0.00    +0.124 A 
ATOM      8  C   UNL     1       6.069  -1.928  24.357  0.00  0.00    +0.238 A 
ATOM      9  O   UNL     1       4.875  -2.205  24.372  0.00  0.00    -0.283 OA
ATOM     10  C   UNL     1       9.376  -3.630  24.729  0.00  0.00    +0.092 A 
ATOM     11  C   UNL     1       6.579  -0.544  24.180  0.00  0.00    +0.208 A 
ENDROOT
BRANCH   1  15
ATOM     12  C   UNL     1       9.920   3.440  23.545  0.00  0.00    +0.161 A 
ATOM     13  C   UNL     1      10.191   2.367  22.704  0.00  0.00    +0.050 A 
ATOM     14  C   UNL     1       9.547   1.138  22.900  0.00  0.00    +0.015 A 
ATOM     15  C   UNL     1       8.566   0.970  23.891  0.00  0.00    +0.025 A 
ATOM     16  C   UNL     1       8.271   2.074  24.709  0.00  0.00    +0.060 A 
ATOM     17  C   UNL     1       8.951   3.281  24.538  0.00  0.00    +0.159 A 
BRANCH  12  19
ATOM     18  C   UNL     1      11.955   4.622  23.368  0.00  0.00    +0.277 C 
ATOM     19  O   UNL     1      10.534   4.664  23.491  0.00  0.00    -0.491 OA
ENDBRANCH  12  19
BRANCH  17  20
ATOM     20  O   UNL     1       8.674   4.303  25.405  0.00  0.00    -0.503 OA
ATOM     21  H   UNL     1       8.279   5.009  24.856  0.00  0.00    +0.292 HD
ENDBRANCH  17  20
ENDBRANCH   1  15
BRANCH   5  22
ATOM     22  O   UNL     1       5.368  -4.711  24.857  0.00  0.00    -0.506 OA
ATOM     23  H   UNL     1       4.806  -3.949  24.582  0.00  0.00    +0.292 HD
ENDBRANCH   5  22
BRANCH   7  24
ATOM     24  O   UNL     1       9.963  -5.879  25.151  0.00  0.00    -0.507 OA
ATOM     25  H   UNL     1      10.674  -5.722  24.503  0.00  0.00    +0.292 HD
ENDBRANCH   7  24
BRANCH  11  26
ATOM     26  O   UNL     1       5.622   0.449  24.077  0.00  0.00    -0.501 OA
ATOM     27  H   UNL     1       5.573   0.728  23.147  0.00  0.00    +0.292 HD
ENDBRANCH  11  26
TORSDOF 6
ENDMDL
MODEL 9
REMARK VINA RESULT:      -6.5      2.946      8.041
REMARK  Name = 
REMARK  7 active torsions:
REMARK  status: ('A' for Active; 'I' for Inactive)
REMARK    1  A    between atoms: C_1  and  O_2
REMARK    2  A    between atoms: O_2  and  C_3
REMARK    3  A    between atoms: C_4  and  O_23
REMARK    4  A    between atoms: C_6  and  C_9
REMARK    5  A    between atoms: C_10  and  O_22
REMARK    6  A    between atoms: C_14  and  O_21
REMARK    7  A    between atoms: C_16  and  O_20
REMARK                            x       y       z     vdW  Elec       q    Type
REMARK                         _______ _______ _______ _____ _____    ______ ____
ROOT
ATOM      1  C   UNL     1       8.444  -0.371  23.388  0.00  0.00    +0.181 A 
ATOM      2  O   UNL     1       7.839   0.414  24.365  0.00  0.00    -0.451 OA
ATOM      3  C   UNL     1       8.207   1.730  24.495  0.00  0.00    +0.147 A 
ATOM      4  C   UNL     1       9.135   2.338  23.659  0.00  0.00    +0.109 A 
ATOM      5  C   UNL     1       9.468   3.685  23.844  0.00  0.00    +0.135 A 
ATOM      6  C   UNL     1       8.872   4.425  24.861  0.00  0.00    +0.091 A 
ATOM      7  C   UNL     1       7.939   3.807  25.687  0.00  0.00    +0.124 A 
ATOM      8  C   UNL     1       9.753   1.533  22.600  0.00  0.00    +0.238 A 
ATOM      9  O   UNL     1      10.567   2.051  21.844  0.00  0.00    -0.283 OA
ATOM     10  C   UNL     1       7.602   2.465  25.512  0.00  0.00    +0.092 A 
ATOM     11  C   UNL     1       9.380   0.097  22.532  0.00  0.00    +0.208 A 
ENDROOT
BRANCH   1  15
ATOM     12  C   UNL     1       6.954  -4.426  23.195  0.00  0.00    +0.161 A 
ATOM     13  C   UNL     1       8.210  -4.170  23.733  0.00  0.00    +0.050 A 
ATOM     14  C   UNL     1       8.697  -2.857  23.790  0.00  0.00    +0.015 A 
ATOM     15  C   UNL     1       7.916  -1.763  23.381  0.00  0.00    +0.025 A 
ATOM     16  C   UNL     1       6.632  -2.032  22.876  0.00  0.00    +0.060 A 
ATOM     17  C   UNL     1       6.173  -3.347  22.778  0.00  0.00    +0.159 A 
BRANCH  12  19
ATOM     18  C   UNL     1       6.876  -6.392  21.889  0.00  0.00    +0.277 C 
ATOM     19  O   UNL     1       6.404  -5.670  23.026  0.00  0.00    -0.491 OA
ENDBRANCH  12  19
BRANCH  17  20
ATOM     20  O   UNL     1       4.943  -3.558  22.217  0.00  0.00    -0.503 OA
ATOM     21  H   UNL     1       4.925  -3.002  21.413  0.00  0.00    +0.292 HD
ENDBRANCH  17  20
ENDBRANCH   1  15
BRANCH   5  22
ATOM     22  O   UNL     1      10.382   4.340  23.062  0.00  0.00    -0.506 OA
ATOM     23  H   UNL     1      11.127   4.628  23.639  0.00  0.00    +0.292 HD
ENDBRANCH   5  22
BRANCH   7  24
ATOM     24  O   UNL     1       7.325   4.490  26.695  0.00  0.00    -0.507 OA
ATOM     25  H   UNL     1       7.017   3.852  27.365  0.00  0.00    +0.292 HD
ENDBRANCH   7  24
BRANCH  11  26
ATOM     26  O   UNL     1      10.044  -0.660  21.585  0.00  0.00    -0.501 OA
ATOM     27  H   UNL     1      10.781  -0.130  21.235  0.00  0.00    +0.292 HD
ENDBRANCH  11  26
TORSDOF 6
ENDMDL
