MODEL 1
REMARK VINA RESULT:      -7.6      0.000      0.000
REMARK  Name = 
REMARK  17 active torsions:
REMARK  status: ('A' for Active; 'I' for Inactive)
REMARK    1  A    between atoms: C_1  and  C_2
REMARK    2  A    between atoms: C_4  and  O_53
REMARK    3  A    between atoms: C_6  and  O_52
REMARK    4  A    between atoms: C_8  and  O_51
REMARK    5  A    between atoms: C_10  and  O_13
REMARK    6  A    between atoms: O_13  and  C_14
REMARK    7  A    between atoms: C_16  and  O_50
REMARK    8  A    between atoms: C_21  and  C_42
REMARK    9  A    between atoms: C_22  and  O_25
REMARK   10  A    between atoms: O_25  and  C_26
REMARK   11  A    between atoms: C_28  and  O_41
REMARK   12  A    between atoms: C_30  and  O_40
REMARK   13  A    between atoms: C_32  and  O_39
REMARK   14  A    between atoms: C_34  and  C_37
REMARK   15  A    between atoms: C_37  and  O_38
REMARK   16  A    between atoms: C_44  and  O_49
REMARK   17  A    between atoms: C_45  and  O_48
REMARK                            x       y       z     vdW  Elec       q    Type
REMARK                         _______ _______ _______ _____ _____    ______ ____
ROOT
ATOM      1  C   UNL     1       5.287  -6.183  24.166  0.00  0.00    +0.131 A 
ATOM      2  C   UNL     1       5.260  -5.210  25.172  0.00  0.00    +0.093 A 
ATOM      3  C   UNL     1       6.134  -4.122  25.104  0.00  0.00    +0.147 A 
ATOM      4  O   UNL     1       6.101  -3.192  26.115  0.00  0.00    -0.451 OA
ATOM      5  C   UNL     1       6.743  -1.969  25.902  0.00  0.00    +0.181 A 
ATOM      6  C   UNL     1       7.629  -1.735  24.908  0.00  0.00    +0.214 A 
ATOM      7  C   UNL     1       8.031  -2.957  24.145  0.00  0.00    +0.238 A 
ATOM      8  O   UNL     1       9.161  -3.109  23.703  0.00  0.00    -0.283 OA
ATOM      9  C   UNL     1       7.033  -4.020  24.051  0.00  0.00    +0.109 A 
ATOM     10  C   UNL     1       7.014  -4.948  23.012  0.00  0.00    +0.135 A 
ATOM     11  C   UNL     1       6.141  -6.028  23.070  0.00  0.00    +0.092 A 
ENDROOT
BRANCH   5  12
ATOM     12  C   UNL     1       6.426  -0.999  26.967  0.00  0.00    +0.025 A 
ATOM     13  C   UNL     1       5.095  -0.912  27.420  0.00  0.00    +0.015 A 
ATOM     14  C   UNL     1       4.713   0.053  28.356  0.00  0.00    +0.050 A 
ATOM     15  C   UNL     1       5.668   0.926  28.848  0.00  0.00    +0.158 A 
ATOM     16  C   UNL     1       6.992   0.847  28.421  0.00  0.00    +0.159 A 
ATOM     17  C   UNL     1       7.383  -0.108  27.480  0.00  0.00    +0.060 A 
BRANCH  15  18
ATOM     18  O   UNL     1       5.292   1.878  29.752  0.00  0.00    -0.503 OA
ATOM     19  H   UNL     1       4.834   2.558  29.220  0.00  0.00    +0.292 HD
ENDBRANCH  15  18
BRANCH  16  20
ATOM     20  O   UNL     1       7.874   1.743  28.955  0.00  0.00    -0.503 OA
ATOM     21  H   UNL     1       7.414   2.592  29.069  0.00  0.00    +0.292 HD
ENDBRANCH  16  20
ENDBRANCH   5  12
BRANCH  10  22
ATOM     22  O   UNL     1       7.823  -4.791  21.925  0.00  0.00    -0.506 OA
ATOM     23  H   UNL     1       8.098  -3.863  21.845  0.00  0.00    +0.292 HD
ENDBRANCH  10  22
BRANCH   6  24
ATOM     24  O   UNL     1       8.219  -0.490  24.675  0.00  0.00    -0.453 OA
BRANCH  24  25
ATOM     25  C   UNL     1       7.525   0.364  23.740  0.00  0.00    +0.340 C 
ATOM     26  O   UNL     1       7.833   0.037  22.371  0.00  0.00    -0.331 OA
ATOM     27  C   UNL     1       9.044   0.536  21.801  0.00  0.00    +0.179 C 
ATOM     28  C   UNL     1       9.253   2.036  22.062  0.00  0.00    +0.177 C 
ATOM     29  C   UNL     1       9.024   2.434  23.524  0.00  0.00    +0.180 C 
ATOM     30  C   UNL     1       7.688   1.881  24.026  0.00  0.00    +0.214 C 
BRANCH  28  31
ATOM     31  O   UNL     1      10.533   2.472  21.604  0.00  0.00    -0.386 OA
ATOM     32  H   UNL     1      11.141   2.416  22.368  0.00  0.00    +0.210 HD
ENDBRANCH  28  31
BRANCH  29  33
ATOM     33  O   UNL     1      10.127   2.061  24.360  0.00  0.00    -0.386 OA
ATOM     34  H   UNL     1      10.688   2.854  24.514  0.00  0.00    +0.210 HD
ENDBRANCH  29  33
BRANCH  30  35
ATOM     35  O   UNL     1       6.636   2.632  23.388  0.00  0.00    -0.383 OA
ATOM     36  H   UNL     1       6.043   2.986  24.077  0.00  0.00    +0.210 HD
ENDBRANCH  30  35
BRANCH  27  37
ATOM     37  C   UNL     1      10.238  -0.370  22.122  0.00  0.00    +0.190 C 
BRANCH  37  38
ATOM     38  O   UNL     1      10.159  -1.617  21.437  0.00  0.00    -0.392 OA
ATOM     39  H   UNL     1       9.954  -1.392  20.504  0.00  0.00    +0.210 HD
ENDBRANCH  37  38
ENDBRANCH  27  37
ENDBRANCH  24  25
ENDBRANCH   6  24
BRANCH   1  40
ATOM     40  O   UNL     1       4.560  -7.337  24.124  0.00  0.00    -0.461 OA
BRANCH  40  44
ATOM     41  C   UNL     1       0.979  -8.000  26.478  0.00  0.00    +0.041 C 
ATOM     42  C   UNL     1       1.301  -8.673  25.148  0.00  0.00    +0.150 C 
ATOM     43  O   UNL     1       2.696  -8.595  24.831  0.00  0.00    -0.334 OA
ATOM     44  C   UNL     1       3.170  -7.294  24.466  0.00  0.00    +0.339 C 
ATOM     45  C   UNL     1       2.423  -6.766  23.220  0.00  0.00    +0.214 C 
ATOM     46  C   UNL     1       0.901  -6.836  23.410  0.00  0.00    +0.180 C 
ATOM     47  C   UNL     1       0.460  -8.199  23.952  0.00  0.00    +0.174 C 
BRANCH  47  48
ATOM     48  O   UNL     1       0.610  -9.169  22.894  0.00  0.00    -0.387 OA
ATOM     49  H   UNL     1      -0.274  -9.523  22.677  0.00  0.00    +0.210 HD
ENDBRANCH  47  48
BRANCH  46  50
ATOM     50  O   UNL     1       0.444  -5.749  24.228  0.00  0.00    -0.386 OA
ATOM     51  H   UNL     1      -0.525  -5.690  24.209  0.00  0.00    +0.210 HD
ENDBRANCH  46  50
BRANCH  45  52
ATOM     52  O   UNL     1       2.812  -5.415  22.922  0.00  0.00    -0.383 OA
ATOM     53  H   UNL     1       2.299  -5.123  22.144  0.00  0.00    +0.210 HD
ENDBRANCH  45  52
ENDBRANCH  40  44
ENDBRANCH   1  40
TORSDOF 16
ENDMDL
MODEL 2
REMARK VINA RESULT:      -7.4      2.444      4.465
REMARK  Name = 
REMARK  17 active torsions:
REMARK  status: ('A' for Active; 'I' for Inactive)
REMARK    1  A    between atoms: C_1  and  C_2
REMARK    2  A    between atoms: C_4  and  O_53
REMARK    3  A    between atoms: C_6  and  O_52
REMARK    4  A    between atoms: C_8  and  O_51
REMARK    5  A    between atoms: C_10  and  O_13
REMARK    6  A    between atoms: O_13  and  C_14
REMARK    7  A    between atoms: C_16  and  O_50
REMARK    8  A    between atoms: C_21  and  C_42
REMARK    9  A    between atoms: C_22  and  O_25
REMARK   10  A    between atoms: O_25  and  C_26
REMARK   11  A    between atoms: C_28  and  O_41
REMARK   12  A    between atoms: C_30  and  O_40
REMARK   13  A    between atoms: C_32  and  O_39
REMARK   14  A    between atoms: C_34  and  C_37
REMARK   15  A    between atoms: C_37  and  O_38
REMARK   16  A    between atoms: C_44  and  O_49
REMARK   17  A    between atoms: C_45  and  O_48
REMARK                            x       y       z     vdW  Elec       q    Type
REMARK                         _______ _______ _______ _____ _____    ______ ____
ROOT
ATOM      1  C   UNL     1       8.299  -3.471  25.045  0.00  0.00    +0.131 A 
ATOM      2  C   UNL     1       7.630  -2.510  25.811  0.00  0.00    +0.093 A 
ATOM      3  C   UNL     1       8.014  -1.170  25.727  0.00  0.00    +0.147 A 
ATOM      4  O   UNL     1       7.354  -0.249  26.505  0.00  0.00    -0.451 OA
ATOM      5  C   UNL     1       7.524   1.105  26.205  0.00  0.00    +0.181 A 
ATOM      6  C   UNL     1       8.497   1.593  25.404  0.00  0.00    +0.214 A 
ATOM      7  C   UNL     1       9.523   0.582  25.001  0.00  0.00    +0.238 A 
ATOM      8  O   UNL     1      10.703   0.871  24.857  0.00  0.00    -0.283 OA
ATOM      9  C   UNL     1       9.065  -0.802  24.898  0.00  0.00    +0.109 A 
ATOM     10  C   UNL     1       9.687  -1.743  24.081  0.00  0.00    +0.135 A 
ATOM     11  C   UNL     1       9.303  -3.077  24.155  0.00  0.00    +0.092 A 
ENDROOT
BRANCH   5  12
ATOM     12  C   UNL     1       6.583   1.950  26.964  0.00  0.00    +0.025 A 
ATOM     13  C   UNL     1       5.277   2.118  26.460  0.00  0.00    +0.015 A 
ATOM     14  C   UNL     1       4.371   2.982  27.081  0.00  0.00    +0.050 A 
ATOM     15  C   UNL     1       4.768   3.671  28.215  0.00  0.00    +0.158 A 
ATOM     16  C   UNL     1       6.051   3.507  28.735  0.00  0.00    +0.159 A 
ATOM     17  C   UNL     1       6.967   2.652  28.117  0.00  0.00    +0.060 A 
BRANCH  15  18
ATOM     18  O   UNL     1       3.887   4.525  28.813  0.00  0.00    -0.503 OA
ATOM     19  H   UNL     1       3.071   4.000  28.926  0.00  0.00    +0.292 HD
ENDBRANCH  15  18
BRANCH  16  20
ATOM     20  O   UNL     1       6.365   4.220  29.856  0.00  0.00    -0.503 OA
ATOM     21  H   UNL     1       5.668   4.882  30.001  0.00  0.00    +0.292 HD
ENDBRANCH  16  20
ENDBRANCH   5  12
BRANCH  10  22
ATOM     22  O   UNL     1      10.647  -1.365  23.189  0.00  0.00    -0.506 OA
ATOM     23  H   UNL     1      10.235  -0.975  22.401  0.00  0.00    +0.292 HD
ENDBRANCH  10  22
BRANCH   6  24
ATOM     24  O   UNL     1       8.619   2.944  25.069  0.00  0.00    -0.453 OA
BRANCH  24  25
ATOM     25  C   UNL     1       9.073   3.214  23.724  0.00  0.00    +0.340 C 
ATOM     26  O   UNL     1       9.379   4.608  23.522  0.00  0.00    -0.331 OA
ATOM     27  C   UNL     1       8.308   5.514  23.256  0.00  0.00    +0.179 C 
ATOM     28  C   UNL     1       7.351   5.005  22.167  0.00  0.00    +0.177 C 
ATOM     29  C   UNL     1       6.918   3.549  22.374  0.00  0.00    +0.180 C 
ATOM     30  C   UNL     1       8.139   2.658  22.616  0.00  0.00    +0.214 C 
BRANCH  28  31
ATOM     31  O   UNL     1       6.219   5.863  22.022  0.00  0.00    -0.386 OA
ATOM     32  H   UNL     1       6.564   6.770  21.905  0.00  0.00    +0.210 HD
ENDBRANCH  28  31
BRANCH  29  33
ATOM     33  O   UNL     1       5.929   3.426  23.402  0.00  0.00    -0.386 OA
ATOM     34  H   UNL     1       6.248   3.895  24.205  0.00  0.00    +0.210 HD
ENDBRANCH  29  33
BRANCH  30  35
ATOM     35  O   UNL     1       8.850   2.539  21.368  0.00  0.00    -0.383 OA
ATOM     36  H   UNL     1       9.670   3.066  21.425  0.00  0.00    +0.210 HD
ENDBRANCH  30  35
BRANCH  27  37
ATOM     37  C   UNL     1       7.646   6.008  24.547  0.00  0.00    +0.190 C 
BRANCH  37  38
ATOM     38  O   UNL     1       8.533   5.938  25.660  0.00  0.00    -0.392 OA
ATOM     39  H   UNL     1       7.977   6.109  26.451  0.00  0.00    +0.210 HD
ENDBRANCH  37  38
ENDBRANCH  27  37
ENDBRANCH  24  25
ENDBRANCH   6  24
BRANCH   1  40
ATOM     40  O   UNL     1       8.100  -4.822  25.069  0.00  0.00    -0.461 OA
BRANCH  40  44
ATOM     41  C   UNL     1       6.082  -6.175  21.478  0.00  0.00    +0.041 C 
ATOM     42  C   UNL     1       5.677  -4.970  22.321  0.00  0.00    +0.150 C 
ATOM     43  O   UNL     1       6.743  -4.523  23.166  0.00  0.00    -0.334 OA
ATOM     44  C   UNL     1       7.057  -5.384  24.265  0.00  0.00    +0.339 C 
ATOM     45  C   UNL     1       5.831  -5.563  25.191  0.00  0.00    +0.214 C 
ATOM     46  C   UNL     1       4.593  -6.002  24.398  0.00  0.00    +0.180 C 
ATOM     47  C   UNL     1       4.390  -5.148  23.142  0.00  0.00    +0.174 C 
BRANCH  47  48
ATOM     48  O   UNL     1       3.949  -3.839  23.562  0.00  0.00    -0.387 OA
ATOM     49  H   UNL     1       3.183  -3.585  23.011  0.00  0.00    +0.210 HD
ENDBRANCH  47  48
BRANCH  46  50
ATOM     50  O   UNL     1       4.656  -7.406  24.099  0.00  0.00    -0.386 OA
ATOM     51  H   UNL     1       4.256  -7.927  24.814  0.00  0.00    +0.210 HD
ENDBRANCH  46  50
BRANCH  45  52
ATOM     52  O   UNL     1       6.106  -6.519  26.228  0.00  0.00    -0.383 OA
ATOM     53  H   UNL     1       6.814  -7.109  25.907  0.00  0.00    +0.210 HD
ENDBRANCH  45  52
ENDBRANCH  40  44
ENDBRANCH   1  40
TORSDOF 16
ENDMDL
MODEL 3
REMARK VINA RESULT:      -7.3      2.139      3.074
REMARK  Name = 
REMARK  17 active torsions:
REMARK  status: ('A' for Active; 'I' for Inactive)
REMARK    1  A    between atoms: C_1  and  C_2
REMARK    2  A    between atoms: C_4  and  O_53
REMARK    3  A    between atoms: C_6  and  O_52
REMARK    4  A    between atoms: C_8  and  O_51
REMARK    5  A    between atoms: C_10  and  O_13
REMARK    6  A    between atoms: O_13  and  C_14
REMARK    7  A    between atoms: C_16  and  O_50
REMARK    8  A    between atoms: C_21  and  C_42
REMARK    9  A    between atoms: C_22  and  O_25
REMARK   10  A    between atoms: O_25  and  C_26
REMARK   11  A    between atoms: C_28  and  O_41
REMARK   12  A    between atoms: C_30  and  O_40
REMARK   13  A    between atoms: C_32  and  O_39
REMARK   14  A    between atoms: C_34  and  C_37
REMARK   15  A    between atoms: C_37  and  O_38
REMARK   16  A    between atoms: C_44  and  O_49
REMARK   17  A    between atoms: C_45  and  O_48
REMARK                            x       y       z     vdW  Elec       q    Type
REMARK                         _______ _______ _______ _____ _____    ______ ____
ROOT
ATOM      1  C   UNL     1       6.020  -5.403  25.752  0.00  0.00    +0.131 A 
ATOM      2  C   UNL     1       6.017  -4.305  26.620  0.00  0.00    +0.093 A 
ATOM      3  C   UNL     1       6.483  -3.068  26.170  0.00  0.00    +0.147 A 
ATOM      4  O   UNL     1       6.488  -2.011  27.049  0.00  0.00    -0.451 OA
ATOM      5  C   UNL     1       6.662  -0.726  26.527  0.00  0.00    +0.181 A 
ATOM      6  C   UNL     1       7.108  -0.463  25.279  0.00  0.00    +0.214 A 
ATOM      7  C   UNL     1       7.597  -1.666  24.537  0.00  0.00    +0.238 A 
ATOM      8  O   UNL     1       8.540  -1.615  23.759  0.00  0.00    -0.283 OA
ATOM      9  C   UNL     1       6.962  -2.938  24.873  0.00  0.00    +0.109 A 
ATOM     10  C   UNL     1       6.901  -4.009  23.985  0.00  0.00    +0.135 A 
ATOM     11  C   UNL     1       6.430  -5.241  24.425  0.00  0.00    +0.092 A 
ENDROOT
BRANCH   5  12
ATOM     12  C   UNL     1       6.412   0.310  27.547  0.00  0.00    +0.025 A 
ATOM     13  C   UNL     1       5.112   0.843  27.657  0.00  0.00    +0.015 A 
ATOM     14  C   UNL     1       4.835   1.894  28.535  0.00  0.00    +0.050 A 
ATOM     15  C   UNL     1       5.859   2.405  29.315  0.00  0.00    +0.158 A 
ATOM     16  C   UNL     1       7.148   1.882  29.230  0.00  0.00    +0.159 A 
ATOM     17  C   UNL     1       7.437   0.837  28.349  0.00  0.00    +0.060 A 
BRANCH  15  18
ATOM     18  O   UNL     1       5.591   3.441  30.163  0.00  0.00    -0.503 OA
ATOM     19  H   UNL     1       4.618   3.531  30.144  0.00  0.00    +0.292 HD
ENDBRANCH  15  18
BRANCH  16  20
ATOM     20  O   UNL     1       8.101   2.440  30.033  0.00  0.00    -0.503 OA
ATOM     21  H   UNL     1       8.192   3.377  29.791  0.00  0.00    +0.292 HD
ENDBRANCH  16  20
ENDBRANCH   5  12
BRANCH  10  22
ATOM     22  O   UNL     1       7.272  -3.855  22.682  0.00  0.00    -0.506 OA
ATOM     23  H   UNL     1       7.369  -4.723  22.258  0.00  0.00    +0.292 HD
ENDBRANCH  10  22
BRANCH   6  24
ATOM     24  O   UNL     1       7.224   0.827  24.754  0.00  0.00    -0.453 OA
BRANCH  24  25
ATOM     25  C   UNL     1       6.305   1.150  23.687  0.00  0.00    +0.340 C 
ATOM     26  O   UNL     1       6.943   1.129  22.395  0.00  0.00    -0.331 OA
ATOM     27  C   UNL     1       7.696   2.270  21.982  0.00  0.00    +0.179 C 
ATOM     28  C   UNL     1       6.943   3.592  22.194  0.00  0.00    +0.177 C 
ATOM     29  C   UNL     1       6.312   3.713  23.586  0.00  0.00    +0.180 C 
ATOM     30  C   UNL     1       5.501   2.457  23.916  0.00  0.00    +0.214 C 
BRANCH  28  31
ATOM     31  O   UNL     1       7.771   4.718  21.905  0.00  0.00    -0.386 OA
ATOM     32  H   UNL     1       8.360   4.456  21.170  0.00  0.00    +0.210 HD
ENDBRANCH  28  31
BRANCH  29  33
ATOM     33  O   UNL     1       7.286   4.023  24.590  0.00  0.00    -0.386 OA
ATOM     34  H   UNL     1       7.406   4.999  24.623  0.00  0.00    +0.210 HD
ENDBRANCH  29  33
BRANCH  30  35
ATOM     35  O   UNL     1       4.316   2.473  23.096  0.00  0.00    -0.383 OA
ATOM     36  H   UNL     1       4.298   1.658  22.559  0.00  0.00    +0.210 HD
ENDBRANCH  30  35
BRANCH  27  37
ATOM     37  C   UNL     1       9.132   2.227  22.517  0.00  0.00    +0.190 C 
BRANCH  37  38
ATOM     38  O   UNL     1      10.093   2.365  21.474  0.00  0.00    -0.392 OA
ATOM     39  H   UNL     1      10.696   1.595  21.569  0.00  0.00    +0.210 HD
ENDBRANCH  37  38
ENDBRANCH  27  37
ENDBRANCH  24  25
ENDBRANCH   6  24
BRANCH   1  40
ATOM     40  O   UNL     1       5.673  -6.688  26.056  0.00  0.00    -0.461 OA
BRANCH  40  44
ATOM     41  C   UNL     1       1.430  -7.457  26.505  0.00  0.00    +0.041 C 
ATOM     42  C   UNL     1       2.142  -6.168  26.901  0.00  0.00    +0.150 C 
ATOM     43  O   UNL     1       3.416  -6.040  26.258  0.00  0.00    -0.334 OA
ATOM     44  C   UNL     1       4.433  -6.931  26.729  0.00  0.00    +0.339 C 
ATOM     45  C   UNL     1       4.697  -6.716  28.238  0.00  0.00    +0.214 C 
ATOM     46  C   UNL     1       3.395  -6.784  29.047  0.00  0.00    +0.180 C 
ATOM     47  C   UNL     1       2.288  -5.935  28.413  0.00  0.00    +0.174 C 
BRANCH  47  48
ATOM     48  O   UNL     1       2.620  -4.546  28.617  0.00  0.00    -0.387 OA
ATOM     49  H   UNL     1       3.312  -4.300  27.973  0.00  0.00    +0.210 HD
ENDBRANCH  47  48
BRANCH  46  50
ATOM     50  O   UNL     1       2.992  -8.148  29.244  0.00  0.00    -0.386 OA
ATOM     51  H   UNL     1       2.801  -8.575  28.393  0.00  0.00    +0.210 HD
ENDBRANCH  46  50
BRANCH  45  52
ATOM     52  O   UNL     1       5.630  -7.687  28.739  0.00  0.00    -0.383 OA
ATOM     53  H   UNL     1       6.477  -7.553  28.274  0.00  0.00    +0.210 HD
ENDBRANCH  45  52
ENDBRANCH  40  44
ENDBRANCH   1  40
TORSDOF 16
ENDMDL
MODEL 4
REMARK VINA RESULT:      -7.3      1.238      2.149
REMARK  Name = 
REMARK  17 active torsions:
REMARK  status: ('A' for Active; 'I' for Inactive)
REMARK    1  A    between atoms: C_1  and  C_2
REMARK    2  A    between atoms: C_4  and  O_53
REMARK    3  A    between atoms: C_6  and  O_52
REMARK    4  A    between atoms: C_8  and  O_51
REMARK    5  A    between atoms: C_10  and  O_13
REMARK    6  A    between atoms: O_13  and  C_14
REMARK    7  A    between atoms: C_16  and  O_50
REMARK    8  A    between atoms: C_21  and  C_42
REMARK    9  A    between atoms: C_22  and  O_25
REMARK   10  A    between atoms: O_25  and  C_26
REMARK   11  A    between atoms: C_28  and  O_41
REMARK   12  A    between atoms: C_30  and  O_40
REMARK   13  A    between atoms: C_32  and  O_39
REMARK   14  A    between atoms: C_34  and  C_37
REMARK   15  A    between atoms: C_37  and  O_38
REMARK   16  A    between atoms: C_44  and  O_49
REMARK   17  A    between atoms: C_45  and  O_48
REMARK                            x       y       z     vdW  Elec       q    Type
REMARK                         _______ _______ _______ _____ _____    ______ ____
ROOT
ATOM      1  C   UNL     1       5.089  -6.193  24.358  0.00  0.00    +0.131 A 
ATOM      2  C   UNL     1       5.181  -5.148  25.284  0.00  0.00    +0.093 A 
ATOM      3  C   UNL     1       5.824  -3.961  24.924  0.00  0.00    +0.147 A 
ATOM      4  O   UNL     1       5.918  -2.958  25.858  0.00  0.00    -0.451 OA
ATOM      5  C   UNL     1       6.281  -1.683  25.417  0.00  0.00    +0.181 A 
ATOM      6  C   UNL     1       6.821  -1.419  24.206  0.00  0.00    +0.214 A 
ATOM      7  C   UNL     1       7.190  -2.638  23.421  0.00  0.00    +0.238 A 
ATOM      8  O   UNL     1       8.170  -2.672  22.690  0.00  0.00    -0.283 OA
ATOM      9  C   UNL     1       6.381  -3.832  23.659  0.00  0.00    +0.109 A 
ATOM     10  C   UNL     1       6.230  -4.842  22.711  0.00  0.00    +0.135 A 
ATOM     11  C   UNL     1       5.584  -6.021  23.062  0.00  0.00    +0.092 A 
ENDROOT
BRANCH   5  12
ATOM     12  C   UNL     1       6.113  -0.674  26.479  0.00  0.00    +0.025 A 
ATOM     13  C   UNL     1       4.893   0.028  26.551  0.00  0.00    +0.015 A 
ATOM     14  C   UNL     1       4.709   1.062  27.473  0.00  0.00    +0.050 A 
ATOM     15  C   UNL     1       5.744   1.387  28.333  0.00  0.00    +0.158 A 
ATOM     16  C   UNL     1       6.953   0.696  28.285  0.00  0.00    +0.159 A 
ATOM     17  C   UNL     1       7.151  -0.334  27.362  0.00  0.00    +0.060 A 
BRANCH  15  18
ATOM     18  O   UNL     1       5.569   2.407  29.224  0.00  0.00    -0.503 OA
ATOM     19  H   UNL     1       4.722   2.820  28.964  0.00  0.00    +0.292 HD
ENDBRANCH  15  18
BRANCH  16  20
ATOM     20  O   UNL     1       7.924   1.076  29.168  0.00  0.00    -0.503 OA
ATOM     21  H   UNL     1       7.698   0.716  30.042  0.00  0.00    +0.292 HD
ENDBRANCH  16  20
ENDBRANCH   5  12
BRANCH  10  22
ATOM     22  O   UNL     1       6.683  -4.673  21.436  0.00  0.00    -0.506 OA
ATOM     23  H   UNL     1       6.950  -3.750  21.296  0.00  0.00    +0.292 HD
ENDBRANCH  10  22
BRANCH   6  24
ATOM     24  O   UNL     1       7.126  -0.131  23.758  0.00  0.00    -0.453 OA
BRANCH  24  25
ATOM     25  C   UNL     1       8.169   0.552  24.489  0.00  0.00    +0.340 C 
ATOM     26  O   UNL     1       8.125   1.979  24.292  0.00  0.00    -0.331 OA
ATOM     27  C   UNL     1       8.708   2.527  23.109  0.00  0.00    +0.179 C 
ATOM     28  C   UNL     1      10.117   1.983  22.829  0.00  0.00    +0.177 C 
ATOM     29  C   UNL     1      10.209   0.457  22.937  0.00  0.00    +0.180 C 
ATOM     30  C   UNL     1       9.590  -0.024  24.252  0.00  0.00    +0.214 C 
BRANCH  28  31
ATOM     31  O   UNL     1      10.614   2.440  21.571  0.00  0.00    -0.386 OA
ATOM     32  H   UNL     1       9.950   2.192  20.897  0.00  0.00    +0.210 HD
ENDBRANCH  28  31
BRANCH  29  33
ATOM     33  O   UNL     1       9.650  -0.196  21.791  0.00  0.00    -0.386 OA
ATOM     34  H   UNL     1       8.967   0.390  21.395  0.00  0.00    +0.210 HD
ENDBRANCH  29  33
BRANCH  30  35
ATOM     35  O   UNL     1      10.477   0.363  25.321  0.00  0.00    -0.383 OA
ATOM     36  H   UNL     1      11.398   0.233  25.024  0.00  0.00    +0.210 HD
ENDBRANCH  30  35
BRANCH  27  37
ATOM     37  C   UNL     1       7.732   2.493  21.927  0.00  0.00    +0.190 C 
BRANCH  37  38
ATOM     38  O   UNL     1       8.234   1.713  20.845  0.00  0.00    -0.392 OA
ATOM     39  H   UNL     1       7.552   1.027  20.677  0.00  0.00    +0.210 HD
ENDBRANCH  37  38
ENDBRANCH  27  37
ENDBRANCH  24  25
ENDBRANCH   6  24
BRANCH   1  40
ATOM     40  O   UNL     1       4.566  -7.436  24.576  0.00  0.00    -0.461 OA
BRANCH  40  44
ATOM     41  C   UNL     1       0.776  -8.584  22.810  0.00  0.00    +0.041 C 
ATOM     42  C   UNL     1       1.230  -7.153  23.078  0.00  0.00    +0.150 C 
ATOM     43  O   UNL     1       2.649  -7.064  23.256  0.00  0.00    -0.334 OA
ATOM     44  C   UNL     1       3.150  -7.619  24.477  0.00  0.00    +0.339 C 
ATOM     45  C   UNL     1       2.525  -6.908  25.701  0.00  0.00    +0.214 C 
ATOM     46  C   UNL     1       0.992  -6.892  25.614  0.00  0.00    +0.180 C 
ATOM     47  C   UNL     1       0.507  -6.441  24.233  0.00  0.00    +0.174 C 
BRANCH  47  48
ATOM     48  O   UNL     1       0.765  -5.026  24.111  0.00  0.00    -0.387 OA
ATOM     49  H   UNL     1       1.715  -4.874  24.280  0.00  0.00    +0.210 HD
ENDBRANCH  47  48
BRANCH  46  50
ATOM     50  O   UNL     1       0.451  -8.167  25.994  0.00  0.00    -0.386 OA
ATOM     51  H   UNL     1      -0.072  -8.546  25.270  0.00  0.00    +0.210 HD
ENDBRANCH  46  50
BRANCH  45  52
ATOM     52  O   UNL     1       2.934  -7.539  26.926  0.00  0.00    -0.383 OA
ATOM     53  H   UNL     1       2.892  -6.868  27.633  0.00  0.00    +0.210 HD
ENDBRANCH  45  52
ENDBRANCH  40  44
ENDBRANCH   1  40
TORSDOF 16
ENDMDL
MODEL 5
REMARK VINA RESULT:      -7.2      2.787      9.794
REMARK  Name = 
REMARK  17 active torsions:
REMARK  status: ('A' for Active; 'I' for Inactive)
REMARK    1  A    between atoms: C_1  and  C_2
REMARK    2  A    between atoms: C_4  and  O_53
REMARK    3  A    between atoms: C_6  and  O_52
REMARK    4  A    between atoms: C_8  and  O_51
REMARK    5  A    between atoms: C_10  and  O_13
REMARK    6  A    between atoms: O_13  and  C_14
REMARK    7  A    between atoms: C_16  and  O_50
REMARK    8  A    between atoms: C_21  and  C_42
REMARK    9  A    between atoms: C_22  and  O_25
REMARK   10  A    between atoms: O_25  and  C_26
REMARK   11  A    between atoms: C_28  and  O_41
REMARK   12  A    between atoms: C_30  and  O_40
REMARK   13  A    between atoms: C_32  and  O_39
REMARK   14  A    between atoms: C_34  and  C_37
REMARK   15  A    between atoms: C_37  and  O_38
REMARK   16  A    between atoms: C_44  and  O_49
REMARK   17  A    between atoms: C_45  and  O_48
REMARK                            x       y       z     vdW  Elec       q    Type
REMARK                         _______ _______ _______ _____ _____    ______ ____
ROOT
ATOM      1  C   UNL     1       7.852   0.338  23.853  0.00  0.00    +0.131 A 
ATOM      2  C   UNL     1       7.061  -0.768  23.525  0.00  0.00    +0.093 A 
ATOM      3  C   UNL     1       6.955  -1.832  24.423  0.00  0.00    +0.147 A 
ATOM      4  O   UNL     1       6.188  -2.916  24.067  0.00  0.00    -0.451 OA
ATOM      5  C   UNL     1       5.838  -3.828  25.066  0.00  0.00    +0.181 A 
ATOM      6  C   UNL     1       6.422  -3.889  26.283  0.00  0.00    +0.214 A 
ATOM      7  C   UNL     1       7.628  -3.017  26.428  0.00  0.00    +0.238 A 
ATOM      8  O   UNL     1       8.595  -3.345  27.102  0.00  0.00    -0.283 OA
ATOM      9  C   UNL     1       7.645  -1.794  25.627  0.00  0.00    +0.109 A 
ATOM     10  C   UNL     1       8.376  -0.665  25.989  0.00  0.00    +0.135 A 
ATOM     11  C   UNL     1       8.478   0.401  25.102  0.00  0.00    +0.092 A 
ENDROOT
BRANCH   5  12
ATOM     12  C   UNL     1       4.833  -4.796  24.588  0.00  0.00    +0.025 A 
ATOM     13  C   UNL     1       5.144  -6.170  24.646  0.00  0.00    +0.015 A 
ATOM     14  C   UNL     1       4.275  -7.129  24.119  0.00  0.00    +0.050 A 
ATOM     15  C   UNL     1       3.086  -6.714  23.543  0.00  0.00    +0.158 A 
ATOM     16  C   UNL     1       2.756  -5.361  23.488  0.00  0.00    +0.159 A 
ATOM     17  C   UNL     1       3.621  -4.394  24.004  0.00  0.00    +0.060 A 
BRANCH  15  18
ATOM     18  O   UNL     1       2.244  -7.650  23.016  0.00  0.00    -0.503 OA
ATOM     19  H   UNL     1       2.833  -8.358  22.689  0.00  0.00    +0.292 HD
ENDBRANCH  15  18
BRANCH  16  20
ATOM     20  O   UNL     1       1.565  -5.033  22.905  0.00  0.00    -0.503 OA
ATOM     21  H   UNL     1       1.388  -4.094  23.081  0.00  0.00    +0.292 HD
ENDBRANCH  16  20
ENDBRANCH   5  12
BRANCH  10  22
ATOM     22  O   UNL     1       8.967  -0.582  27.215  0.00  0.00    -0.506 OA
ATOM     23  H   UNL     1       9.883  -0.274  27.123  0.00  0.00    +0.292 HD
ENDBRANCH  10  22
BRANCH   6  24
ATOM     24  O   UNL     1       6.022  -4.770  27.291  0.00  0.00    -0.453 OA
BRANCH  24  25
ATOM     25  C   UNL     1       5.118  -4.221  28.277  0.00  0.00    +0.340 C 
ATOM     26  O   UNL     1       5.549  -4.497  29.624  0.00  0.00    -0.331 OA
ATOM     27  C   UNL     1       5.260  -5.776  30.189  0.00  0.00    +0.179 C 
ATOM     28  C   UNL     1       3.797  -6.200  29.990  0.00  0.00    +0.177 C 
ATOM     29  C   UNL     1       3.303  -6.012  28.551  0.00  0.00    +0.180 C 
ATOM     30  C   UNL     1       3.630  -4.602  28.053  0.00  0.00    +0.214 C 
BRANCH  28  31
ATOM     31  O   UNL     1       3.574  -7.536  30.439  0.00  0.00    -0.386 OA
ATOM     32  H   UNL     1       4.448  -7.975  30.470  0.00  0.00    +0.210 HD
ENDBRANCH  28  31
BRANCH  29  33
ATOM     33  O   UNL     1       3.795  -7.036  27.677  0.00  0.00    -0.386 OA
ATOM     34  H   UNL     1       4.073  -7.807  28.221  0.00  0.00    +0.210 HD
ENDBRANCH  29  33
BRANCH  30  35
ATOM     35  O   UNL     1       2.763  -3.681  28.745  0.00  0.00    -0.383 OA
ATOM     36  H   UNL     1       2.906  -2.786  28.382  0.00  0.00    +0.210 HD
ENDBRANCH  30  35
BRANCH  27  37
ATOM     37  C   UNL     1       6.315  -6.819  29.805  0.00  0.00    +0.190 C 
BRANCH  37  38
ATOM     38  O   UNL     1       5.935  -7.561  28.650  0.00  0.00    -0.392 OA
ATOM     39  H   UNL     1       6.371  -7.112  27.894  0.00  0.00    +0.210 HD
ENDBRANCH  37  38
ENDBRANCH  27  37
ENDBRANCH  24  25
ENDBRANCH   6  24
BRANCH   1  40
ATOM     40  O   UNL     1       8.121   1.417  23.061  0.00  0.00    -0.461 OA
BRANCH  40  44
ATOM     41  C   UNL     1       5.825   4.634  24.844  0.00  0.00    +0.041 C 
ATOM     42  C   UNL     1       6.282   4.573  23.390  0.00  0.00    +0.150 C 
ATOM     43  O   UNL     1       6.631   3.242  22.993  0.00  0.00    -0.334 OA
ATOM     44  C   UNL     1       7.842   2.730  23.559  0.00  0.00    +0.339 C 
ATOM     45  C   UNL     1       9.048   3.617  23.170  0.00  0.00    +0.214 C 
ATOM     46  C   UNL     1       8.787   5.092  23.505  0.00  0.00    +0.180 C 
ATOM     47  C   UNL     1       7.409   5.549  23.015  0.00  0.00    +0.174 C 
BRANCH  47  48
ATOM     48  O   UNL     1       7.456   5.639  21.575  0.00  0.00    -0.387 OA
ATOM     49  H   UNL     1       7.313   6.572  21.323  0.00  0.00    +0.210 HD
ENDBRANCH  47  48
BRANCH  46  50
ATOM     50  O   UNL     1       8.976   5.333  24.908  0.00  0.00    -0.386 OA
ATOM     51  H   UNL     1       8.248   4.949  25.423  0.00  0.00    +0.210 HD
ENDBRANCH  46  50
BRANCH  45  52
ATOM     52  O   UNL     1      10.245   3.175  23.833  0.00  0.00    -0.383 OA
ATOM     53  H   UNL     1      10.631   3.945  24.293  0.00  0.00    +0.210 HD
ENDBRANCH  45  52
ENDBRANCH  40  44
ENDBRANCH   1  40
TORSDOF 16
ENDMDL
MODEL 6
REMARK VINA RESULT:      -7.2      1.976      3.305
REMARK  Name = 
REMARK  17 active torsions:
REMARK  status: ('A' for Active; 'I' for Inactive)
REMARK    1  A    between atoms: C_1  and  C_2
REMARK    2  A    between atoms: C_4  and  O_53
REMARK    3  A    between atoms: C_6  and  O_52
REMARK    4  A    between atoms: C_8  and  O_51
REMARK    5  A    between atoms: C_10  and  O_13
REMARK    6  A    between atoms: O_13  and  C_14
REMARK    7  A    between atoms: C_16  and  O_50
REMARK    8  A    between atoms: C_21  and  C_42
REMARK    9  A    between atoms: C_22  and  O_25
REMARK   10  A    between atoms: O_25  and  C_26
REMARK   11  A    between atoms: C_28  and  O_41
REMARK   12  A    between atoms: C_30  and  O_40
REMARK   13  A    between atoms: C_32  and  O_39
REMARK   14  A    between atoms: C_34  and  C_37
REMARK   15  A    between atoms: C_37  and  O_38
REMARK   16  A    between atoms: C_44  and  O_49
REMARK   17  A    between atoms: C_45  and  O_48
REMARK                            x       y       z     vdW  Elec       q    Type
REMARK                         _______ _______ _______ _____ _____    ______ ____
ROOT
ATOM      1  C   UNL     1       6.959  -3.901  24.361  0.00  0.00    +0.131 A 
ATOM      2  C   UNL     1       6.529  -2.873  25.207  0.00  0.00    +0.093 A 
ATOM      3  C   UNL     1       7.237  -1.669  25.247  0.00  0.00    +0.147 A 
ATOM      4  O   UNL     1       6.805  -0.683  26.102  0.00  0.00    -0.451 OA
ATOM      5  C   UNL     1       7.315   0.606  25.927  0.00  0.00    +0.181 A 
ATOM      6  C   UNL     1       8.403   0.902  25.180  0.00  0.00    +0.214 A 
ATOM      7  C   UNL     1       9.156  -0.296  24.694  0.00  0.00    +0.238 A 
ATOM      8  O   UNL     1      10.374  -0.301  24.585  0.00  0.00    -0.283 OA
ATOM      9  C   UNL     1       8.371  -1.506  24.462  0.00  0.00    +0.109 A 
ATOM     10  C   UNL     1       8.761  -2.500  23.568  0.00  0.00    +0.135 A 
ATOM     11  C   UNL     1       8.055  -3.696  23.518  0.00  0.00    +0.092 A 
ENDROOT
BRANCH   5  12
ATOM     12  C   UNL     1       6.593   1.591  26.753  0.00  0.00    +0.025 A 
ATOM     13  C   UNL     1       5.187   1.641  26.661  0.00  0.00    +0.015 A 
ATOM     14  C   UNL     1       4.454   2.615  27.344  0.00  0.00    +0.050 A 
ATOM     15  C   UNL     1       5.128   3.534  28.131  0.00  0.00    +0.158 A 
ATOM     16  C   UNL     1       6.516   3.492  28.244  0.00  0.00    +0.159 A 
ATOM     17  C   UNL     1       7.259   2.528  27.559  0.00  0.00    +0.060 A 
BRANCH  15  18
ATOM     18  O   UNL     1       4.412   4.494  28.786  0.00  0.00    -0.503 OA
ATOM     19  H   UNL     1       3.916   4.958  28.083  0.00  0.00    +0.292 HD
ENDBRANCH  15  18
BRANCH  16  20
ATOM     20  O   UNL     1       7.105   4.432  29.041  0.00  0.00    -0.503 OA
ATOM     21  H   UNL     1       7.761   4.913  28.509  0.00  0.00    +0.292 HD
ENDBRANCH  16  20
ENDBRANCH   5  12
BRANCH  10  22
ATOM     22  O   UNL     1       9.811  -2.299  22.720  0.00  0.00    -0.506 OA
ATOM     23  H   UNL     1       9.853  -3.015  22.065  0.00  0.00    +0.292 HD
ENDBRANCH  10  22
BRANCH   6  24
ATOM     24  O   UNL     1       8.867   2.202  24.970  0.00  0.00    -0.453 OA
BRANCH  24  25
ATOM     25  C   UNL     1       9.251   2.516  23.613  0.00  0.00    +0.340 C 
ATOM     26  O   UNL     1       9.533   3.918  23.437  0.00  0.00    -0.331 OA
ATOM     27  C   UNL     1       8.441   4.819  23.249  0.00  0.00    +0.179 C 
ATOM     28  C   UNL     1       7.436   4.330  22.194  0.00  0.00    +0.177 C 
ATOM     29  C   UNL     1       7.029   2.864  22.381  0.00  0.00    +0.180 C 
ATOM     30  C   UNL     1       8.269   1.980  22.537  0.00  0.00    +0.214 C 
BRANCH  28  31
ATOM     31  O   UNL     1       6.290   5.178  22.130  0.00  0.00    -0.386 OA
ATOM     32  H   UNL     1       6.107   5.476  23.044  0.00  0.00    +0.210 HD
ENDBRANCH  28  31
BRANCH  29  33
ATOM     33  O   UNL     1       6.093   2.700  23.452  0.00  0.00    -0.386 OA
ATOM     34  H   UNL     1       5.666   1.818  23.366  0.00  0.00    +0.210 HD
ENDBRANCH  29  33
BRANCH  30  35
ATOM     35  O   UNL     1       8.919   1.905  21.252  0.00  0.00    -0.383 OA
ATOM     36  H   UNL     1       8.978   2.805  20.880  0.00  0.00    +0.210 HD
ENDBRANCH  30  35
BRANCH  27  37
ATOM     37  C   UNL     1       7.839   5.269  24.585  0.00  0.00    +0.190 C 
BRANCH  37  38
ATOM     38  O   UNL     1       8.776   5.164  25.654  0.00  0.00    -0.392 OA
ATOM     39  H   UNL     1       8.345   5.592  26.425  0.00  0.00    +0.210 HD
ENDBRANCH  37  38
ENDBRANCH  27  37
ENDBRANCH  24  25
ENDBRANCH   6  24
BRANCH   1  40
ATOM     40  O   UNL     1       6.429  -5.155  24.262  0.00  0.00    -0.461 OA
BRANCH  40  44
ATOM     41  C   UNL     1       3.072  -5.893  26.904  0.00  0.00    +0.041 C 
ATOM     42  C   UNL     1       3.610  -6.869  25.862  0.00  0.00    +0.150 C 
ATOM     43  O   UNL     1       4.943  -6.540  25.457  0.00  0.00    -0.334 OA
ATOM     44  C   UNL     1       5.067  -5.365  24.649  0.00  0.00    +0.339 C 
ATOM     45  C   UNL     1       4.252  -5.508  23.342  0.00  0.00    +0.214 C 
ATOM     46  C   UNL     1       2.798  -5.907  23.633  0.00  0.00    +0.180 C 
ATOM     47  C   UNL     1       2.716  -7.069  24.628  0.00  0.00    +0.174 C 
BRANCH  47  48
ATOM     48  O   UNL     1       3.158  -8.265  23.951  0.00  0.00    -0.387 OA
ATOM     49  H   UNL     1       3.160  -8.088  22.990  0.00  0.00    +0.210 HD
ENDBRANCH  47  48
BRANCH  46  50
ATOM     50  O   UNL     1       2.037  -4.766  24.062  0.00  0.00    -0.386 OA
ATOM     51  H   UNL     1       1.966  -4.746  25.030  0.00  0.00    +0.210 HD
ENDBRANCH  46  50
BRANCH  45  52
ATOM     52  O   UNL     1       4.277  -4.287  22.585  0.00  0.00    -0.383 OA
ATOM     53  H   UNL     1       5.194  -3.954  22.589  0.00  0.00    +0.210 HD
ENDBRANCH  45  52
ENDBRANCH  40  44
ENDBRANCH   1  40
TORSDOF 16
ENDMDL
MODEL 7
REMARK VINA RESULT:      -7.1      2.792      4.461
REMARK  Name = 
REMARK  17 active torsions:
REMARK  status: ('A' for Active; 'I' for Inactive)
REMARK    1  A    between atoms: C_1  and  C_2
REMARK    2  A    between atoms: C_4  and  O_53
REMARK    3  A    between atoms: C_6  and  O_52
REMARK    4  A    between atoms: C_8  and  O_51
REMARK    5  A    between atoms: C_10  and  O_13
REMARK    6  A    between atoms: O_13  and  C_14
REMARK    7  A    between atoms: C_16  and  O_50
REMARK    8  A    between atoms: C_21  and  C_42
REMARK    9  A    between atoms: C_22  and  O_25
REMARK   10  A    between atoms: O_25  and  C_26
REMARK   11  A    between atoms: C_28  and  O_41
REMARK   12  A    between atoms: C_30  and  O_40
REMARK   13  A    between atoms: C_32  and  O_39
REMARK   14  A    between atoms: C_34  and  C_37
REMARK   15  A    between atoms: C_37  and  O_38
REMARK   16  A    between atoms: C_44  and  O_49
REMARK   17  A    between atoms: C_45  and  O_48
REMARK                            x       y       z     vdW  Elec       q    Type
REMARK                         _______ _______ _______ _____ _____    ______ ____
ROOT
ATOM      1  C   UNL     1       8.306  -3.574  25.564  0.00  0.00    +0.131 A 
ATOM      2  C   UNL     1       7.731  -2.535  26.305  0.00  0.00    +0.093 A 
ATOM      3  C   UNL     1       7.939  -1.210  25.912  0.00  0.00    +0.147 A 
ATOM      4  O   UNL     1       7.380  -0.208  26.669  0.00  0.00    -0.451 OA
ATOM      5  C   UNL     1       7.328   1.076  26.121  0.00  0.00    +0.181 A 
ATOM      6  C   UNL     1       8.032   1.473  25.038  0.00  0.00    +0.214 A 
ATOM      7  C   UNL     1       9.042   0.475  24.564  0.00  0.00    +0.238 A 
ATOM      8  O   UNL     1      10.118   0.810  24.090  0.00  0.00    -0.283 OA
ATOM      9  C   UNL     1       8.724  -0.932  24.803  0.00  0.00    +0.109 A 
ATOM     10  C   UNL     1       9.239  -1.964  24.022  0.00  0.00    +0.135 A 
ATOM     11  C   UNL     1       9.029  -3.284  24.403  0.00  0.00    +0.092 A 
ENDROOT
BRANCH   5  12
ATOM     12  C   UNL     1       6.501   1.982  26.940  0.00  0.00    +0.025 A 
ATOM     13  C   UNL     1       5.099   1.886  26.838  0.00  0.00    +0.015 A 
ATOM     14  C   UNL     1       4.264   2.780  27.514  0.00  0.00    +0.050 A 
ATOM     15  C   UNL     1       4.833   3.764  28.304  0.00  0.00    +0.158 A 
ATOM     16  C   UNL     1       6.217   3.866  28.428  0.00  0.00    +0.159 A 
ATOM     17  C   UNL     1       7.061   2.983  27.750  0.00  0.00    +0.060 A 
BRANCH  15  18
ATOM     18  O   UNL     1       4.017   4.645  28.953  0.00  0.00    -0.503 OA
ATOM     19  H   UNL     1       4.451   5.514  28.842  0.00  0.00    +0.292 HD
ENDBRANCH  15  18
BRANCH  16  20
ATOM     20  O   UNL     1       6.700   4.863  29.227  0.00  0.00    -0.503 OA
ATOM     21  H   UNL     1       7.005   4.465  30.060  0.00  0.00    +0.292 HD
ENDBRANCH  16  20
ENDBRANCH   5  12
BRANCH  10  22
ATOM     22  O   UNL     1       9.922  -1.693  22.873  0.00  0.00    -0.506 OA
ATOM     23  H   UNL     1      10.679  -1.115  23.062  0.00  0.00    +0.292 HD
ENDBRANCH  10  22
BRANCH   6  24
ATOM     24  O   UNL     1       7.927   2.744  24.468  0.00  0.00    -0.453 OA
BRANCH  24  25
ATOM     25  C   UNL     1       7.111   2.829  23.279  0.00  0.00    +0.340 C 
ATOM     26  O   UNL     1       7.677   3.713  22.292  0.00  0.00    -0.331 OA
ATOM     27  C   UNL     1       7.473   5.120  22.433  0.00  0.00    +0.179 C 
ATOM     28  C   UNL     1       6.008   5.487  22.715  0.00  0.00    +0.177 C 
ATOM     29  C   UNL     1       5.373   4.637  23.821  0.00  0.00    +0.180 C 
ATOM     30  C   UNL     1       5.617   3.149  23.558  0.00  0.00    +0.214 C 
BRANCH  28  31
ATOM     31  O   UNL     1       5.862   6.880  22.990  0.00  0.00    -0.386 OA
ATOM     32  H   UNL     1       6.453   7.085  23.742  0.00  0.00    +0.210 HD
ENDBRANCH  28  31
BRANCH  29  33
ATOM     33  O   UNL     1       5.802   5.046  25.125  0.00  0.00    -0.386 OA
ATOM     34  H   UNL     1       5.100   4.817  25.774  0.00  0.00    +0.210 HD
ENDBRANCH  29  33
BRANCH  30  35
ATOM     35  O   UNL     1       4.800   2.762  22.435  0.00  0.00    -0.383 OA
ATOM     36  H   UNL     1       5.316   2.886  21.616  0.00  0.00    +0.210 HD
ENDBRANCH  30  35
BRANCH  27  37
ATOM     37  C   UNL     1       8.512   5.753  23.367  0.00  0.00    +0.190 C 
BRANCH  37  38
ATOM     38  O   UNL     1       9.750   5.048  23.343  0.00  0.00    -0.392 OA
ATOM     39  H   UNL     1      10.242   5.408  22.574  0.00  0.00    +0.210 HD
ENDBRANCH  37  38
ENDBRANCH  27  37
ENDBRANCH  24  25
ENDBRANCH   6  24
BRANCH   1  40
ATOM     40  O   UNL     1       8.265  -4.907  25.856  0.00  0.00    -0.461 OA
BRANCH  40  44
ATOM     41  C   UNL     1       4.654  -6.847  24.442  0.00  0.00    +0.041 C 
ATOM     42  C   UNL     1       4.720  -5.475  25.106  0.00  0.00    +0.150 C 
ATOM     43  O   UNL     1       6.042  -4.925  25.071  0.00  0.00    -0.334 OA
ATOM     44  C   UNL     1       6.994  -5.561  25.931  0.00  0.00    +0.339 C 
ATOM     45  C   UNL     1       6.541  -5.480  27.408  0.00  0.00    +0.214 C 
ATOM     46  C   UNL     1       5.108  -6.002  27.581  0.00  0.00    +0.180 C 
ATOM     47  C   UNL     1       4.158  -5.410  26.535  0.00  0.00    +0.174 C 
BRANCH  47  48
ATOM     48  O   UNL     1       3.944  -4.021  26.863  0.00  0.00    -0.387 OA
ATOM     49  H   UNL     1       4.017  -3.499  26.041  0.00  0.00    +0.210 HD
ENDBRANCH  47  48
BRANCH  46  50
ATOM     50  O   UNL     1       5.090  -7.438  27.585  0.00  0.00    -0.386 OA
ATOM     51  H   UNL     1       5.544  -7.784  28.370  0.00  0.00    +0.210 HD
ENDBRANCH  46  50
BRANCH  45  52
ATOM     52  O   UNL     1       7.432  -6.219  28.260  0.00  0.00    -0.383 OA
ATOM     53  H   UNL     1       7.294  -5.907  29.175  0.00  0.00    +0.210 HD
ENDBRANCH  45  52
ENDBRANCH  40  44
ENDBRANCH   1  40
TORSDOF 16
ENDMDL
MODEL 8
REMARK VINA RESULT:      -7.1      2.366      9.284
REMARK  Name = 
REMARK  17 active torsions:
REMARK  status: ('A' for Active; 'I' for Inactive)
REMARK    1  A    between atoms: C_1  and  C_2
REMARK    2  A    between atoms: C_4  and  O_53
REMARK    3  A    between atoms: C_6  and  O_52
REMARK    4  A    between atoms: C_8  and  O_51
REMARK    5  A    between atoms: C_10  and  O_13
REMARK    6  A    between atoms: O_13  and  C_14
REMARK    7  A    between atoms: C_16  and  O_50
REMARK    8  A    between atoms: C_21  and  C_42
REMARK    9  A    between atoms: C_22  and  O_25
REMARK   10  A    between atoms: O_25  and  C_26
REMARK   11  A    between atoms: C_28  and  O_41
REMARK   12  A    between atoms: C_30  and  O_40
REMARK   13  A    between atoms: C_32  and  O_39
REMARK   14  A    between atoms: C_34  and  C_37
REMARK   15  A    between atoms: C_37  and  O_38
REMARK   16  A    between atoms: C_44  and  O_49
REMARK   17  A    between atoms: C_45  and  O_48
REMARK                            x       y       z     vdW  Elec       q    Type
REMARK                         _______ _______ _______ _____ _____    ______ ____
ROOT
ATOM      1  C   UNL     1       9.341   1.263  23.622  0.00  0.00    +0.131 A 
ATOM      2  C   UNL     1       8.293   1.212  24.547  0.00  0.00    +0.093 A 
ATOM      3  C   UNL     1       7.413   0.127  24.535  0.00  0.00    +0.147 A 
ATOM      4  O   UNL     1       6.379   0.111  25.441  0.00  0.00    -0.451 OA
ATOM      5  C   UNL     1       5.694  -1.091  25.632  0.00  0.00    +0.181 A 
ATOM      6  C   UNL     1       5.772  -2.156  24.803  0.00  0.00    +0.214 A 
ATOM      7  C   UNL     1       6.513  -1.888  23.531  0.00  0.00    +0.238 A 
ATOM      8  O   UNL     1       6.194  -2.403  22.468  0.00  0.00    -0.283 OA
ATOM      9  C   UNL     1       7.574  -0.885  23.597  0.00  0.00    +0.109 A 
ATOM     10  C   UNL     1       8.657  -0.873  22.722  0.00  0.00    +0.135 A 
ATOM     11  C   UNL     1       9.540   0.200  22.735  0.00  0.00    +0.092 A 
ENDROOT
BRANCH   5  12
ATOM     12  C   UNL     1       4.780  -1.015  26.787  0.00  0.00    +0.025 A 
ATOM     13  C   UNL     1       3.927   0.101  26.895  0.00  0.00    +0.015 A 
ATOM     14  C   UNL     1       3.109   0.278  28.014  0.00  0.00    +0.050 A 
ATOM     15  C   UNL     1       3.136  -0.669  29.023  0.00  0.00    +0.158 A 
ATOM     16  C   UNL     1       3.964  -1.786  28.928  0.00  0.00    +0.159 A 
ATOM     17  C   UNL     1       4.792  -1.969  27.818  0.00  0.00    +0.060 A 
BRANCH  15  18
ATOM     18  O   UNL     1       2.348  -0.488  30.123  0.00  0.00    -0.503 OA
ATOM     19  H   UNL     1       1.602  -1.108  29.998  0.00  0.00    +0.292 HD
ENDBRANCH  15  18
BRANCH  16  20
ATOM     20  O   UNL     1       3.933  -2.675  29.965  0.00  0.00    -0.503 OA
ATOM     21  H   UNL     1       3.043  -2.655  30.356  0.00  0.00    +0.292 HD
ENDBRANCH  16  20
ENDBRANCH   5  12
BRANCH  10  22
ATOM     22  O   UNL     1       8.877  -1.918  21.872  0.00  0.00    -0.506 OA
ATOM     23  H   UNL     1       8.179  -1.951  21.198  0.00  0.00    +0.292 HD
ENDBRANCH  10  22
BRANCH   6  24
ATOM     24  O   UNL     1       5.124  -3.371  25.038  0.00  0.00    -0.453 OA
BRANCH  24  25
ATOM     25  C   UNL     1       5.989  -4.504  25.270  0.00  0.00    +0.340 C 
ATOM     26  O   UNL     1       5.999  -5.418  24.156  0.00  0.00    -0.331 OA
ATOM     27  C   UNL     1       4.933  -6.361  24.032  0.00  0.00    +0.179 C 
ATOM     28  C   UNL     1       4.638  -7.106  25.343  0.00  0.00    +0.177 C 
ATOM     29  C   UNL     1       4.529  -6.175  26.556  0.00  0.00    +0.180 C 
ATOM     30  C   UNL     1       5.733  -5.232  26.617  0.00  0.00    +0.214 C 
BRANCH  28  31
ATOM     31  O   UNL     1       3.482  -7.934  25.225  0.00  0.00    -0.386 OA
ATOM     32  H   UNL     1       3.798  -8.860  25.207  0.00  0.00    +0.210 HD
ENDBRANCH  28  31
BRANCH  29  33
ATOM     33  O   UNL     1       3.278  -5.478  26.586  0.00  0.00    -0.386 OA
ATOM     34  H   UNL     1       3.126  -5.064  25.707  0.00  0.00    +0.210 HD
ENDBRANCH  29  33
BRANCH  30  35
ATOM     35  O   UNL     1       6.883  -6.014  26.996  0.00  0.00    -0.383 OA
ATOM     36  H   UNL     1       6.576  -6.818  27.455  0.00  0.00    +0.210 HD
ENDBRANCH  30  35
BRANCH  27  37
ATOM     37  C   UNL     1       3.718  -5.754  23.321  0.00  0.00    +0.190 C 
BRANCH  37  38
ATOM     38  O   UNL     1       4.060  -4.579  22.592  0.00  0.00    -0.392 OA
ATOM     39  H   UNL     1       5.027  -4.642  22.431  0.00  0.00    +0.210 HD
ENDBRANCH  37  38
ENDBRANCH  27  37
ENDBRANCH  24  25
ENDBRANCH   6  24
BRANCH   1  40
ATOM     40  O   UNL     1      10.234   2.282  23.452  0.00  0.00    -0.461 OA
BRANCH  40  44
ATOM     41  C   UNL     1       8.097   5.274  25.750  0.00  0.00    +0.041 C 
ATOM     42  C   UNL     1       8.113   5.171  24.228  0.00  0.00    +0.150 C 
ATOM     43  O   UNL     1       8.529   3.876  23.782  0.00  0.00    -0.334 OA
ATOM     44  C   UNL     1       9.916   3.577  23.973  0.00  0.00    +0.339 C 
ATOM     45  C   UNL     1      10.806   4.590  23.217  0.00  0.00    +0.214 C 
ATOM     46  C   UNL     1      10.432   6.036  23.573  0.00  0.00    +0.180 C 
ATOM     47  C   UNL     1       8.919   6.263  23.506  0.00  0.00    +0.174 C 
BRANCH  47  48
ATOM     48  O   UNL     1       8.529   6.254  22.116  0.00  0.00    -0.387 OA
ATOM     49  H   UNL     1       7.701   6.766  22.029  0.00  0.00    +0.210 HD
ENDBRANCH  47  48
BRANCH  46  50
ATOM     50  O   UNL     1      10.984   6.401  24.847  0.00  0.00    -0.386 OA
ATOM     51  H   UNL     1      11.731   5.826  25.075  0.00  0.00    +0.210 HD
ENDBRANCH  46  50
BRANCH  45  52
ATOM     52  O   UNL     1      12.197   4.365  23.502  0.00  0.00    -0.383 OA
ATOM     53  H   UNL     1      12.257   3.980  24.397  0.00  0.00    +0.210 HD
ENDBRANCH  45  52
ENDBRANCH  40  44
ENDBRANCH   1  40
TORSDOF 16
ENDMDL
MODEL 9
REMARK VINA RESULT:      -7.0      2.500      9.493
REMARK  Name = 
REMARK  17 active torsions:
REMARK  status: ('A' for Active; 'I' for Inactive)
REMARK    1  A    between atoms: C_1  and  C_2
REMARK    2  A    between atoms: C_4  and  O_53
REMARK    3  A    between atoms: C_6  and  O_52
REMARK    4  A    between atoms: C_8  and  O_51
REMARK    5  A    between atoms: C_10  and  O_13
REMARK    6  A    between atoms: O_13  and  C_14
REMARK    7  A    between atoms: C_16  and  O_50
REMARK    8  A    between atoms: C_21  and  C_42
REMARK    9  A    between atoms: C_22  and  O_25
REMARK   10  A    between atoms: O_25  and  C_26
REMARK   11  A    between atoms: C_28  and  O_41
REMARK   12  A    between atoms: C_30  and  O_40
REMARK   13  A    between atoms: C_32  and  O_39
REMARK   14  A    between atoms: C_34  and  C_37
REMARK   15  A    between atoms: C_37  and  O_38
REMARK   16  A    between atoms: C_44  and  O_49
REMARK   17  A    between atoms: C_45  and  O_48
REMARK                            x       y       z     vdW  Elec       q    Type
REMARK                         _______ _______ _______ _____ _____    ______ ____
ROOT
ATOM      1  C   UNL     1       7.734  -0.947  23.572  0.00  0.00    +0.131 A 
ATOM      2  C   UNL     1       6.854  -1.998  23.290  0.00  0.00    +0.093 A 
ATOM      3  C   UNL     1       6.620  -2.980  24.255  0.00  0.00    +0.147 A 
ATOM      4  O   UNL     1       5.767  -4.013  23.945  0.00  0.00    -0.451 OA
ATOM      5  C   UNL     1       5.301  -4.814  24.990  0.00  0.00    +0.181 A 
ATOM      6  C   UNL     1       5.836  -4.838  26.231  0.00  0.00    +0.214 A 
ATOM      7  C   UNL     1       7.114  -4.071  26.362  0.00  0.00    +0.238 A 
ATOM      8  O   UNL     1       8.023  -4.436  27.095  0.00  0.00    -0.283 OA
ATOM      9  C   UNL     1       7.271  -2.917  25.479  0.00  0.00    +0.109 A 
ATOM     10  C   UNL     1       8.091  -1.835  25.790  0.00  0.00    +0.135 A 
ATOM     11  C   UNL     1       8.322  -0.851  24.837  0.00  0.00    +0.092 A 
ENDROOT
BRANCH   5  12
ATOM     12  C   UNL     1       4.226  -5.718  24.541  0.00  0.00    +0.025 A 
ATOM     13  C   UNL     1       3.288  -5.233  23.607  0.00  0.00    +0.015 A 
ATOM     14  C   UNL     1       2.193  -6.008  23.216  0.00  0.00    +0.050 A 
ATOM     15  C   UNL     1       2.041  -7.276  23.752  0.00  0.00    +0.158 A 
ATOM     16  C   UNL     1       2.965  -7.777  24.667  0.00  0.00    +0.159 A 
ATOM     17  C   UNL     1       4.059  -7.008  25.071  0.00  0.00    +0.060 A 
BRANCH  15  18
ATOM     18  O   UNL     1       0.963  -8.026  23.381  0.00  0.00    -0.503 OA
ATOM     19  H   UNL     1       0.211  -7.640  23.871  0.00  0.00    +0.292 HD
ENDBRANCH  15  18
BRANCH  16  20
ATOM     20  O   UNL     1       2.746  -9.036  25.149  0.00  0.00    -0.503 OA
ATOM     21  H   UNL     1       1.795  -9.132  25.326  0.00  0.00    +0.292 HD
ENDBRANCH  16  20
ENDBRANCH   5  12
BRANCH  10  22
ATOM     22  O   UNL     1       8.647  -1.718  27.030  0.00  0.00    -0.506 OA
ATOM     23  H   UNL     1       7.975  -1.876  27.714  0.00  0.00    +0.292 HD
ENDBRANCH  10  22
BRANCH   6  24
ATOM     24  O   UNL     1       5.323  -5.603  27.281  0.00  0.00    -0.453 OA
BRANCH  24  25
ATOM     25  C   UNL     1       5.062  -4.885  28.507  0.00  0.00    +0.340 C 
ATOM     26  O   UNL     1       4.695  -5.765  29.587  0.00  0.00    -0.331 OA
ATOM     27  C   UNL     1       3.346  -6.228  29.667  0.00  0.00    +0.179 C 
ATOM     28  C   UNL     1       2.316  -5.099  29.514  0.00  0.00    +0.177 C 
ATOM     29  C   UNL     1       2.604  -4.175  28.325  0.00  0.00    +0.180 C 
ATOM     30  C   UNL     1       4.062  -3.708  28.351  0.00  0.00    +0.214 C 
BRANCH  28  31
ATOM     31  O   UNL     1       0.984  -5.609  29.458  0.00  0.00    -0.386 OA
ATOM     32  H   UNL     1       1.049  -6.539  29.160  0.00  0.00    +0.210 HD
ENDBRANCH  28  31
BRANCH  29  33
ATOM     33  O   UNL     1       2.237  -4.776  27.077  0.00  0.00    -0.386 OA
ATOM     34  H   UNL     1       1.645  -4.160  26.592  0.00  0.00    +0.210 HD
ENDBRANCH  29  33
BRANCH  30  35
ATOM     35  O   UNL     1       4.204  -2.776  29.441  0.00  0.00    -0.383 OA
ATOM     36  H   UNL     1       5.098  -2.387  29.404  0.00  0.00    +0.210 HD
ENDBRANCH  30  35
BRANCH  27  37
ATOM     37  C   UNL     1       3.116  -7.464  28.790  0.00  0.00    +0.190 C 
BRANCH  37  38
ATOM     38  O   UNL     1       2.106  -8.316  29.324  0.00  0.00    -0.392 OA
ATOM     39  H   UNL     1       1.253  -7.922  29.040  0.00  0.00    +0.210 HD
ENDBRANCH  37  38
ENDBRANCH  27  37
ENDBRANCH  24  25
ENDBRANCH   6  24
BRANCH   1  40
ATOM     40  O   UNL     1       8.129   0.042  22.717  0.00  0.00    -0.461 OA
BRANCH  40  44
ATOM     41  C   UNL     1       7.147   3.384  25.301  0.00  0.00    +0.041 C 
ATOM     42  C   UNL     1       6.398   2.998  24.029  0.00  0.00    +0.150 C 
ATOM     43  O   UNL     1       6.667   1.648  23.636  0.00  0.00    -0.334 OA
ATOM     44  C   UNL     1       7.982   1.408  23.122  0.00  0.00    +0.339 C 
ATOM     45  C   UNL     1       8.248   2.273  21.868  0.00  0.00    +0.214 C 
ATOM     46  C   UNL     1       7.953   3.755  22.140  0.00  0.00    +0.180 C 
ATOM     47  C   UNL     1       6.601   3.946  22.836  0.00  0.00    +0.174 C 
BRANCH  47  48
ATOM     48  O   UNL     1       5.563   3.672  21.871  0.00  0.00    -0.387 OA
ATOM     49  H   UNL     1       5.586   2.718  21.661  0.00  0.00    +0.210 HD
ENDBRANCH  47  48
BRANCH  46  50
ATOM     50  O   UNL     1       9.032   4.360  22.869  0.00  0.00    -0.386 OA
ATOM     51  H   UNL     1       9.355   3.762  23.562  0.00  0.00    +0.210 HD
ENDBRANCH  46  50
BRANCH  45  52
ATOM     52  O   UNL     1       9.606   2.124  21.421  0.00  0.00    -0.383 OA
ATOM     53  H   UNL     1      10.124   1.757  22.162  0.00  0.00    +0.210 HD
ENDBRANCH  45  52
ENDBRANCH  40  44
ENDBRANCH   1  40
TORSDOF 16
ENDMDL
