MODEL 1
REMARK VINA RESULT:      -7.1      0.000      0.000
REMARK  Name = 
REMARK  24 active torsions:
REMARK  status: ('A' for Active; 'I' for Inactive)
REMARK    1  A    between atoms: C_3  and  O_70
REMARK    2  A    between atoms: C_4  and  O_69
REMARK    3  A    between atoms: C_6  and  C_7
REMARK    4  A    between atoms: C_8  and  O_52
REMARK    5  A    between atoms: C_12  and  O_51
REMARK    6  A    between atoms: C_14  and  O_18
REMARK    7  A    between atoms: O_18  and  C_19
REMARK    8  A    between atoms: C_21  and  O_50
REMARK    9  A    between atoms: C_23  and  O_49
REMARK   10  A    between atoms: C_25  and  O_48
REMARK   11  A    between atoms: C_27  and  C_30
REMARK   12  A    between atoms: C_30  and  O_31
REMARK   13  A    between atoms: O_31  and  C_32
REMARK   14  A    between atoms: C_34  and  O_47
REMARK   15  A    between atoms: C_36  and  O_46
REMARK   16  A    between atoms: C_38  and  O_45
REMARK   17  A    between atoms: C_40  and  C_43
REMARK   18  A    between atoms: C_43  and  O_44
REMARK   19  A    between atoms: O_52  and  C_53
REMARK   20  A    between atoms: C_55  and  O_68
REMARK   21  A    between atoms: C_57  and  O_67
REMARK   22  A    between atoms: C_59  and  O_66
REMARK   23  A    between atoms: C_61  and  C_64
REMARK   24  A    between atoms: C_64  and  O_65
REMARK                            x       y       z     vdW  Elec       q    Type
REMARK                         _______ _______ _______ _____ _____    ______ ____
ROOT
ATOM      1  C   UNL     1       4.569  -2.519  25.358  0.00  0.00    +0.181 A 
ATOM      2  O   UNL     1       5.000  -1.259  24.935  0.00  0.00    -0.451 OA
ATOM      3  C   UNL     1       4.868  -0.179  25.769  0.00  0.00    +0.147 A 
ATOM      4  C   UNL     1       4.069  -0.219  26.901  0.00  0.00    +0.109 A 
ATOM      5  C   UNL     1       3.886   0.952  27.656  0.00  0.00    +0.135 A 
ATOM      6  C   UNL     1       4.567   2.138  27.311  0.00  0.00    +0.092 A 
ATOM      7  C   UNL     1       5.426   2.153  26.212  0.00  0.00    +0.131 A 
ATOM      8  C   UNL     1       3.466  -1.505  27.275  0.00  0.00    +0.238 A 
ATOM      9  O   UNL     1       2.642  -1.551  28.184  0.00  0.00    -0.283 OA
ATOM     10  C   UNL     1       5.545   0.999  25.419  0.00  0.00    +0.093 A 
ATOM     11  C   UNL     1       3.927  -2.725  26.536  0.00  0.00    +0.214 A 
ENDROOT
BRANCH   1  13
ATOM     12  C   UNL     1       6.191  -3.685  23.813  0.00  0.00    +0.015 A 
ATOM     13  C   UNL     1       4.895  -3.591  24.365  0.00  0.00    +0.025 A 
ATOM     14  C   UNL     1       3.929  -4.492  23.884  0.00  0.00    +0.060 A 
ATOM     15  C   UNL     1       4.252  -5.455  22.938  0.00  0.00    +0.159 A 
ATOM     16  C   UNL     1       5.518  -5.496  22.375  0.00  0.00    +0.158 A 
ATOM     17  C   UNL     1       6.499  -4.617  22.810  0.00  0.00    +0.050 A 
BRANCH  16  18
ATOM     18  O   UNL     1       5.740  -6.399  21.375  0.00  0.00    -0.503 OA
ATOM     19  H   UNL     1       4.963  -6.395  20.789  0.00  0.00    +0.292 HD
ENDBRANCH  16  18
BRANCH  15  20
ATOM     20  O   UNL     1       3.297  -6.352  22.551  0.00  0.00    -0.503 OA
ATOM     21  H   UNL     1       3.053  -6.072  21.645  0.00  0.00    +0.292 HD
ENDBRANCH  15  20
ENDBRANCH   1  13
BRANCH   5  22
ATOM     22  O   UNL     1       3.082   1.006  28.756  0.00  0.00    -0.506 OA
ATOM     23  H   UNL     1       3.089   1.934  29.100  0.00  0.00    +0.292 HD
ENDBRANCH   5  22
BRANCH  11  24
ATOM     24  O   UNL     1       3.619  -3.977  27.083  0.00  0.00    -0.453 OA
BRANCH  24  25
ATOM     25  C   UNL     1       4.317  -4.193  28.327  0.00  0.00    +0.340 C 
ATOM     26  O   UNL     1       5.745  -4.227  28.191  0.00  0.00    -0.331 OA
ATOM     27  C   UNL     1       6.469  -5.461  28.054  0.00  0.00    +0.179 C 
ATOM     28  C   UNL     1       5.797  -6.748  28.577  0.00  0.00    +0.177 C 
ATOM     29  C   UNL     1       4.269  -6.697  28.488  0.00  0.00    +0.180 C 
ATOM     30  C   UNL     1       3.773  -5.390  29.108  0.00  0.00    +0.214 C 
BRANCH  30  31
ATOM     31  O   UNL     1       4.224  -5.303  30.482  0.00  0.00    -0.383 OA
ATOM     32  H   UNL     1       4.245  -6.219  30.839  0.00  0.00    +0.210 HD
ENDBRANCH  30  31
BRANCH  29  33
ATOM     33  O   UNL     1       3.785  -6.881  27.163  0.00  0.00    -0.386 OA
ATOM     34  H   UNL     1       3.802  -6.024  26.683  0.00  0.00    +0.210 HD
ENDBRANCH  29  33
BRANCH  28  35
ATOM     35  O   UNL     1       6.217  -6.934  29.947  0.00  0.00    -0.386 OA
ATOM     36  H   UNL     1       5.507  -7.407  30.427  0.00  0.00    +0.210 HD
ENDBRANCH  28  35
BRANCH  27  37
ATOM     37  C   UNL     1       6.992  -5.629  26.625  0.00  0.00    +0.190 C 
BRANCH  37  38
ATOM     38  O   UNL     1       8.386  -5.917  26.637  0.00  0.00    -0.392 OA
ATOM     39  H   UNL     1       8.461  -6.880  26.774  0.00  0.00    +0.210 HD
ENDBRANCH  37  38
ENDBRANCH  27  37
ENDBRANCH  24  25
ENDBRANCH  11  24
BRANCH   7  40
ATOM     40  O   UNL     1       6.078   3.343  25.958  0.00  0.00    -0.461 OA
BRANCH  40  41
ATOM     41  C   UNL     1       5.634   4.008  24.760  0.00  0.00    +0.339 C 
ATOM     42  O   UNL     1       6.084   3.345  23.572  0.00  0.00    -0.331 OA
ATOM     43  C   UNL     1       7.288   3.754  22.917  0.00  0.00    +0.179 C 
ATOM     44  C   UNL     1       7.446   5.286  22.857  0.00  0.00    +0.177 C 
ATOM     45  C   UNL     1       7.282   5.922  24.236  0.00  0.00    +0.180 C 
ATOM     46  C   UNL     1       5.935   5.527  24.849  0.00  0.00    +0.214 C 
BRANCH  46  47
ATOM     47  O   UNL     1       4.882   6.263  24.198  0.00  0.00    -0.383 OA
ATOM     48  H   UNL     1       4.056   5.754  24.350  0.00  0.00    +0.210 HD
ENDBRANCH  46  47
BRANCH  45  49
ATOM     49  O   UNL     1       8.401   5.617  25.062  0.00  0.00    -0.386 OA
ATOM     50  H   UNL     1       8.108   5.490  25.984  0.00  0.00    +0.210 HD
ENDBRANCH  45  49
BRANCH  44  51
ATOM     51  O   UNL     1       6.431   5.817  21.984  0.00  0.00    -0.386 OA
ATOM     52  H   UNL     1       6.268   6.741  22.255  0.00  0.00    +0.210 HD
ENDBRANCH  44  51
BRANCH  43  53
ATOM     53  C   UNL     1       8.552   3.030  23.440  0.00  0.00    +0.197 C 
BRANCH  53  54
ATOM     54  O   UNL     1       8.411   1.667  23.881  0.00  0.00    -0.346 OA
BRANCH  54  55
ATOM     55  C   UNL     1       8.391   0.645  22.882  0.00  0.00    +0.282 C 
ATOM     56  O   UNL     1       7.851  -0.571  23.418  0.00  0.00    -0.341 OA
ATOM     57  C   UNL     1       8.652  -1.345  24.325  0.00  0.00    +0.178 C 
ATOM     58  C   UNL     1      10.110  -1.530  23.855  0.00  0.00    +0.177 C 
ATOM     59  C   UNL     1      10.716  -0.232  23.299  0.00  0.00    +0.179 C 
ATOM     60  C   UNL     1       9.780   0.391  22.251  0.00  0.00    +0.201 C 
BRANCH  60  61
ATOM     61  O   UNL     1       9.674  -0.457  21.100  0.00  0.00    -0.384 OA
ATOM     62  H   UNL     1       9.920   0.091  20.322  0.00  0.00    +0.210 HD
ENDBRANCH  60  61
BRANCH  59  63
ATOM     63  O   UNL     1      11.034   0.677  24.354  0.00  0.00    -0.386 OA
ATOM     64  H   UNL     1      10.562   0.391  25.163  0.00  0.00    +0.210 HD
ENDBRANCH  59  63
BRANCH  58  65
ATOM     65  O   UNL     1      10.120  -2.528  22.817  0.00  0.00    -0.386 OA
ATOM     66  H   UNL     1      10.712  -2.204  22.112  0.00  0.00    +0.210 HD
ENDBRANCH  58  65
BRANCH  57  67
ATOM     67  C   UNL     1       8.591  -0.866  25.788  0.00  0.00    +0.190 C 
BRANCH  67  68
ATOM     68  O   UNL     1       7.742  -1.677  26.594  0.00  0.00    -0.392 OA
ATOM     69  H   UNL     1       7.604  -2.523  26.138  0.00  0.00    +0.210 HD
ENDBRANCH  67  68
ENDBRANCH  57  67
ENDBRANCH  54  55
ENDBRANCH  53  54
ENDBRANCH  43  53
ENDBRANCH  40  41
ENDBRANCH   7  40
TORSDOF 24
ENDMDL
MODEL 2
REMARK VINA RESULT:      -7.0      1.979      3.626
REMARK  Name = 
REMARK  24 active torsions:
REMARK  status: ('A' for Active; 'I' for Inactive)
REMARK    1  A    between atoms: C_3  and  O_70
REMARK    2  A    between atoms: C_4  and  O_69
REMARK    3  A    between atoms: C_6  and  C_7
REMARK    4  A    between atoms: C_8  and  O_52
REMARK    5  A    between atoms: C_12  and  O_51
REMARK    6  A    between atoms: C_14  and  O_18
REMARK    7  A    between atoms: O_18  and  C_19
REMARK    8  A    between atoms: C_21  and  O_50
REMARK    9  A    between atoms: C_23  and  O_49
REMARK   10  A    between atoms: C_25  and  O_48
REMARK   11  A    between atoms: C_27  and  C_30
REMARK   12  A    between atoms: C_30  and  O_31
REMARK   13  A    between atoms: O_31  and  C_32
REMARK   14  A    between atoms: C_34  and  O_47
REMARK   15  A    between atoms: C_36  and  O_46
REMARK   16  A    between atoms: C_38  and  O_45
REMARK   17  A    between atoms: C_40  and  C_43
REMARK   18  A    between atoms: C_43  and  O_44
REMARK   19  A    between atoms: O_52  and  C_53
REMARK   20  A    between atoms: C_55  and  O_68
REMARK   21  A    between atoms: C_57  and  O_67
REMARK   22  A    between atoms: C_59  and  O_66
REMARK   23  A    between atoms: C_61  and  C_64
REMARK   24  A    between atoms: C_64  and  O_65
REMARK                            x       y       z     vdW  Elec       q    Type
REMARK                         _______ _______ _______ _____ _____    ______ ____
ROOT
ATOM      1  C   UNL     1       5.994  -2.371  26.338  0.00  0.00    +0.181 A 
ATOM      2  O   UNL     1       6.366  -1.029  26.441  0.00  0.00    -0.451 OA
ATOM      3  C   UNL     1       5.432  -0.089  26.796  0.00  0.00    +0.147 A 
ATOM      4  C   UNL     1       4.073  -0.363  26.782  0.00  0.00    +0.109 A 
ATOM      5  C   UNL     1       3.160   0.672  27.048  0.00  0.00    +0.135 A 
ATOM      6  C   UNL     1       3.620   1.956  27.403  0.00  0.00    +0.092 A 
ATOM      7  C   UNL     1       4.989   2.207  27.486  0.00  0.00    +0.131 A 
ATOM      8  C   UNL     1       3.650  -1.743  26.509  0.00  0.00    +0.238 A 
ATOM      9  O   UNL     1       2.460  -1.995  26.347  0.00  0.00    -0.283 OA
ATOM     10  C   UNL     1       5.895   1.188  27.145  0.00  0.00    +0.093 A 
ATOM     11  C   UNL     1       4.714  -2.798  26.480  0.00  0.00    +0.214 A 
ENDROOT
BRANCH   1  13
ATOM     12  C   UNL     1       7.339  -4.464  26.770  0.00  0.00    +0.015 A 
ATOM     13  C   UNL     1       7.164  -3.261  26.053  0.00  0.00    +0.025 A 
ATOM     14  C   UNL     1       8.167  -2.915  25.130  0.00  0.00    +0.060 A 
ATOM     15  C   UNL     1       9.258  -3.745  24.910  0.00  0.00    +0.159 A 
ATOM     16  C   UNL     1       9.434  -4.896  25.662  0.00  0.00    +0.158 A 
ATOM     17  C   UNL     1       8.476  -5.269  26.593  0.00  0.00    +0.050 A 
BRANCH  16  18
ATOM     18  O   UNL     1      10.580  -5.612  25.469  0.00  0.00    -0.503 OA
ATOM     19  H   UNL     1      10.361  -6.386  24.922  0.00  0.00    +0.292 HD
ENDBRANCH  16  18
BRANCH  15  20
ATOM     20  O   UNL     1      10.172  -3.400  23.956  0.00  0.00    -0.503 OA
ATOM     21  H   UNL     1       9.636  -3.024  23.229  0.00  0.00    +0.292 HD
ENDBRANCH  15  20
ENDBRANCH   1  13
BRANCH   5  22
ATOM     22  O   UNL     1       1.808   0.495  27.011  0.00  0.00    -0.506 OA
ATOM     23  H   UNL     1       1.382   1.381  26.906  0.00  0.00    +0.292 HD
ENDBRANCH   5  22
BRANCH  11  24
ATOM     24  O   UNL     1       4.309  -4.137  26.548  0.00  0.00    -0.453 OA
BRANCH  24  25
ATOM     25  C   UNL     1       3.933  -4.641  25.250  0.00  0.00    +0.340 C 
ATOM     26  O   UNL     1       2.551  -5.014  25.152  0.00  0.00    -0.331 OA
ATOM     27  C   UNL     1       2.111  -6.369  25.342  0.00  0.00    +0.179 C 
ATOM     28  C   UNL     1       3.144  -7.494  25.125  0.00  0.00    +0.177 C 
ATOM     29  C   UNL     1       4.574  -7.058  25.457  0.00  0.00    +0.180 C 
ATOM     30  C   UNL     1       4.874  -5.738  24.747  0.00  0.00    +0.214 C 
BRANCH  30  31
ATOM     31  O   UNL     1       4.689  -5.900  23.320  0.00  0.00    -0.383 OA
ATOM     32  H   UNL     1       4.216  -6.752  23.184  0.00  0.00    +0.210 HD
ENDBRANCH  30  31
BRANCH  29  33
ATOM     33  O   UNL     1       4.821  -6.986  26.856  0.00  0.00    -0.386 OA
ATOM     34  H   UNL     1       4.869  -7.893  27.231  0.00  0.00    +0.210 HD
ENDBRANCH  29  33
BRANCH  28  35
ATOM     35  O   UNL     1       3.050  -7.913  23.745  0.00  0.00    -0.386 OA
ATOM     36  H   UNL     1       3.906  -8.312  23.485  0.00  0.00    +0.210 HD
ENDBRANCH  28  35
BRANCH  27  37
ATOM     37  C   UNL     1       1.373  -6.519  26.675  0.00  0.00    +0.190 C 
BRANCH  37  38
ATOM     38  O   UNL     1       2.168  -6.015  27.742  0.00  0.00    -0.392 OA
ATOM     39  H   UNL     1       3.058  -6.394  27.618  0.00  0.00    +0.210 HD
ENDBRANCH  37  38
ENDBRANCH  27  37
ENDBRANCH  24  25
ENDBRANCH  11  24
BRANCH   7  40
ATOM     40  O   UNL     1       5.359   3.482  27.868  0.00  0.00    -0.461 OA
BRANCH  40  41
ATOM     41  C   UNL     1       5.040   4.498  26.898  0.00  0.00    +0.339 C 
ATOM     42  O   UNL     1       5.666   4.255  25.631  0.00  0.00    -0.331 OA
ATOM     43  C   UNL     1       6.923   4.856  25.309  0.00  0.00    +0.179 C 
ATOM     44  C   UNL     1       7.018   6.325  25.765  0.00  0.00    +0.177 C 
ATOM     45  C   UNL     1       6.653   6.482  27.240  0.00  0.00    +0.180 C 
ATOM     46  C   UNL     1       5.259   5.906  27.508  0.00  0.00    +0.214 C 
BRANCH  46  47
ATOM     47  O   UNL     1       4.264   6.812  26.992  0.00  0.00    -0.383 OA
ATOM     48  H   UNL     1       4.659   7.709  27.039  0.00  0.00    +0.210 HD
ENDBRANCH  46  47
BRANCH  45  49
ATOM     49  O   UNL     1       7.672   5.928  28.067  0.00  0.00    -0.386 OA
ATOM     50  H   UNL     1       7.270   5.376  28.764  0.00  0.00    +0.210 HD
ENDBRANCH  45  49
BRANCH  44  51
ATOM     51  O   UNL     1       6.098   7.108  24.980  0.00  0.00    -0.386 OA
ATOM     52  H   UNL     1       5.291   6.571  24.857  0.00  0.00    +0.210 HD
ENDBRANCH  44  51
BRANCH  43  53
ATOM     53  C   UNL     1       8.142   4.004  25.738  0.00  0.00    +0.197 C 
BRANCH  53  54
ATOM     54  O   UNL     1       8.486   2.867  24.925  0.00  0.00    -0.346 OA
BRANCH  54  55
ATOM     55  C   UNL     1       8.904   3.115  23.580  0.00  0.00    +0.282 C 
ATOM     56  O   UNL     1       7.798   2.984  22.677  0.00  0.00    -0.341 OA
ATOM     57  C   UNL     1       7.298   1.671  22.379  0.00  0.00    +0.178 C 
ATOM     58  C   UNL     1       8.409   0.646  22.066  0.00  0.00    +0.177 C 
ATOM     59  C   UNL     1       9.595   0.753  23.037  0.00  0.00    +0.179 C 
ATOM     60  C   UNL     1      10.077   2.209  23.137  0.00  0.00    +0.201 C 
BRANCH  60  61
ATOM     61  O   UNL     1      10.620   2.648  21.885  0.00  0.00    -0.384 OA
ATOM     62  H   UNL     1      10.516   3.626  21.859  0.00  0.00    +0.210 HD
ENDBRANCH  60  61
BRANCH  59  63
ATOM     63  O   UNL     1       9.263   0.202  24.313  0.00  0.00    -0.386 OA
ATOM     64  H   UNL     1       9.122   0.939  24.942  0.00  0.00    +0.210 HD
ENDBRANCH  59  63
BRANCH  58  65
ATOM     65  O   UNL     1       8.881   0.895  20.728  0.00  0.00    -0.386 OA
ATOM     66  H   UNL     1       8.656   0.110  20.194  0.00  0.00    +0.210 HD
ENDBRANCH  58  65
BRANCH  57  67
ATOM     67  C   UNL     1       6.304   1.120  23.418  0.00  0.00    +0.190 C 
BRANCH  67  68
ATOM     68  O   UNL     1       6.281  -0.304  23.453  0.00  0.00    -0.392 OA
ATOM     69  H   UNL     1       5.989  -0.583  24.337  0.00  0.00    +0.210 HD
ENDBRANCH  67  68
ENDBRANCH  57  67
ENDBRANCH  54  55
ENDBRANCH  53  54
ENDBRANCH  43  53
ENDBRANCH  40  41
ENDBRANCH   7  40
TORSDOF 24
ENDMDL
MODEL 3
REMARK VINA RESULT:      -6.9      1.697      8.672
REMARK  Name = 
REMARK  24 active torsions:
REMARK  status: ('A' for Active; 'I' for Inactive)
REMARK    1  A    between atoms: C_3  and  O_70
REMARK    2  A    between atoms: C_4  and  O_69
REMARK    3  A    between atoms: C_6  and  C_7
REMARK    4  A    between atoms: C_8  and  O_52
REMARK    5  A    between atoms: C_12  and  O_51
REMARK    6  A    between atoms: C_14  and  O_18
REMARK    7  A    between atoms: O_18  and  C_19
REMARK    8  A    between atoms: C_21  and  O_50
REMARK    9  A    between atoms: C_23  and  O_49
REMARK   10  A    between atoms: C_25  and  O_48
REMARK   11  A    between atoms: C_27  and  C_30
REMARK   12  A    between atoms: C_30  and  O_31
REMARK   13  A    between atoms: O_31  and  C_32
REMARK   14  A    between atoms: C_34  and  O_47
REMARK   15  A    between atoms: C_36  and  O_46
REMARK   16  A    between atoms: C_38  and  O_45
REMARK   17  A    between atoms: C_40  and  C_43
REMARK   18  A    between atoms: C_43  and  O_44
REMARK   19  A    between atoms: O_52  and  C_53
REMARK   20  A    between atoms: C_55  and  O_68
REMARK   21  A    between atoms: C_57  and  O_67
REMARK   22  A    between atoms: C_59  and  O_66
REMARK   23  A    between atoms: C_61  and  C_64
REMARK   24  A    between atoms: C_64  and  O_65
REMARK                            x       y       z     vdW  Elec       q    Type
REMARK                         _______ _______ _______ _____ _____    ______ ____
ROOT
ATOM      1  C   UNL     1       6.035   1.245  25.291  0.00  0.00    +0.181 A 
ATOM      2  O   UNL     1       5.749  -0.118  25.395  0.00  0.00    -0.451 OA
ATOM      3  C   UNL     1       4.734  -0.540  26.215  0.00  0.00    +0.147 A 
ATOM      4  C   UNL     1       4.162   0.294  27.164  0.00  0.00    +0.109 A 
ATOM      5  C   UNL     1       3.203  -0.227  28.049  0.00  0.00    +0.135 A 
ATOM      6  C   UNL     1       2.768  -1.562  27.926  0.00  0.00    +0.092 A 
ATOM      7  C   UNL     1       3.295  -2.376  26.924  0.00  0.00    +0.131 A 
ATOM      8  C   UNL     1       4.574   1.704  27.181  0.00  0.00    +0.238 A 
ATOM      9  O   UNL     1       4.200   2.438  28.091  0.00  0.00    -0.283 OA
ATOM     10  C   UNL     1       4.308  -1.870  26.091  0.00  0.00    +0.093 A 
ATOM     11  C   UNL     1       5.417   2.191  26.041  0.00  0.00    +0.214 A 
ENDROOT
BRANCH   1  13
ATOM     12  C   UNL     1       6.857   1.259  22.903  0.00  0.00    +0.015 A 
ATOM     13  C   UNL     1       7.094   1.524  24.269  0.00  0.00    +0.025 A 
ATOM     14  C   UNL     1       8.377   1.981  24.618  0.00  0.00    +0.060 A 
ATOM     15  C   UNL     1       9.350   2.198  23.652  0.00  0.00    +0.159 A 
ATOM     16  C   UNL     1       9.110   1.885  22.324  0.00  0.00    +0.158 A 
ATOM     17  C   UNL     1       7.862   1.418  21.936  0.00  0.00    +0.050 A 
BRANCH  16  18
ATOM     18  O   UNL     1      10.142   2.024  21.441  0.00  0.00    -0.503 OA
ATOM     19  H   UNL     1      10.512   2.918  21.552  0.00  0.00    +0.292 HD
ENDBRANCH  16  18
BRANCH  15  20
ATOM     20  O   UNL     1      10.559   2.707  24.031  0.00  0.00    -0.503 OA
ATOM     21  H   UNL     1      10.475   2.841  24.997  0.00  0.00    +0.292 HD
ENDBRANCH  15  20
ENDBRANCH   1  13
BRANCH   5  22
ATOM     22  O   UNL     1       2.626   0.516  29.037  0.00  0.00    -0.506 OA
ATOM     23  H   UNL     1       2.249  -0.102  29.710  0.00  0.00    +0.292 HD
ENDBRANCH   5  22
BRANCH  11  24
ATOM     24  O   UNL     1       5.544   3.575  25.866  0.00  0.00    -0.453 OA
BRANCH  24  25
ATOM     25  C   UNL     1       4.528   4.089  24.981  0.00  0.00    +0.340 C 
ATOM     26  O   UNL     1       4.894   4.050  23.595  0.00  0.00    -0.331 OA
ATOM     27  C   UNL     1       5.462   5.187  22.923  0.00  0.00    +0.179 C 
ATOM     28  C   UNL     1       5.191   6.582  23.525  0.00  0.00    +0.177 C 
ATOM     29  C   UNL     1       5.018   6.549  25.046  0.00  0.00    +0.180 C 
ATOM     30  C   UNL     1       4.008   5.462  25.412  0.00  0.00    +0.214 C 
BRANCH  30  31
ATOM     31  O   UNL     1       2.750   5.723  24.744  0.00  0.00    -0.383 OA
ATOM     32  H   UNL     1       2.238   6.335  25.319  0.00  0.00    +0.210 HD
ENDBRANCH  30  31
BRANCH  29  33
ATOM     33  O   UNL     1       6.251   6.395  25.740  0.00  0.00    -0.386 OA
ATOM     34  H   UNL     1       6.758   5.649  25.352  0.00  0.00    +0.210 HD
ENDBRANCH  29  33
BRANCH  28  35
ATOM     35  O   UNL     1       4.003   7.107  22.893  0.00  0.00    -0.386 OA
ATOM     36  H   UNL     1       3.423   7.481  23.587  0.00  0.00    +0.210 HD
ENDBRANCH  28  35
BRANCH  27  37
ATOM     37  C   UNL     1       6.950   4.965  22.641  0.00  0.00    +0.190 C 
BRANCH  37  38
ATOM     38  O   UNL     1       7.359   5.722  21.507  0.00  0.00    -0.392 OA
ATOM     39  H   UNL     1       6.763   6.493  21.468  0.00  0.00    +0.210 HD
ENDBRANCH  37  38
ENDBRANCH  27  37
ENDBRANCH  24  25
ENDBRANCH  11  24
BRANCH   7  40
ATOM     40  O   UNL     1       2.797  -3.662  26.851  0.00  0.00    -0.461 OA
BRANCH  40  41
ATOM     41  C   UNL     1       3.403  -4.577  27.784  0.00  0.00    +0.339 C 
ATOM     42  O   UNL     1       4.832  -4.604  27.668  0.00  0.00    -0.331 OA
ATOM     43  C   UNL     1       5.481  -5.580  26.849  0.00  0.00    +0.179 C 
ATOM     44  C   UNL     1       4.853  -6.982  26.976  0.00  0.00    +0.177 C 
ATOM     45  C   UNL     1       3.342  -6.943  26.758  0.00  0.00    +0.180 C 
ATOM     46  C   UNL     1       2.688  -5.952  27.726  0.00  0.00    +0.214 C 
BRANCH  46  47
ATOM     47  O   UNL     1       2.651  -6.530  29.045  0.00  0.00    -0.383 OA
ATOM     48  H   UNL     1       2.064  -7.314  28.985  0.00  0.00    +0.210 HD
ENDBRANCH  46  47
BRANCH  45  49
ATOM     49  O   UNL     1       3.042  -6.690  25.388  0.00  0.00    -0.386 OA
ATOM     50  H   UNL     1       2.525  -5.868  25.308  0.00  0.00    +0.210 HD
ENDBRANCH  45  49
BRANCH  44  51
ATOM     51  O   UNL     1       5.111  -7.480  28.303  0.00  0.00    -0.386 OA
ATOM     52  H   UNL     1       4.990  -8.449  28.278  0.00  0.00    +0.210 HD
ENDBRANCH  44  51
BRANCH  43  53
ATOM     53  C   UNL     1       5.670  -5.127  25.381  0.00  0.00    +0.197 C 
BRANCH  53  54
ATOM     54  O   UNL     1       6.520  -3.992  25.133  0.00  0.00    -0.346 OA
BRANCH  54  55
ATOM     55  C   UNL     1       7.168  -3.914  23.861  0.00  0.00    +0.282 C 
ATOM     56  O   UNL     1       8.358  -4.715  23.853  0.00  0.00    -0.341 OA
ATOM     57  C   UNL     1       9.511  -4.250  24.572  0.00  0.00    +0.178 C 
ATOM     58  C   UNL     1       9.828  -2.759  24.330  0.00  0.00    +0.177 C 
ATOM     59  C   UNL     1       8.569  -1.880  24.358  0.00  0.00    +0.179 C 
ATOM     60  C   UNL     1       7.487  -2.462  23.435  0.00  0.00    +0.201 C 
BRANCH  60  61
ATOM     61  O   UNL     1       7.909  -2.410  22.066  0.00  0.00    -0.384 OA
ATOM     62  H   UNL     1       7.652  -1.524  21.725  0.00  0.00    +0.210 HD
ENDBRANCH  60  61
BRANCH  59  63
ATOM     63  O   UNL     1       8.101  -1.698  25.696  0.00  0.00    -0.386 OA
ATOM     64  H   UNL     1       8.738  -1.125  26.171  0.00  0.00    +0.210 HD
ENDBRANCH  59  63
BRANCH  58  65
ATOM     65  O   UNL     1      10.447  -2.640  23.035  0.00  0.00    -0.386 OA
ATOM     66  H   UNL     1      10.887  -1.770  23.005  0.00  0.00    +0.210 HD
ENDBRANCH  58  65
BRANCH  57  67
ATOM     67  C   UNL     1       9.494  -4.582  26.076  0.00  0.00    +0.190 C 
BRANCH  67  68
ATOM     68  O   UNL     1       8.858  -5.826  26.355  0.00  0.00    -0.392 OA
ATOM     69  H   UNL     1       7.922  -5.752  26.109  0.00  0.00    +0.210 HD
ENDBRANCH  67  68
ENDBRANCH  57  67
ENDBRANCH  54  55
ENDBRANCH  53  54
ENDBRANCH  43  53
ENDBRANCH  40  41
ENDBRANCH   7  40
TORSDOF 24
ENDMDL
MODEL 4
REMARK VINA RESULT:      -6.9      2.147      3.647
REMARK  Name = 
REMARK  24 active torsions:
REMARK  status: ('A' for Active; 'I' for Inactive)
REMARK    1  A    between atoms: C_3  and  O_70
REMARK    2  A    between atoms: C_4  and  O_69
REMARK    3  A    between atoms: C_6  and  C_7
REMARK    4  A    between atoms: C_8  and  O_52
REMARK    5  A    between atoms: C_12  and  O_51
REMARK    6  A    between atoms: C_14  and  O_18
REMARK    7  A    between atoms: O_18  and  C_19
REMARK    8  A    between atoms: C_21  and  O_50
REMARK    9  A    between atoms: C_23  and  O_49
REMARK   10  A    between atoms: C_25  and  O_48
REMARK   11  A    between atoms: C_27  and  C_30
REMARK   12  A    between atoms: C_30  and  O_31
REMARK   13  A    between atoms: O_31  and  C_32
REMARK   14  A    between atoms: C_34  and  O_47
REMARK   15  A    between atoms: C_36  and  O_46
REMARK   16  A    between atoms: C_38  and  O_45
REMARK   17  A    between atoms: C_40  and  C_43
REMARK   18  A    between atoms: C_43  and  O_44
REMARK   19  A    between atoms: O_52  and  C_53
REMARK   20  A    between atoms: C_55  and  O_68
REMARK   21  A    between atoms: C_57  and  O_67
REMARK   22  A    between atoms: C_59  and  O_66
REMARK   23  A    between atoms: C_61  and  C_64
REMARK   24  A    between atoms: C_64  and  O_65
REMARK                            x       y       z     vdW  Elec       q    Type
REMARK                         _______ _______ _______ _____ _____    ______ ____
ROOT
ATOM      1  C   UNL     1       4.312  -1.553  26.820  0.00  0.00    +0.181 A 
ATOM      2  O   UNL     1       3.630  -0.340  26.708  0.00  0.00    -0.451 OA
ATOM      3  C   UNL     1       4.329   0.839  26.737  0.00  0.00    +0.147 A 
ATOM      4  C   UNL     1       5.649   0.900  27.157  0.00  0.00    +0.109 A 
ATOM      5  C   UNL     1       6.278   2.151  27.271  0.00  0.00    +0.135 A 
ATOM      6  C   UNL     1       5.602   3.328  26.889  0.00  0.00    +0.092 A 
ATOM      7  C   UNL     1       4.299   3.254  26.399  0.00  0.00    +0.131 A 
ATOM      8  C   UNL     1       6.341  -0.364  27.443  0.00  0.00    +0.238 A 
ATOM      9  O   UNL     1       7.458  -0.347  27.951  0.00  0.00    -0.283 OA
ATOM     10  C   UNL     1       3.651   2.007  26.359  0.00  0.00    +0.093 A 
ATOM     11  C   UNL     1       5.646  -1.635  27.055  0.00  0.00    +0.214 A 
ENDROOT
BRANCH   1  13
ATOM     12  C   UNL     1       2.938  -3.441  27.782  0.00  0.00    +0.015 A 
ATOM     13  C   UNL     1       3.402  -2.731  26.653  0.00  0.00    +0.025 A 
ATOM     14  C   UNL     1       3.032  -3.226  25.390  0.00  0.00    +0.060 A 
ATOM     15  C   UNL     1       2.214  -4.340  25.267  0.00  0.00    +0.159 A 
ATOM     16  C   UNL     1       1.812  -5.050  26.387  0.00  0.00    +0.158 A 
ATOM     17  C   UNL     1       2.165  -4.606  27.653  0.00  0.00    +0.050 A 
BRANCH  16  18
ATOM     18  O   UNL     1       1.095  -6.196  26.191  0.00  0.00    -0.503 OA
ATOM     19  H   UNL     1       1.719  -6.900  25.940  0.00  0.00    +0.292 HD
ENDBRANCH  16  18
BRANCH  15  20
ATOM     20  O   UNL     1       1.826  -4.744  24.021  0.00  0.00    -0.503 OA
ATOM     21  H   UNL     1       2.355  -5.549  23.849  0.00  0.00    +0.292 HD
ENDBRANCH  15  20
ENDBRANCH   1  13
BRANCH   5  22
ATOM     22  O   UNL     1       7.559   2.299  27.717  0.00  0.00    -0.506 OA
ATOM     23  H   UNL     1       7.528   2.704  28.619  0.00  0.00    +0.292 HD
ENDBRANCH   5  22
BRANCH  11  24
ATOM     24  O   UNL     1       6.406  -2.810  27.015  0.00  0.00    -0.453 OA
BRANCH  24  25
ATOM     25  C   UNL     1       7.134  -2.924  25.775  0.00  0.00    +0.340 C 
ATOM     26  O   UNL     1       6.458  -3.700  24.776  0.00  0.00    -0.331 OA
ATOM     27  C   UNL     1       6.732  -5.097  24.580  0.00  0.00    +0.179 C 
ATOM     28  C   UNL     1       8.098  -5.633  25.060  0.00  0.00    +0.177 C 
ATOM     29  C   UNL     1       8.644  -4.867  26.268  0.00  0.00    +0.180 C 
ATOM     30  C   UNL     1       8.584  -3.367  25.979  0.00  0.00    +0.214 C 
BRANCH  30  31
ATOM     31  O   UNL     1       9.342  -3.071  24.781  0.00  0.00    -0.383 OA
ATOM     32  H   UNL     1       8.719  -2.668  24.136  0.00  0.00    +0.210 HD
ENDBRANCH  30  31
BRANCH  29  33
ATOM     33  O   UNL     1       7.988  -5.208  27.483  0.00  0.00    -0.386 OA
ATOM     34  H   UNL     1       8.444  -4.775  28.238  0.00  0.00    +0.210 HD
ENDBRANCH  29  33
BRANCH  28  35
ATOM     35  O   UNL     1       9.016  -5.544  23.948  0.00  0.00    -0.386 OA
ATOM     36  H   UNL     1       8.911  -4.666  23.529  0.00  0.00    +0.210 HD
ENDBRANCH  28  35
BRANCH  27  37
ATOM     37  C   UNL     1       5.571  -5.956  25.087  0.00  0.00    +0.190 C 
BRANCH  37  38
ATOM     38  O   UNL     1       5.359  -5.734  26.477  0.00  0.00    -0.392 OA
ATOM     39  H   UNL     1       6.236  -5.539  26.856  0.00  0.00    +0.210 HD
ENDBRANCH  37  38
ENDBRANCH  27  37
ENDBRANCH  24  25
ENDBRANCH  11  24
BRANCH   7  40
ATOM     40  O   UNL     1       3.716   4.447  26.019  0.00  0.00    -0.461 OA
BRANCH  40  41
ATOM     41  C   UNL     1       3.211   4.446  24.669  0.00  0.00    +0.339 C 
ATOM     42  O   UNL     1       4.059   3.717  23.773  0.00  0.00    -0.331 OA
ATOM     43  C   UNL     1       5.065   4.386  23.008  0.00  0.00    +0.179 C 
ATOM     44  C   UNL     1       4.583   5.732  22.433  0.00  0.00    +0.177 C 
ATOM     45  C   UNL     1       3.978   6.623  23.515  0.00  0.00    +0.180 C 
ATOM     46  C   UNL     1       2.843   5.889  24.237  0.00  0.00    +0.214 C 
BRANCH  46  47
ATOM     47  O   UNL     1       1.683   5.852  23.383  0.00  0.00    -0.383 OA
ATOM     48  H   UNL     1       1.599   6.749  22.995  0.00  0.00    +0.210 HD
ENDBRANCH  46  47
BRANCH  45  49
ATOM     49  O   UNL     1       4.994   7.108  24.388  0.00  0.00    -0.386 OA
ATOM     50  H   UNL     1       5.371   6.369  24.901  0.00  0.00    +0.210 HD
ENDBRANCH  45  49
BRANCH  44  51
ATOM     51  O   UNL     1       3.574   5.469  21.439  0.00  0.00    -0.386 OA
ATOM     52  H   UNL     1       3.734   6.080  20.694  0.00  0.00    +0.210 HD
ENDBRANCH  44  51
BRANCH  43  53
ATOM     53  C   UNL     1       6.427   4.487  23.737  0.00  0.00    +0.197 C 
BRANCH  53  54
ATOM     54  O   UNL     1       7.226   3.294  23.836  0.00  0.00    -0.346 OA
BRANCH  54  55
ATOM     55  C   UNL     1       8.032   2.939  22.710  0.00  0.00    +0.282 C 
ATOM     56  O   UNL     1       7.505   1.773  22.062  0.00  0.00    -0.341 OA
ATOM     57  C   UNL     1       7.666   0.495  22.697  0.00  0.00    +0.178 C 
ATOM     58  C   UNL     1       9.092   0.249  23.234  0.00  0.00    +0.177 C 
ATOM     59  C   UNL     1       9.666   1.479  23.953  0.00  0.00    +0.179 C 
ATOM     60  C   UNL     1       9.520   2.731  23.075  0.00  0.00    +0.201 C 
BRANCH  60  61
ATOM     61  O   UNL     1      10.327   2.617  21.895  0.00  0.00    -0.384 OA
ATOM     62  H   UNL     1      10.296   3.492  21.446  0.00  0.00    +0.210 HD
ENDBRANCH  60  61
BRANCH  59  63
ATOM     63  O   UNL     1       9.068   1.646  25.241  0.00  0.00    -0.386 OA
ATOM     64  H   UNL     1       8.578   0.827  25.462  0.00  0.00    +0.210 HD
ENDBRANCH  59  63
BRANCH  58  65
ATOM     65  O   UNL     1       9.940  -0.072  22.116  0.00  0.00    -0.386 OA
ATOM     66  H   UNL     1       9.662  -0.947  21.786  0.00  0.00    +0.210 HD
ENDBRANCH  58  65
BRANCH  57  67
ATOM     67  C   UNL     1       6.602   0.181  23.765  0.00  0.00    +0.190 C 
BRANCH  67  68
ATOM     68  O   UNL     1       5.451   1.011  23.652  0.00  0.00    -0.392 OA
ATOM     69  H   UNL     1       4.695   0.541  24.041  0.00  0.00    +0.210 HD
ENDBRANCH  67  68
ENDBRANCH  57  67
ENDBRANCH  54  55
ENDBRANCH  53  54
ENDBRANCH  43  53
ENDBRANCH  40  41
ENDBRANCH   7  40
TORSDOF 24
ENDMDL
MODEL 5
REMARK VINA RESULT:      -6.9      1.657      2.744
REMARK  Name = 
REMARK  24 active torsions:
REMARK  status: ('A' for Active; 'I' for Inactive)
REMARK    1  A    between atoms: C_3  and  O_70
REMARK    2  A    between atoms: C_4  and  O_69
REMARK    3  A    between atoms: C_6  and  C_7
REMARK    4  A    between atoms: C_8  and  O_52
REMARK    5  A    between atoms: C_12  and  O_51
REMARK    6  A    between atoms: C_14  and  O_18
REMARK    7  A    between atoms: O_18  and  C_19
REMARK    8  A    between atoms: C_21  and  O_50
REMARK    9  A    between atoms: C_23  and  O_49
REMARK   10  A    between atoms: C_25  and  O_48
REMARK   11  A    between atoms: C_27  and  C_30
REMARK   12  A    between atoms: C_30  and  O_31
REMARK   13  A    between atoms: O_31  and  C_32
REMARK   14  A    between atoms: C_34  and  O_47
REMARK   15  A    between atoms: C_36  and  O_46
REMARK   16  A    between atoms: C_38  and  O_45
REMARK   17  A    between atoms: C_40  and  C_43
REMARK   18  A    between atoms: C_43  and  O_44
REMARK   19  A    between atoms: O_52  and  C_53
REMARK   20  A    between atoms: C_55  and  O_68
REMARK   21  A    between atoms: C_57  and  O_67
REMARK   22  A    between atoms: C_59  and  O_66
REMARK   23  A    between atoms: C_61  and  C_64
REMARK   24  A    between atoms: C_64  and  O_65
REMARK                            x       y       z     vdW  Elec       q    Type
REMARK                         _______ _______ _______ _____ _____    ______ ____
ROOT
ATOM      1  C   UNL     1       5.773  -2.399  26.402  0.00  0.00    +0.181 A 
ATOM      2  O   UNL     1       6.003  -1.132  25.861  0.00  0.00    -0.451 OA
ATOM      3  C   UNL     1       5.215  -0.076  26.241  0.00  0.00    +0.147 A 
ATOM      4  C   UNL     1       4.020  -0.259  26.920  0.00  0.00    +0.109 A 
ATOM      5  C   UNL     1       3.202   0.853  27.185  0.00  0.00    +0.135 A 
ATOM      6  C   UNL     1       3.626   2.151  26.834  0.00  0.00    +0.092 A 
ATOM      7  C   UNL     1       4.862   2.337  26.216  0.00  0.00    +0.131 A 
ATOM      8  C   UNL     1       3.675  -1.619  27.356  0.00  0.00    +0.238 A 
ATOM      9  O   UNL     1       2.566  -1.844  27.831  0.00  0.00    -0.283 OA
ATOM     10  C   UNL     1       5.640   1.213  25.887  0.00  0.00    +0.093 A 
ATOM     11  C   UNL     1       4.732  -2.673  27.229  0.00  0.00    +0.214 A 
ENDROOT
BRANCH   1  13
ATOM     12  C   UNL     1       7.871  -3.745  26.808  0.00  0.00    +0.015 A 
ATOM     13  C   UNL     1       6.798  -3.398  25.959  0.00  0.00    +0.025 A 
ATOM     14  C   UNL     1       6.786  -3.970  24.675  0.00  0.00    +0.060 A 
ATOM     15  C   UNL     1       7.769  -4.868  24.280  0.00  0.00    +0.159 A 
ATOM     16  C   UNL     1       8.839  -5.155  25.112  0.00  0.00    +0.158 A 
ATOM     17  C   UNL     1       8.898  -4.603  26.383  0.00  0.00    +0.050 A 
BRANCH  16  18
ATOM     18  O   UNL     1       9.824  -5.965  24.624  0.00  0.00    -0.503 OA
ATOM     19  H   UNL     1      10.483  -6.093  25.328  0.00  0.00    +0.292 HD
ENDBRANCH  16  18
BRANCH  15  20
ATOM     20  O   UNL     1       7.678  -5.450  23.048  0.00  0.00    -0.503 OA
ATOM     21  H   UNL     1       8.595  -5.723  22.839  0.00  0.00    +0.292 HD
ENDBRANCH  15  20
ENDBRANCH   1  13
BRANCH   5  22
ATOM     22  O   UNL     1       1.993   0.752  27.808  0.00  0.00    -0.506 OA
ATOM     23  H   UNL     1       1.912   1.498  28.451  0.00  0.00    +0.292 HD
ENDBRANCH   5  22
BRANCH  11  24
ATOM     24  O   UNL     1       4.546  -3.874  27.925  0.00  0.00    -0.453 OA
BRANCH  24  25
ATOM     25  C   UNL     1       4.066  -4.919  27.054  0.00  0.00    +0.340 C 
ATOM     26  O   UNL     1       2.648  -4.883  26.834  0.00  0.00    -0.331 OA
ATOM     27  C   UNL     1       1.735  -5.682  27.605  0.00  0.00    +0.179 C 
ATOM     28  C   UNL     1       2.294  -6.948  28.288  0.00  0.00    +0.177 C 
ATOM     29  C   UNL     1       3.769  -6.812  28.675  0.00  0.00    +0.180 C 
ATOM     30  C   UNL     1       4.560  -6.306  27.468  0.00  0.00    +0.214 C 
BRANCH  30  31
ATOM     31  O   UNL     1       4.388  -7.220  26.357  0.00  0.00    -0.383 OA
ATOM     32  H   UNL     1       4.613  -6.725  25.538  0.00  0.00    +0.210 HD
ENDBRANCH  30  31
BRANCH  29  33
ATOM     33  O   UNL     1       3.967  -6.000  29.826  0.00  0.00    -0.386 OA
ATOM     34  H   UNL     1       4.646  -5.316  29.636  0.00  0.00    +0.210 HD
ENDBRANCH  29  33
BRANCH  28  35
ATOM     35  O   UNL     1       2.111  -8.053  27.375  0.00  0.00    -0.386 OA
ATOM     36  H   UNL     1       2.374  -8.878  27.832  0.00  0.00    +0.210 HD
ENDBRANCH  28  35
BRANCH  27  37
ATOM     37  C   UNL     1       0.939  -4.810  28.579  0.00  0.00    +0.190 C 
BRANCH  37  38
ATOM     38  O   UNL     1       1.820  -4.092  29.437  0.00  0.00    -0.392 OA
ATOM     39  H   UNL     1       2.452  -3.635  28.852  0.00  0.00    +0.210 HD
ENDBRANCH  37  38
ENDBRANCH  27  37
ENDBRANCH  24  25
ENDBRANCH  11  24
BRANCH   7  40
ATOM     40  O   UNL     1       5.218   3.640  25.931  0.00  0.00    -0.461 OA
BRANCH  40  41
ATOM     41  C   UNL     1       4.511   4.206  24.810  0.00  0.00    +0.339 C 
ATOM     42  O   UNL     1       4.972   3.685  23.558  0.00  0.00    -0.331 OA
ATOM     43  C   UNL     1       5.976   4.370  22.804  0.00  0.00    +0.179 C 
ATOM     44  C   UNL     1       5.777   5.898  22.792  0.00  0.00    +0.177 C 
ATOM     45  C   UNL     1       5.619   6.456  24.205  0.00  0.00    +0.180 C 
ATOM     46  C   UNL     1       4.469   5.752  24.931  0.00  0.00    +0.214 C 
BRANCH  46  47
ATOM     47  O   UNL     1       3.214   6.239  24.418  0.00  0.00    -0.383 OA
ATOM     48  H   UNL     1       3.401   6.589  23.520  0.00  0.00    +0.210 HD
ENDBRANCH  46  47
BRANCH  45  49
ATOM     49  O   UNL     1       6.859   6.401  24.904  0.00  0.00    -0.386 OA
ATOM     50  H   UNL     1       7.566   6.792  24.357  0.00  0.00    +0.210 HD
ENDBRANCH  45  49
BRANCH  44  51
ATOM     51  O   UNL     1       4.581   6.197  22.046  0.00  0.00    -0.386 OA
ATOM     52  H   UNL     1       3.827   6.119  22.662  0.00  0.00    +0.210 HD
ENDBRANCH  44  51
BRANCH  43  53
ATOM     53  C   UNL     1       7.419   3.946  23.171  0.00  0.00    +0.197 C 
BRANCH  53  54
ATOM     54  O   UNL     1       7.639   2.576  23.556  0.00  0.00    -0.346 OA
BRANCH  54  55
ATOM     55  C   UNL     1       7.600   1.583  22.529  0.00  0.00    +0.282 C 
ATOM     56  O   UNL     1       7.654   0.268  23.099  0.00  0.00    -0.341 OA
ATOM     57  C   UNL     1       8.900  -0.204  23.637  0.00  0.00    +0.178 C 
ATOM     58  C   UNL     1      10.109   0.066  22.717  0.00  0.00    +0.177 C 
ATOM     59  C   UNL     1      10.083   1.479  22.113  0.00  0.00    +0.179 C 
ATOM     60  C   UNL     1       8.715   1.763  21.473  0.00  0.00    +0.201 C 
BRANCH  60  61
ATOM     61  O   UNL     1       8.498   0.906  20.345  0.00  0.00    -0.384 OA
ATOM     62  H   UNL     1       7.547   0.988  20.108  0.00  0.00    +0.210 HD
ENDBRANCH  60  61
BRANCH  59  63
ATOM     63  O   UNL     1      10.441   2.459  23.090  0.00  0.00    -0.386 OA
ATOM     64  H   UNL     1      11.020   2.035  23.756  0.00  0.00    +0.210 HD
ENDBRANCH  59  63
BRANCH  58  65
ATOM     65  O   UNL     1      10.077  -0.896  21.646  0.00  0.00    -0.386 OA
ATOM     66  H   UNL     1       9.799  -1.748  22.032  0.00  0.00    +0.210 HD
ENDBRANCH  58  65
BRANCH  57  67
ATOM     67  C   UNL     1       9.181   0.256  25.080  0.00  0.00    +0.190 C 
BRANCH  67  68
ATOM     68  O   UNL     1      10.561   0.520  25.312  0.00  0.00    -0.392 OA
ATOM     69  H   UNL     1      10.643   1.006  26.149  0.00  0.00    +0.210 HD
ENDBRANCH  67  68
ENDBRANCH  57  67
ENDBRANCH  54  55
ENDBRANCH  53  54
ENDBRANCH  43  53
ENDBRANCH  40  41
ENDBRANCH   7  40
TORSDOF 24
ENDMDL
MODEL 6
REMARK VINA RESULT:      -6.8      2.102     10.006
REMARK  Name = 
REMARK  24 active torsions:
REMARK  status: ('A' for Active; 'I' for Inactive)
REMARK    1  A    between atoms: C_3  and  O_70
REMARK    2  A    between atoms: C_4  and  O_69
REMARK    3  A    between atoms: C_6  and  C_7
REMARK    4  A    between atoms: C_8  and  O_52
REMARK    5  A    between atoms: C_12  and  O_51
REMARK    6  A    between atoms: C_14  and  O_18
REMARK    7  A    between atoms: O_18  and  C_19
REMARK    8  A    between atoms: C_21  and  O_50
REMARK    9  A    between atoms: C_23  and  O_49
REMARK   10  A    between atoms: C_25  and  O_48
REMARK   11  A    between atoms: C_27  and  C_30
REMARK   12  A    between atoms: C_30  and  O_31
REMARK   13  A    between atoms: O_31  and  C_32
REMARK   14  A    between atoms: C_34  and  O_47
REMARK   15  A    between atoms: C_36  and  O_46
REMARK   16  A    between atoms: C_38  and  O_45
REMARK   17  A    between atoms: C_40  and  C_43
REMARK   18  A    between atoms: C_43  and  O_44
REMARK   19  A    between atoms: O_52  and  C_53
REMARK   20  A    between atoms: C_55  and  O_68
REMARK   21  A    between atoms: C_57  and  O_67
REMARK   22  A    between atoms: C_59  and  O_66
REMARK   23  A    between atoms: C_61  and  C_64
REMARK   24  A    between atoms: C_64  and  O_65
REMARK                            x       y       z     vdW  Elec       q    Type
REMARK                         _______ _______ _______ _____ _____    ______ ____
ROOT
ATOM      1  C   UNL     1       6.352   2.217  23.179  0.00  0.00    +0.181 A 
ATOM      2  O   UNL     1       5.921   0.890  23.245  0.00  0.00    -0.451 OA
ATOM      3  C   UNL     1       6.806  -0.126  22.992  0.00  0.00    +0.147 A 
ATOM      4  C   UNL     1       8.037   0.104  22.397  0.00  0.00    +0.109 A 
ATOM      5  C   UNL     1       8.854  -0.989  22.062  0.00  0.00    +0.135 A 
ATOM      6  C   UNL     1       8.464  -2.302  22.397  0.00  0.00    +0.092 A 
ATOM      7  C   UNL     1       7.257  -2.521  23.060  0.00  0.00    +0.131 A 
ATOM      8  C   UNL     1       8.442   1.497  22.165  0.00  0.00    +0.238 A 
ATOM      9  O   UNL     1       9.455   1.737  21.515  0.00  0.00    -0.283 OA
ATOM     10  C   UNL     1       6.411  -1.430  23.324  0.00  0.00    +0.093 A 
ATOM     11  C   UNL     1       7.599   2.573  22.780  0.00  0.00    +0.214 A 
ENDROOT
BRANCH   1  13
ATOM     12  C   UNL     1       4.654   4.007  22.639  0.00  0.00    +0.015 A 
ATOM     13  C   UNL     1       5.282   3.180  23.595  0.00  0.00    +0.025 A 
ATOM     14  C   UNL     1       4.910   3.360  24.939  0.00  0.00    +0.060 A 
ATOM     15  C   UNL     1       3.939   4.284  25.297  0.00  0.00    +0.159 A 
ATOM     16  C   UNL     1       3.372   5.120  24.348  0.00  0.00    +0.158 A 
ATOM     17  C   UNL     1       3.719   4.986  23.011  0.00  0.00    +0.050 A 
BRANCH  16  18
ATOM     18  O   UNL     1       2.500   6.077  24.782  0.00  0.00    -0.503 OA
ATOM     19  H   UNL     1       1.730   5.626  25.170  0.00  0.00    +0.292 HD
ENDBRANCH  16  18
BRANCH  15  20
ATOM     20  O   UNL     1       3.562   4.376  26.607  0.00  0.00    -0.503 OA
ATOM     21  H   UNL     1       4.178   5.031  26.993  0.00  0.00    +0.292 HD
ENDBRANCH  15  20
ENDBRANCH   1  13
BRANCH   5  22
ATOM     22  O   UNL     1      10.058  -0.850  21.437  0.00  0.00    -0.506 OA
ATOM     23  H   UNL     1      10.175   0.102  21.196  0.00  0.00    +0.292 HD
ENDBRANCH   5  22
BRANCH  11  24
ATOM     24  O   UNL     1       8.135   3.864  22.850  0.00  0.00    -0.453 OA
BRANCH  24  25
ATOM     25  C   UNL     1       9.196   3.942  23.823  0.00  0.00    +0.340 C 
ATOM     26  O   UNL     1       8.743   4.241  25.151  0.00  0.00    -0.331 OA
ATOM     27  C   UNL     1       8.735   5.581  25.672  0.00  0.00    +0.179 C 
ATOM     28  C   UNL     1       9.689   6.606  25.023  0.00  0.00    +0.177 C 
ATOM     29  C   UNL     1       9.950   6.319  23.541  0.00  0.00    +0.180 C 
ATOM     30  C   UNL     1      10.343   4.850  23.377  0.00  0.00    +0.214 C 
BRANCH  30  31
ATOM     31  O   UNL     1      11.513   4.567  24.182  0.00  0.00    -0.383 OA
ATOM     32  H   UNL     1      11.851   3.687  23.902  0.00  0.00    +0.210 HD
ENDBRANCH  30  31
BRANCH  29  33
ATOM     33  O   UNL     1       8.856   6.680  22.707  0.00  0.00    -0.386 OA
ATOM     34  H   UNL     1       8.297   5.891  22.534  0.00  0.00    +0.210 HD
ENDBRANCH  29  33
BRANCH  28  35
ATOM     35  O   UNL     1      10.927   6.582  25.768  0.00  0.00    -0.386 OA
ATOM     36  H   UNL     1      11.658   6.815  25.159  0.00  0.00    +0.210 HD
ENDBRANCH  28  35
BRANCH  27  37
ATOM     37  C   UNL     1       7.305   6.115  25.775  0.00  0.00    +0.190 C 
BRANCH  37  38
ATOM     38  O   UNL     1       6.728   6.243  24.479  0.00  0.00    -0.392 OA
ATOM     39  H   UNL     1       5.767   6.126  24.599  0.00  0.00    +0.210 HD
ENDBRANCH  37  38
ENDBRANCH  27  37
ENDBRANCH  24  25
ENDBRANCH  11  24
BRANCH   7  40
ATOM     40  O   UNL     1       6.960  -3.832  23.379  0.00  0.00    -0.461 OA
BRANCH  40  41
ATOM     41  C   UNL     1       5.934  -4.415  22.553  0.00  0.00    +0.339 C 
ATOM     42  O   UNL     1       4.638  -3.869  22.830  0.00  0.00    -0.331 OA
ATOM     43  C   UNL     1       3.753  -4.513  23.751  0.00  0.00    +0.179 C 
ATOM     44  C   UNL     1       3.750  -6.047  23.605  0.00  0.00    +0.177 C 
ATOM     45  C   UNL     1       5.165  -6.620  23.651  0.00  0.00    +0.180 C 
ATOM     46  C   UNL     1       6.042  -5.962  22.581  0.00  0.00    +0.214 C 
BRANCH  46  47
ATOM     47  O   UNL     1       5.690  -6.490  21.287  0.00  0.00    -0.383 OA
ATOM     48  H   UNL     1       5.613  -5.717  20.686  0.00  0.00    +0.210 HD
ENDBRANCH  46  47
BRANCH  45  49
ATOM     49  O   UNL     1       5.698  -6.525  24.968  0.00  0.00    -0.386 OA
ATOM     50  H   UNL     1       5.729  -7.410  25.378  0.00  0.00    +0.210 HD
ENDBRANCH  45  49
BRANCH  44  51
ATOM     51  O   UNL     1       3.161  -6.384  22.334  0.00  0.00    -0.386 OA
ATOM     52  H   UNL     1       2.221  -6.595  22.496  0.00  0.00    +0.210 HD
ENDBRANCH  44  51
BRANCH  43  53
ATOM     53  C   UNL     1       3.935  -4.039  25.213  0.00  0.00    +0.197 C 
BRANCH  53  54
ATOM     54  O   UNL     1       3.881  -5.033  26.253  0.00  0.00    -0.346 OA
BRANCH  54  55
ATOM     55  C   UNL     1       3.744  -4.578  27.600  0.00  0.00    +0.282 C 
ATOM     56  O   UNL     1       4.883  -3.796  27.986  0.00  0.00    -0.341 OA
ATOM     57  C   UNL     1       6.129  -4.465  28.240  0.00  0.00    +0.178 C 
ATOM     58  C   UNL     1       5.982  -5.725  29.119  0.00  0.00    +0.177 C 
ATOM     59  C   UNL     1       4.781  -6.590  28.708  0.00  0.00    +0.179 C 
ATOM     60  C   UNL     1       3.511  -5.730  28.605  0.00  0.00    +0.201 C 
BRANCH  60  61
ATOM     61  O   UNL     1       3.141  -5.221  29.894  0.00  0.00    -0.384 OA
ATOM     62  H   UNL     1       3.973  -5.124  30.409  0.00  0.00    +0.210 HD
ENDBRANCH  60  61
BRANCH  59  63
ATOM     63  O   UNL     1       5.053  -7.304  27.500  0.00  0.00    -0.386 OA
ATOM     64  H   UNL     1       5.397  -8.190  27.735  0.00  0.00    +0.210 HD
ENDBRANCH  59  63
BRANCH  58  65
ATOM     65  O   UNL     1       5.802  -5.299  30.483  0.00  0.00    -0.386 OA
ATOM     66  H   UNL     1       4.892  -4.954  30.558  0.00  0.00    +0.210 HD
ENDBRANCH  58  65
BRANCH  57  67
ATOM     67  C   UNL     1       6.960  -4.756  26.977  0.00  0.00    +0.190 C 
BRANCH  67  68
ATOM     68  O   UNL     1       7.791  -5.904  27.121  0.00  0.00    -0.392 OA
ATOM     69  H   UNL     1       7.609  -6.508  26.382  0.00  0.00    +0.210 HD
ENDBRANCH  67  68
ENDBRANCH  57  67
ENDBRANCH  54  55
ENDBRANCH  53  54
ENDBRANCH  43  53
ENDBRANCH  40  41
ENDBRANCH   7  40
TORSDOF 24
ENDMDL
MODEL 7
REMARK VINA RESULT:      -6.7      1.676      8.748
REMARK  Name = 
REMARK  24 active torsions:
REMARK  status: ('A' for Active; 'I' for Inactive)
REMARK    1  A    between atoms: C_3  and  O_70
REMARK    2  A    between atoms: C_4  and  O_69
REMARK    3  A    between atoms: C_6  and  C_7
REMARK    4  A    between atoms: C_8  and  O_52
REMARK    5  A    between atoms: C_12  and  O_51
REMARK    6  A    between atoms: C_14  and  O_18
REMARK    7  A    between atoms: O_18  and  C_19
REMARK    8  A    between atoms: C_21  and  O_50
REMARK    9  A    between atoms: C_23  and  O_49
REMARK   10  A    between atoms: C_25  and  O_48
REMARK   11  A    between atoms: C_27  and  C_30
REMARK   12  A    between atoms: C_30  and  O_31
REMARK   13  A    between atoms: O_31  and  C_32
REMARK   14  A    between atoms: C_34  and  O_47
REMARK   15  A    between atoms: C_36  and  O_46
REMARK   16  A    between atoms: C_38  and  O_45
REMARK   17  A    between atoms: C_40  and  C_43
REMARK   18  A    between atoms: C_43  and  O_44
REMARK   19  A    between atoms: O_52  and  C_53
REMARK   20  A    between atoms: C_55  and  O_68
REMARK   21  A    between atoms: C_57  and  O_67
REMARK   22  A    between atoms: C_59  and  O_66
REMARK   23  A    between atoms: C_61  and  C_64
REMARK   24  A    between atoms: C_64  and  O_65
REMARK                            x       y       z     vdW  Elec       q    Type
REMARK                         _______ _______ _______ _____ _____    ______ ____
ROOT
ATOM      1  C   UNL     1       6.418   1.281  25.367  0.00  0.00    +0.181 A 
ATOM      2  O   UNL     1       6.244  -0.065  25.696  0.00  0.00    -0.451 OA
ATOM      3  C   UNL     1       5.200  -0.439  26.502  0.00  0.00    +0.147 A 
ATOM      4  C   UNL     1       4.473   0.483  27.239  0.00  0.00    +0.109 A 
ATOM      5  C   UNL     1       3.487   0.029  28.131  0.00  0.00    +0.135 A 
ATOM      6  C   UNL     1       3.184  -1.345  28.221  0.00  0.00    +0.092 A 
ATOM      7  C   UNL     1       3.869  -2.263  27.424  0.00  0.00    +0.131 A 
ATOM      8  C   UNL     1       4.757   1.910  27.031  0.00  0.00    +0.238 A 
ATOM      9  O   UNL     1       4.239   2.748  27.762  0.00  0.00    -0.283 OA
ATOM     10  C   UNL     1       4.904  -1.808  26.590  0.00  0.00    +0.093 A 
ATOM     11  C   UNL     1       5.653   2.276  25.886  0.00  0.00    +0.214 A 
ENDROOT
BRANCH   1  13
ATOM     12  C   UNL     1       8.829   1.824  24.847  0.00  0.00    +0.015 A 
ATOM     13  C   UNL     1       7.536   1.486  24.392  0.00  0.00    +0.025 A 
ATOM     14  C   UNL     1       7.342   1.427  23.001  0.00  0.00    +0.060 A 
ATOM     15  C   UNL     1       8.391   1.654  22.120  0.00  0.00    +0.159 A 
ATOM     16  C   UNL     1       9.639   2.034  22.588  0.00  0.00    +0.158 A 
ATOM     17  C   UNL     1       9.871   2.117  23.953  0.00  0.00    +0.050 A 
BRANCH  16  18
ATOM     18  O   UNL     1      10.597   2.343  21.666  0.00  0.00    -0.503 OA
ATOM     19  H   UNL     1      11.289   2.858  22.115  0.00  0.00    +0.292 HD
ENDBRANCH  16  18
BRANCH  15  20
ATOM     20  O   UNL     1       8.171   1.519  20.778  0.00  0.00    -0.503 OA
ATOM     21  H   UNL     1       9.051   1.306  20.407  0.00  0.00    +0.292 HD
ENDBRANCH  15  20
ENDBRANCH   1  13
BRANCH   5  22
ATOM     22  O   UNL     1       2.760   0.869  28.923  0.00  0.00    -0.506 OA
ATOM     23  H   UNL     1       3.389   1.443  29.426  0.00  0.00    +0.292 HD
ENDBRANCH   5  22
BRANCH  11  24
ATOM     24  O   UNL     1       5.674   3.614  25.473  0.00  0.00    -0.453 OA
BRANCH  24  25
ATOM     25  C   UNL     1       4.688   3.864  24.450  0.00  0.00    +0.340 C 
ATOM     26  O   UNL     1       5.222   3.861  23.118  0.00  0.00    -0.331 OA
ATOM     27  C   UNL     1       5.613   5.071  22.450  0.00  0.00    +0.179 C 
ATOM     28  C   UNL     1       4.980   6.393  22.934  0.00  0.00    +0.177 C 
ATOM     29  C   UNL     1       4.632   6.373  24.425  0.00  0.00    +0.180 C 
ATOM     30  C   UNL     1       3.839   5.103  24.739  0.00  0.00    +0.214 C 
BRANCH  30  31
ATOM     31  O   UNL     1       2.646   5.061  23.919  0.00  0.00    -0.383 OA
ATOM     32  H   UNL     1       2.776   5.704  23.186  0.00  0.00    +0.210 HD
ENDBRANCH  30  31
BRANCH  29  33
ATOM     33  O   UNL     1       5.774   6.515  25.262  0.00  0.00    -0.386 OA
ATOM     34  H   UNL     1       6.027   7.463  25.319  0.00  0.00    +0.210 HD
ENDBRANCH  29  33
BRANCH  28  35
ATOM     35  O   UNL     1       3.793   6.624  22.142  0.00  0.00    -0.386 OA
ATOM     36  H   UNL     1       4.037   7.189  21.380  0.00  0.00    +0.210 HD
ENDBRANCH  28  35
BRANCH  27  37
ATOM     37  C   UNL     1       7.137   5.170  22.351  0.00  0.00    +0.190 C 
BRANCH  37  38
ATOM     38  O   UNL     1       7.728   5.040  23.640  0.00  0.00    -0.392 OA
ATOM     39  H   UNL     1       7.982   5.940  23.912  0.00  0.00    +0.210 HD
ENDBRANCH  37  38
ENDBRANCH  27  37
ENDBRANCH  24  25
ENDBRANCH  11  24
BRANCH   7  40
ATOM     40  O   UNL     1       3.493  -3.585  27.549  0.00  0.00    -0.461 OA
BRANCH  40  41
ATOM     41  C   UNL     1       4.201  -4.298  28.582  0.00  0.00    +0.339 C 
ATOM     42  O   UNL     1       5.574  -4.528  28.240  0.00  0.00    -0.331 OA
ATOM     43  C   UNL     1       5.980  -5.753  27.623  0.00  0.00    +0.179 C 
ATOM     44  C   UNL     1       5.288  -6.988  28.233  0.00  0.00    +0.177 C 
ATOM     45  C   UNL     1       3.770  -6.822  28.269  0.00  0.00    +0.180 C 
ATOM     46  C   UNL     1       3.391  -5.544  29.023  0.00  0.00    +0.214 C 
BRANCH  46  47
ATOM     47  O   UNL     1       3.569  -5.756  30.437  0.00  0.00    -0.383 OA
ATOM     48  H   UNL     1       4.345  -6.350  30.530  0.00  0.00    +0.210 HD
ENDBRANCH  46  47
BRANCH  45  49
ATOM     49  O   UNL     1       3.230  -6.894  26.953  0.00  0.00    -0.386 OA
ATOM     50  H   UNL     1       3.531  -7.712  26.515  0.00  0.00    +0.210 HD
ENDBRANCH  45  49
BRANCH  44  51
ATOM     51  O   UNL     1       5.762  -7.157  29.583  0.00  0.00    -0.386 OA
ATOM     52  H   UNL     1       5.202  -7.838  30.004  0.00  0.00    +0.210 HD
ENDBRANCH  44  51
BRANCH  43  53
ATOM     53  C   UNL     1       5.912  -5.716  26.077  0.00  0.00    +0.197 C 
BRANCH  53  54
ATOM     54  O   UNL     1       7.009  -5.108  25.371  0.00  0.00    -0.346 OA
BRANCH  54  55
ATOM     55  C   UNL     1       7.115  -3.683  25.410  0.00  0.00    +0.282 C 
ATOM     56  O   UNL     1       6.748  -3.116  24.145  0.00  0.00    -0.341 OA
ATOM     57  C   UNL     1       7.654  -3.246  23.038  0.00  0.00    +0.178 C 
ATOM     58  C   UNL     1       9.119  -2.924  23.400  0.00  0.00    +0.177 C 
ATOM     59  C   UNL     1       9.540  -3.541  24.742  0.00  0.00    +0.179 C 
ATOM     60  C   UNL     1       8.519  -3.195  25.837  0.00  0.00    +0.201 C 
BRANCH  60  61
ATOM     61  O   UNL     1       8.515  -1.785  26.096  0.00  0.00    -0.384 OA
ATOM     62  H   UNL     1       9.457  -1.502  26.134  0.00  0.00    +0.210 HD
ENDBRANCH  60  61
BRANCH  59  63
ATOM     63  O   UNL     1       9.745  -4.950  24.615  0.00  0.00    -0.386 OA
ATOM     64  H   UNL     1      10.613  -5.174  25.010  0.00  0.00    +0.210 HD
ENDBRANCH  59  63
BRANCH  58  65
ATOM     65  O   UNL     1       9.251  -1.492  23.487  0.00  0.00    -0.386 OA
ATOM     66  H   UNL     1       9.133  -1.137  22.586  0.00  0.00    +0.210 HD
ENDBRANCH  58  65
BRANCH  57  67
ATOM     67  C   UNL     1       7.545  -4.586  22.285  0.00  0.00    +0.190 C 
BRANCH  67  68
ATOM     68  O   UNL     1       6.266  -5.196  22.436  0.00  0.00    -0.392 OA
ATOM     69  H   UNL     1       6.259  -6.020  21.921  0.00  0.00    +0.210 HD
ENDBRANCH  67  68
ENDBRANCH  57  67
ENDBRANCH  54  55
ENDBRANCH  53  54
ENDBRANCH  43  53
ENDBRANCH  40  41
ENDBRANCH   7  40
TORSDOF 24
ENDMDL
MODEL 8
REMARK VINA RESULT:      -6.6      1.890      5.897
REMARK  Name = 
REMARK  24 active torsions:
REMARK  status: ('A' for Active; 'I' for Inactive)
REMARK    1  A    between atoms: C_3  and  O_70
REMARK    2  A    between atoms: C_4  and  O_69
REMARK    3  A    between atoms: C_6  and  C_7
REMARK    4  A    between atoms: C_8  and  O_52
REMARK    5  A    between atoms: C_12  and  O_51
REMARK    6  A    between atoms: C_14  and  O_18
REMARK    7  A    between atoms: O_18  and  C_19
REMARK    8  A    between atoms: C_21  and  O_50
REMARK    9  A    between atoms: C_23  and  O_49
REMARK   10  A    between atoms: C_25  and  O_48
REMARK   11  A    between atoms: C_27  and  C_30
REMARK   12  A    between atoms: C_30  and  O_31
REMARK   13  A    between atoms: O_31  and  C_32
REMARK   14  A    between atoms: C_34  and  O_47
REMARK   15  A    between atoms: C_36  and  O_46
REMARK   16  A    between atoms: C_38  and  O_45
REMARK   17  A    between atoms: C_40  and  C_43
REMARK   18  A    between atoms: C_43  and  O_44
REMARK   19  A    between atoms: O_52  and  C_53
REMARK   20  A    between atoms: C_55  and  O_68
REMARK   21  A    between atoms: C_57  and  O_67
REMARK   22  A    between atoms: C_59  and  O_66
REMARK   23  A    between atoms: C_61  and  C_64
REMARK   24  A    between atoms: C_64  and  O_65
REMARK                            x       y       z     vdW  Elec       q    Type
REMARK                         _______ _______ _______ _____ _____    ______ ____
ROOT
ATOM      1  C   UNL     1       6.765  -2.131  25.469  0.00  0.00    +0.181 A 
ATOM      2  O   UNL     1       7.139  -0.787  25.405  0.00  0.00    -0.451 OA
ATOM      3  C   UNL     1       7.879  -0.337  24.343  0.00  0.00    +0.147 A 
ATOM      4  C   UNL     1       8.518  -1.206  23.472  0.00  0.00    +0.109 A 
ATOM      5  C   UNL     1       9.352  -0.685  22.468  0.00  0.00    +0.135 A 
ATOM      6  C   UNL     1       9.479   0.709  22.297  0.00  0.00    +0.092 A 
ATOM      7  C   UNL     1       8.778   1.580  23.131  0.00  0.00    +0.131 A 
ATOM      8  C   UNL     1       8.269  -2.645  23.627  0.00  0.00    +0.238 A 
ATOM      9  O   UNL     1       8.922  -3.451  22.971  0.00  0.00    -0.283 OA
ATOM     10  C   UNL     1       8.005   1.051  24.180  0.00  0.00    +0.093 A 
ATOM     11  C   UNL     1       7.181  -3.060  24.571  0.00  0.00    +0.214 A 
ENDROOT
BRANCH   1  13
ATOM     12  C   UNL     1       5.979  -3.630  27.343  0.00  0.00    +0.015 A 
ATOM     13  C   UNL     1       5.869  -2.414  26.636  0.00  0.00    +0.025 A 
ATOM     14  C   UNL     1       4.845  -1.535  27.030  0.00  0.00    +0.060 A 
ATOM     15  C   UNL     1       4.008  -1.839  28.095  0.00  0.00    +0.159 A 
ATOM     16  C   UNL     1       4.102  -3.061  28.742  0.00  0.00    +0.158 A 
ATOM     17  C   UNL     1       5.090  -3.965  28.377  0.00  0.00    +0.050 A 
BRANCH  16  18
ATOM     18  O   UNL     1       3.182  -3.340  29.711  0.00  0.00    -0.503 OA
ATOM     19  H   UNL     1       3.095  -4.307  29.772  0.00  0.00    +0.292 HD
ENDBRANCH  16  18
BRANCH  15  20
ATOM     20  O   UNL     1       3.071  -0.925  28.484  0.00  0.00    -0.503 OA
ATOM     21  H   UNL     1       3.557  -0.076  28.516  0.00  0.00    +0.292 HD
ENDBRANCH  15  20
ENDBRANCH   1  13
BRANCH   5  22
ATOM     22  O   UNL     1      10.049  -1.473  21.600  0.00  0.00    -0.506 OA
ATOM     23  H   UNL     1      10.298  -2.307  22.069  0.00  0.00    +0.292 HD
ENDBRANCH   5  22
BRANCH  11  24
ATOM     24  O   UNL     1       6.711  -4.377  24.491  0.00  0.00    -0.453 OA
BRANCH  24  25
ATOM     25  C   UNL     1       5.883  -4.570  23.326  0.00  0.00    +0.340 C 
ATOM     26  O   UNL     1       4.621  -3.892  23.395  0.00  0.00    -0.331 OA
ATOM     27  C   UNL     1       3.423  -4.551  23.839  0.00  0.00    +0.179 C 
ATOM     28  C   UNL     1       3.373  -6.090  23.736  0.00  0.00    +0.177 C 
ATOM     29  C   UNL     1       4.751  -6.740  23.883  0.00  0.00    +0.180 C 
ATOM     30  C   UNL     1       5.736  -6.044  22.944  0.00  0.00    +0.214 C 
BRANCH  30  31
ATOM     31  O   UNL     1       5.254  -6.134  21.581  0.00  0.00    -0.383 OA
ATOM     32  H   UNL     1       4.356  -6.534  21.618  0.00  0.00    +0.210 HD
ENDBRANCH  30  31
BRANCH  29  33
ATOM     33  O   UNL     1       5.213  -6.760  25.229  0.00  0.00    -0.386 OA
ATOM     34  H   UNL     1       5.779  -5.974  25.396  0.00  0.00    +0.210 HD
ENDBRANCH  29  33
BRANCH  28  35
ATOM     35  O   UNL     1       2.791  -6.423  22.456  0.00  0.00    -0.386 OA
ATOM     36  H   UNL     1       3.213  -7.242  22.129  0.00  0.00    +0.210 HD
ENDBRANCH  28  35
BRANCH  27  37
ATOM     37  C   UNL     1       3.015  -4.056  25.230  0.00  0.00    +0.190 C 
BRANCH  37  38
ATOM     38  O   UNL     1       2.061  -3.005  25.122  0.00  0.00    -0.392 OA
ATOM     39  H   UNL     1       2.060  -2.553  25.986  0.00  0.00    +0.210 HD
ENDBRANCH  37  38
ENDBRANCH  27  37
ENDBRANCH  24  25
ENDBRANCH  11  24
BRANCH   7  40
ATOM     40  O   UNL     1       8.932   2.929  22.881  0.00  0.00    -0.461 OA
BRANCH  40  41
ATOM     41  C   UNL     1       9.638   3.638  23.918  0.00  0.00    +0.339 C 
ATOM     42  O   UNL     1       8.816   3.876  25.069  0.00  0.00    -0.331 OA
ATOM     43  C   UNL     1       8.103   5.106  25.217  0.00  0.00    +0.179 C 
ATOM     44  C   UNL     1       8.933   6.334  24.795  0.00  0.00    +0.177 C 
ATOM     45  C   UNL     1       9.524   6.162  23.398  0.00  0.00    +0.180 C 
ATOM     46  C   UNL     1      10.356   4.877  23.325  0.00  0.00    +0.214 C 
BRANCH  46  47
ATOM     47  O   UNL     1      11.606   5.081  24.010  0.00  0.00    -0.383 OA
ATOM     48  H   UNL     1      11.571   4.523  24.817  0.00  0.00    +0.210 HD
ENDBRANCH  46  47
BRANCH  45  49
ATOM     49  O   UNL     1       8.500   6.240  22.411  0.00  0.00    -0.386 OA
ATOM     50  H   UNL     1       7.910   5.466  22.483  0.00  0.00    +0.210 HD
ENDBRANCH  45  49
BRANCH  44  51
ATOM     51  O   UNL     1      10.015   6.497  25.733  0.00  0.00    -0.386 OA
ATOM     52  H   UNL     1      10.703   5.844  25.499  0.00  0.00    +0.210 HD
ENDBRANCH  44  51
BRANCH  43  53
ATOM     53  C   UNL     1       6.690   5.079  24.585  0.00  0.00    +0.197 C 
BRANCH  53  54
ATOM     54  O   UNL     1       5.801   4.016  24.972  0.00  0.00    -0.346 OA
BRANCH  54  55
ATOM     55  C   UNL     1       4.737   4.334  25.871  0.00  0.00    +0.282 C 
ATOM     56  O   UNL     1       5.202   4.318  27.228  0.00  0.00    -0.341 OA
ATOM     57  C   UNL     1       5.476   3.053  27.852  0.00  0.00    +0.178 C 
ATOM     58  C   UNL     1       4.372   2.000  27.619  0.00  0.00    +0.177 C 
ATOM     59  C   UNL     1       3.874   1.985  26.165  0.00  0.00    +0.179 C 
ATOM     60  C   UNL     1       3.511   3.405  25.707  0.00  0.00    +0.201 C 
BRANCH  60  61
ATOM     61  O   UNL     1       2.387   3.902  26.447  0.00  0.00    -0.384 OA
ATOM     62  H   UNL     1       1.867   3.118  26.730  0.00  0.00    +0.210 HD
ENDBRANCH  60  61
BRANCH  59  63
ATOM     63  O   UNL     1       4.831   1.364  25.304  0.00  0.00    -0.386 OA
ATOM     64  H   UNL     1       4.760   0.393  25.411  0.00  0.00    +0.210 HD
ENDBRANCH  59  63
BRANCH  58  65
ATOM     65  O   UNL     1       3.264   2.317  28.484  0.00  0.00    -0.386 OA
ATOM     66  H   UNL     1       2.485   2.457  27.913  0.00  0.00    +0.210 HD
ENDBRANCH  58  65
BRANCH  57  67
ATOM     67  C   UNL     1       6.871   2.481  27.538  0.00  0.00    +0.190 C 
BRANCH  67  68
ATOM     68  O   UNL     1       6.904   1.058  27.595  0.00  0.00    -0.392 OA
ATOM     69  H   UNL     1       6.934   0.790  28.528  0.00  0.00    +0.210 HD
ENDBRANCH  67  68
ENDBRANCH  57  67
ENDBRANCH  54  55
ENDBRANCH  53  54
ENDBRANCH  43  53
ENDBRANCH  40  41
ENDBRANCH   7  40
TORSDOF 24
ENDMDL
MODEL 9
REMARK VINA RESULT:      -6.5      1.875      2.826
REMARK  Name = 
REMARK  24 active torsions:
REMARK  status: ('A' for Active; 'I' for Inactive)
REMARK    1  A    between atoms: C_3  and  O_70
REMARK    2  A    between atoms: C_4  and  O_69
REMARK    3  A    between atoms: C_6  and  C_7
REMARK    4  A    between atoms: C_8  and  O_52
REMARK    5  A    between atoms: C_12  and  O_51
REMARK    6  A    between atoms: C_14  and  O_18
REMARK    7  A    between atoms: O_18  and  C_19
REMARK    8  A    between atoms: C_21  and  O_50
REMARK    9  A    between atoms: C_23  and  O_49
REMARK   10  A    between atoms: C_25  and  O_48
REMARK   11  A    between atoms: C_27  and  C_30
REMARK   12  A    between atoms: C_30  and  O_31
REMARK   13  A    between atoms: O_31  and  C_32
REMARK   14  A    between atoms: C_34  and  O_47
REMARK   15  A    between atoms: C_36  and  O_46
REMARK   16  A    between atoms: C_38  and  O_45
REMARK   17  A    between atoms: C_40  and  C_43
REMARK   18  A    between atoms: C_43  and  O_44
REMARK   19  A    between atoms: O_52  and  C_53
REMARK   20  A    between atoms: C_55  and  O_68
REMARK   21  A    between atoms: C_57  and  O_67
REMARK   22  A    between atoms: C_59  and  O_66
REMARK   23  A    between atoms: C_61  and  C_64
REMARK   24  A    between atoms: C_64  and  O_65
REMARK                            x       y       z     vdW  Elec       q    Type
REMARK                         _______ _______ _______ _____ _____    ______ ____
ROOT
ATOM      1  C   UNL     1       4.679  -2.847  25.349  0.00  0.00    +0.181 A 
ATOM      2  O   UNL     1       5.056  -1.503  25.305  0.00  0.00    -0.451 OA
ATOM      3  C   UNL     1       4.588  -0.633  26.256  0.00  0.00    +0.147 A 
ATOM      4  C   UNL     1       3.534  -0.960  27.095  0.00  0.00    +0.109 A 
ATOM      5  C   UNL     1       3.027   0.012  27.974  0.00  0.00    +0.135 A 
ATOM      6  C   UNL     1       3.633   1.282  28.060  0.00  0.00    +0.092 A 
ATOM      7  C   UNL     1       4.739   1.582  27.265  0.00  0.00    +0.131 A 
ATOM      8  C   UNL     1       3.008  -2.331  27.040  0.00  0.00    +0.238 A 
ATOM      9  O   UNL     1       1.988  -2.618  27.660  0.00  0.00    -0.283 OA
ATOM     10  C   UNL     1       5.192   0.630  26.335  0.00  0.00    +0.093 A 
ATOM     11  C   UNL     1       3.782  -3.336  26.243  0.00  0.00    +0.214 A 
ENDROOT
BRANCH   1  13
ATOM     12  C   UNL     1       6.275  -4.685  24.674  0.00  0.00    +0.015 A 
ATOM     13  C   UNL     1       5.374  -3.664  24.303  0.00  0.00    +0.025 A 
ATOM     14  C   UNL     1       5.225  -3.411  22.928  0.00  0.00    +0.060 A 
ATOM     15  C   UNL     1       5.908  -4.163  21.981  0.00  0.00    +0.159 A 
ATOM     16  C   UNL     1       6.825  -5.126  22.371  0.00  0.00    +0.158 A 
ATOM     17  C   UNL     1       7.013  -5.400  23.718  0.00  0.00    +0.050 A 
BRANCH  16  18
ATOM     18  O   UNL     1       7.538  -5.757  21.393  0.00  0.00    -0.503 OA
ATOM     19  H   UNL     1       7.071  -5.624  20.549  0.00  0.00    +0.292 HD
ENDBRANCH  16  18
BRANCH  15  20
ATOM     20  O   UNL     1       5.680  -3.925  20.656  0.00  0.00    -0.503 OA
ATOM     21  H   UNL     1       5.872  -2.973  20.542  0.00  0.00    +0.292 HD
ENDBRANCH  15  20
ENDBRANCH   1  13
BRANCH   5  22
ATOM     22  O   UNL     1       1.966  -0.217  28.799  0.00  0.00    -0.506 OA
ATOM     23  H   UNL     1       1.611  -1.120  28.607  0.00  0.00    +0.292 HD
ENDBRANCH   5  22
BRANCH  11  24
ATOM     24  O   UNL     1       3.491  -4.692  26.439  0.00  0.00    -0.453 OA
BRANCH  24  25
ATOM     25  C   UNL     1       2.382  -5.116  25.622  0.00  0.00    +0.340 C 
ATOM     26  O   UNL     1       1.299  -5.689  26.368  0.00  0.00    -0.331 OA
ATOM     27  C   UNL     1       1.164  -7.108  26.550  0.00  0.00    +0.179 C 
ATOM     28  C   UNL     1       1.858  -8.030  25.525  0.00  0.00    +0.177 C 
ATOM     29  C   UNL     1       3.127  -7.411  24.933  0.00  0.00    +0.180 C 
ATOM     30  C   UNL     1       2.815  -5.995  24.447  0.00  0.00    +0.214 C 
BRANCH  30  31
ATOM     31  O   UNL     1       1.746  -6.041  23.471  0.00  0.00    -0.383 OA
ATOM     32  H   UNL     1       1.779  -5.198  22.966  0.00  0.00    +0.210 HD
ENDBRANCH  30  31
BRANCH  29  33
ATOM     33  O   UNL     1       4.229  -7.441  25.833  0.00  0.00    -0.386 OA
ATOM     34  H   UNL     1       4.856  -6.718  25.611  0.00  0.00    +0.210 HD
ENDBRANCH  29  33
BRANCH  28  35
ATOM     35  O   UNL     1       0.901  -8.318  24.481  0.00  0.00    -0.386 OA
ATOM     36  H   UNL     1       0.730  -9.282  24.476  0.00  0.00    +0.210 HD
ENDBRANCH  28  35
BRANCH  27  37
ATOM     37  C   UNL     1       1.495  -7.505  27.991  0.00  0.00    +0.190 C 
BRANCH  37  38
ATOM     38  O   UNL     1       2.865  -7.245  28.276  0.00  0.00    -0.392 OA
ATOM     39  H   UNL     1       2.945  -7.251  29.248  0.00  0.00    +0.210 HD
ENDBRANCH  37  38
ENDBRANCH  27  37
ENDBRANCH  24  25
ENDBRANCH  11  24
BRANCH   7  40
ATOM     40  O   UNL     1       5.292   2.836  27.428  0.00  0.00    -0.461 OA
BRANCH  40  41
ATOM     41  C   UNL     1       5.033   3.736  26.333  0.00  0.00    +0.339 C 
ATOM     42  O   UNL     1       5.602   3.270  25.102  0.00  0.00    -0.331 OA
ATOM     43  C   UNL     1       6.896   3.710  24.681  0.00  0.00    +0.179 C 
ATOM     44  C   UNL     1       7.128   5.214  24.930  0.00  0.00    +0.177 C 
ATOM     45  C   UNL     1       6.817   5.599  26.375  0.00  0.00    +0.180 C 
ATOM     46  C   UNL     1       5.387   5.189  26.741  0.00  0.00    +0.214 C 
BRANCH  46  47
ATOM     47  O   UNL     1       4.459   6.101  26.122  0.00  0.00    -0.383 OA
ATOM     48  H   UNL     1       4.488   6.926  26.653  0.00  0.00    +0.210 HD
ENDBRANCH  46  47
BRANCH  45  49
ATOM     49  O   UNL     1       7.808   5.075  27.254  0.00  0.00    -0.386 OA
ATOM     50  H   UNL     1       8.448   5.773  27.486  0.00  0.00    +0.210 HD
ENDBRANCH  45  49
BRANCH  44  51
ATOM     51  O   UNL     1       6.256   5.961  24.060  0.00  0.00    -0.386 OA
ATOM     52  H   UNL     1       6.724   6.783  23.815  0.00  0.00    +0.210 HD
ENDBRANCH  44  51
BRANCH  43  53
ATOM     53  C   UNL     1       8.050   2.820  25.203  0.00  0.00    +0.197 C 
BRANCH  53  54
ATOM     54  O   UNL     1       8.099   1.453  24.756  0.00  0.00    -0.346 OA
BRANCH  54  55
ATOM     55  C   UNL     1       7.817   1.195  23.379  0.00  0.00    +0.282 C 
ATOM     56  O   UNL     1       7.533  -0.196  23.176  0.00  0.00    -0.341 OA
ATOM     57  C   UNL     1       8.614  -1.140  23.229  0.00  0.00    +0.178 C 
ATOM     58  C   UNL     1       9.859  -0.695  22.433  0.00  0.00    +0.177 C 
ATOM     59  C   UNL     1      10.196   0.788  22.654  0.00  0.00    +0.179 C 
ATOM     60  C   UNL     1       8.950   1.660  22.434  0.00  0.00    +0.201 C 
BRANCH  60  61
ATOM     61  O   UNL     1       8.531   1.606  21.064  0.00  0.00    -0.384 OA
ATOM     62  H   UNL     1       9.350   1.595  20.519  0.00  0.00    +0.210 HD
ENDBRANCH  60  61
BRANCH  59  63
ATOM     63  O   UNL     1      10.783   0.993  23.941  0.00  0.00    -0.386 OA
ATOM     64  H   UNL     1      11.661   0.559  23.954  0.00  0.00    +0.210 HD
ENDBRANCH  59  63
BRANCH  58  65
ATOM     65  O   UNL     1       9.592  -0.906  21.033  0.00  0.00    -0.386 OA
ATOM     66  H   UNL     1      10.308  -0.467  20.535  0.00  0.00    +0.210 HD
ENDBRANCH  58  65
BRANCH  57  67
ATOM     67  C   UNL     1       8.991  -1.593  24.652  0.00  0.00    +0.190 C 
BRANCH  67  68
ATOM     68  O   UNL     1       7.912  -1.459  25.572  0.00  0.00    -0.392 OA
ATOM     69  H   UNL     1       7.626  -0.530  25.575  0.00  0.00    +0.210 HD
ENDBRANCH  67  68
ENDBRANCH  57  67
ENDBRANCH  54  55
ENDBRANCH  53  54
ENDBRANCH  43  53
ENDBRANCH  40  41
ENDBRANCH   7  40
TORSDOF 24
ENDMDL
