MODEL 1
REMARK VINA RESULT:      -7.6      0.000      0.000
REMARK  Name = 
REMARK  18 active torsions:
REMARK  status: ('A' for Active; 'I' for Inactive)
REMARK    1  A    between atoms: C_3  and  O_49
REMARK    2  A    between atoms: C_4  and  O_48
REMARK    3  A    between atoms: C_6  and  C_7
REMARK    4  A    between atoms: C_8  and  O_34
REMARK    5  A    between atoms: C_12  and  O_33
REMARK    6  A    between atoms: C_14  and  O_18
REMARK    7  A    between atoms: O_18  and  C_19
REMARK    8  A    between atoms: C_21  and  O_32
REMARK    9  A    between atoms: C_22  and  O_31
REMARK   10  A    between atoms: C_24  and  O_30
REMARK   11  A    between atoms: C_26  and  C_28
REMARK   12  A    between atoms: C_28  and  O_29
REMARK   13  A    between atoms: O_34  and  C_35
REMARK   14  A    between atoms: C_37  and  O_47
REMARK   15  A    between atoms: C_38  and  O_46
REMARK   16  A    between atoms: C_39  and  O_45
REMARK   17  A    between atoms: C_41  and  C_43
REMARK   18  A    between atoms: C_43  and  O_44
REMARK                            x       y       z     vdW  Elec       q    Type
REMARK                         _______ _______ _______ _____ _____    ______ ____
ROOT
ATOM      1  C   UNL     1       7.591   1.298  24.870  0.00  0.00    +0.181 A 
ATOM      2  O   UNL     1       6.825   0.140  24.854  0.00  0.00    -0.451 OA
ATOM      3  C   UNL     1       7.405  -1.054  24.521  0.00  0.00    +0.147 A 
ATOM      4  C   UNL     1       8.705  -1.179  24.060  0.00  0.00    +0.109 A 
ATOM      5  C   UNL     1       9.177  -2.446  23.708  0.00  0.00    +0.135 A 
ATOM      6  C   UNL     1       8.398  -3.597  23.929  0.00  0.00    +0.092 A 
ATOM      7  C   UNL     1       7.125  -3.482  24.493  0.00  0.00    +0.131 A 
ATOM      8  C   UNL     1       9.512   0.072  23.992  0.00  0.00    +0.238 A 
ATOM      9  O   UNL     1      10.665   0.032  23.558  0.00  0.00    -0.283 OA
ATOM     10  C   UNL     1       6.617  -2.193  24.713  0.00  0.00    +0.093 A 
ATOM     11  C   UNL     1       8.892   1.338  24.499  0.00  0.00    +0.214 A 
ENDROOT
BRANCH   1  13
ATOM     12  C   UNL     1       5.784   3.097  24.835  0.00  0.00    +0.015 A 
ATOM     13  C   UNL     1       6.860   2.456  25.471  0.00  0.00    +0.025 A 
ATOM     14  C   UNL     1       7.327   3.029  26.664  0.00  0.00    +0.060 A 
ATOM     15  C   UNL     1       6.877   4.284  27.056  0.00  0.00    +0.159 A 
ATOM     16  C   UNL     1       5.977   4.995  26.274  0.00  0.00    +0.158 A 
ATOM     17  C   UNL     1       5.384   4.389  25.186  0.00  0.00    +0.050 A 
BRANCH  16  18
ATOM     18  O   UNL     1       5.720   6.295  26.597  0.00  0.00    -0.503 OA
ATOM     19  H   UNL     1       5.889   6.830  25.800  0.00  0.00    +0.292 HD
ENDBRANCH  16  18
BRANCH  15  20
ATOM     20  O   UNL     1       7.373   4.844  28.197  0.00  0.00    -0.503 OA
ATOM     21  H   UNL     1       7.963   4.157  28.567  0.00  0.00    +0.292 HD
ENDBRANCH  15  20
ENDBRANCH   1  13
BRANCH   5  22
ATOM     22  O   UNL     1      10.420  -2.649  23.169  0.00  0.00    -0.506 OA
ATOM     23  H   UNL     1      10.932  -1.814  23.230  0.00  0.00    +0.292 HD
ENDBRANCH   5  22
BRANCH  11  24
ATOM     24  O   UNL     1       9.580   2.540  24.370  0.00  0.00    -0.453 OA
BRANCH  24  25
ATOM     25  C   UNL     1       9.992   3.028  23.080  0.00  0.00    +0.340 C 
ATOM     26  O   UNL     1      11.353   3.510  23.106  0.00  0.00    -0.331 OA
ATOM     27  C   UNL     1      11.650   4.751  23.778  0.00  0.00    +0.179 C 
ATOM     28  C   UNL     1      10.488   5.750  24.033  0.00  0.00    +0.177 C 
ATOM     29  C   UNL     1       9.085   5.134  23.937  0.00  0.00    +0.180 C 
ATOM     30  C   UNL     1       9.101   4.217  22.699  0.00  0.00    +0.214 C 
BRANCH  30  31
ATOM     31  O   UNL     1       7.812   3.837  22.230  0.00  0.00    -0.383 OA
ATOM     32  H   UNL     1       7.616   4.307  21.398  0.00  0.00    +0.210 HD
ENDBRANCH  30  31
BRANCH  29  33
ATOM     33  O   UNL     1       8.067   6.129  23.836  0.00  0.00    -0.386 OA
ATOM     34  H   UNL     1       8.424   6.916  23.394  0.00  0.00    +0.210 HD
ENDBRANCH  29  33
BRANCH  28  35
ATOM     35  O   UNL     1      10.689   6.424  25.285  0.00  0.00    -0.386 OA
ATOM     36  H   UNL     1      11.159   5.823  25.893  0.00  0.00    +0.210 HD
ENDBRANCH  28  35
BRANCH  27  37
ATOM     37  C   UNL     1      12.742   5.475  22.949  0.00  0.00    +0.190 C 
BRANCH  37  38
ATOM     38  O   UNL     1      14.060   5.028  23.254  0.00  0.00    -0.392 OA
ATOM     39  H   UNL     1      14.626   5.799  23.447  0.00  0.00    +0.210 HD
ENDBRANCH  37  38
ENDBRANCH  27  37
ENDBRANCH  24  25
ENDBRANCH  11  24
BRANCH   7  40
ATOM     40  O   UNL     1       6.471  -4.655  24.852  0.00  0.00    -0.461 OA
BRANCH  40  41
ATOM     41  C   UNL     1       5.058  -4.460  25.100  0.00  0.00    +0.339 C 
ATOM     42  O   UNL     1       4.728  -4.866  26.432  0.00  0.00    -0.331 OA
ATOM     43  C   UNL     1       4.716  -6.295  26.593  0.00  0.00    +0.179 C 
ATOM     44  C   UNL     1       3.507  -6.843  25.822  0.00  0.00    +0.177 C 
ATOM     45  C   UNL     1       3.714  -6.560  24.326  0.00  0.00    +0.180 C 
ATOM     46  C   UNL     1       4.088  -5.092  24.063  0.00  0.00    +0.214 C 
BRANCH  46  47
ATOM     47  O   UNL     1       4.518  -4.907  22.710  0.00  0.00    -0.383 OA
ATOM     48  H   UNL     1       4.105  -4.083  22.385  0.00  0.00    +0.210 HD
ENDBRANCH  46  47
BRANCH  45  49
ATOM     49  O   UNL     1       4.689  -7.440  23.751  0.00  0.00    -0.386 OA
ATOM     50  H   UNL     1       4.500  -8.356  24.029  0.00  0.00    +0.210 HD
ENDBRANCH  45  49
BRANCH  44  51
ATOM     51  O   UNL     1       2.320  -6.196  26.295  0.00  0.00    -0.386 OA
ATOM     52  H   UNL     1       2.520  -5.266  26.498  0.00  0.00    +0.210 HD
ENDBRANCH  44  51
BRANCH  43  53
ATOM     53  C   UNL     1       4.663  -6.619  28.091  0.00  0.00    +0.190 C 
BRANCH  53  54
ATOM     54  O   UNL     1       5.580  -7.669  28.424  0.00  0.00    -0.392 OA
ATOM     55  H   UNL     1       5.399  -7.960  29.334  0.00  0.00    +0.210 HD
ENDBRANCH  53  54
ENDBRANCH  43  53
ENDBRANCH  40  41
ENDBRANCH   7  40
TORSDOF 18
ENDMDL
MODEL 2
REMARK VINA RESULT:      -7.4      0.765      1.192
REMARK  Name = 
REMARK  18 active torsions:
REMARK  status: ('A' for Active; 'I' for Inactive)
REMARK    1  A    between atoms: C_3  and  O_49
REMARK    2  A    between atoms: C_4  and  O_48
REMARK    3  A    between atoms: C_6  and  C_7
REMARK    4  A    between atoms: C_8  and  O_34
REMARK    5  A    between atoms: C_12  and  O_33
REMARK    6  A    between atoms: C_14  and  O_18
REMARK    7  A    between atoms: O_18  and  C_19
REMARK    8  A    between atoms: C_21  and  O_32
REMARK    9  A    between atoms: C_22  and  O_31
REMARK   10  A    between atoms: C_24  and  O_30
REMARK   11  A    between atoms: C_26  and  C_28
REMARK   12  A    between atoms: C_28  and  O_29
REMARK   13  A    between atoms: O_34  and  C_35
REMARK   14  A    between atoms: C_37  and  O_47
REMARK   15  A    between atoms: C_38  and  O_46
REMARK   16  A    between atoms: C_39  and  O_45
REMARK   17  A    between atoms: C_41  and  C_43
REMARK   18  A    between atoms: C_43  and  O_44
REMARK                            x       y       z     vdW  Elec       q    Type
REMARK                         _______ _______ _______ _____ _____    ______ ____
ROOT
ATOM      1  C   UNL     1       7.620   1.269  24.756  0.00  0.00    +0.181 A 
ATOM      2  O   UNL     1       6.853   0.115  24.674  0.00  0.00    -0.451 OA
ATOM      3  C   UNL     1       7.447  -1.075  24.347  0.00  0.00    +0.147 A 
ATOM      4  C   UNL     1       8.770  -1.195  23.956  0.00  0.00    +0.109 A 
ATOM      5  C   UNL     1       9.257  -2.457  23.604  0.00  0.00    +0.135 A 
ATOM      6  C   UNL     1       8.463  -3.608  23.757  0.00  0.00    +0.092 A 
ATOM      7  C   UNL     1       7.162  -3.500  24.253  0.00  0.00    +0.131 A 
ATOM      8  C   UNL     1       9.582   0.053  23.959  0.00  0.00    +0.238 A 
ATOM      9  O   UNL     1      10.757   0.018  23.587  0.00  0.00    -0.283 OA
ATOM     10  C   UNL     1       6.645  -2.214  24.472  0.00  0.00    +0.093 A 
ATOM     11  C   UNL     1       8.939   1.311  24.457  0.00  0.00    +0.214 A 
ENDROOT
BRANCH   1  13
ATOM     12  C   UNL     1       7.151   2.969  26.598  0.00  0.00    +0.015 A 
ATOM     13  C   UNL     1       6.860   2.417  25.340  0.00  0.00    +0.025 A 
ATOM     14  C   UNL     1       5.721   2.902  24.680  0.00  0.00    +0.060 A 
ATOM     15  C   UNL     1       4.825   3.725  25.353  0.00  0.00    +0.159 A 
ATOM     16  C   UNL     1       5.030   4.066  26.683  0.00  0.00    +0.158 A 
ATOM     17  C   UNL     1       6.219   3.735  27.301  0.00  0.00    +0.050 A 
BRANCH  16  18
ATOM     18  O   UNL     1       4.030   4.708  27.352  0.00  0.00    -0.503 OA
ATOM     19  H   UNL     1       3.214   4.595  26.829  0.00  0.00    +0.292 HD
ENDBRANCH  16  18
BRANCH  15  20
ATOM     20  O   UNL     1       3.702   4.155  24.709  0.00  0.00    -0.503 OA
ATOM     21  H   UNL     1       3.763   5.131  24.741  0.00  0.00    +0.292 HD
ENDBRANCH  15  20
ENDBRANCH   1  13
BRANCH   5  22
ATOM     22  O   UNL     1      10.526  -2.654  23.129  0.00  0.00    -0.506 OA
ATOM     23  H   UNL     1      11.158  -2.170  23.704  0.00  0.00    +0.292 HD
ENDBRANCH   5  22
BRANCH  11  24
ATOM     24  O   UNL     1       9.637   2.512  24.392  0.00  0.00    -0.453 OA
BRANCH  24  25
ATOM     25  C   UNL     1      10.082   3.048  23.131  0.00  0.00    +0.340 C 
ATOM     26  O   UNL     1      11.408   3.612  23.234  0.00  0.00    -0.331 OA
ATOM     27  C   UNL     1      11.594   4.856  23.939  0.00  0.00    +0.179 C 
ATOM     28  C   UNL     1      10.361   5.777  24.148  0.00  0.00    +0.177 C 
ATOM     29  C   UNL     1       9.005   5.079  23.971  0.00  0.00    +0.180 C 
ATOM     30  C   UNL     1       9.140   4.186  22.723  0.00  0.00    +0.214 C 
BRANCH  30  31
ATOM     31  O   UNL     1       7.903   3.737  22.182  0.00  0.00    -0.383 OA
ATOM     32  H   UNL     1       7.270   3.573  22.907  0.00  0.00    +0.210 HD
ENDBRANCH  30  31
BRANCH  29  33
ATOM     33  O   UNL     1       7.934   6.012  23.832  0.00  0.00    -0.386 OA
ATOM     34  H   UNL     1       8.292   6.889  23.623  0.00  0.00    +0.210 HD
ENDBRANCH  29  33
BRANCH  28  35
ATOM     35  O   UNL     1      10.457   6.441  25.419  0.00  0.00    -0.386 OA
ATOM     36  H   UNL     1      11.336   6.858  25.488  0.00  0.00    +0.210 HD
ENDBRANCH  28  35
BRANCH  27  37
ATOM     37  C   UNL     1      12.679   5.660  23.178  0.00  0.00    +0.190 C 
BRANCH  37  38
ATOM     38  O   UNL     1      13.961   5.038  23.217  0.00  0.00    -0.392 OA
ATOM     39  H   UNL     1      14.137   4.609  22.358  0.00  0.00    +0.210 HD
ENDBRANCH  37  38
ENDBRANCH  27  37
ENDBRANCH  24  25
ENDBRANCH  11  24
BRANCH   7  40
ATOM     40  O   UNL     1       6.485  -4.678  24.551  0.00  0.00    -0.461 OA
BRANCH  40  41
ATOM     41  C   UNL     1       5.160  -4.448  25.086  0.00  0.00    +0.339 C 
ATOM     42  O   UNL     1       5.119  -4.792  26.474  0.00  0.00    -0.331 OA
ATOM     43  C   UNL     1       5.130  -6.213  26.698  0.00  0.00    +0.179 C 
ATOM     44  C   UNL     1       3.779  -6.771  26.228  0.00  0.00    +0.177 C 
ATOM     45  C   UNL     1       3.664  -6.554  24.711  0.00  0.00    +0.180 C 
ATOM     46  C   UNL     1       3.985  -5.105  24.309  0.00  0.00    +0.214 C 
BRANCH  46  47
ATOM     47  O   UNL     1       4.117  -4.985  22.889  0.00  0.00    -0.383 OA
ATOM     48  H   UNL     1       3.829  -5.832  22.498  0.00  0.00    +0.210 HD
ENDBRANCH  46  47
BRANCH  45  49
ATOM     49  O   UNL     1       4.486  -7.475  23.981  0.00  0.00    -0.386 OA
ATOM     50  H   UNL     1       4.577  -7.165  23.061  0.00  0.00    +0.210 HD
ENDBRANCH  45  49
BRANCH  44  51
ATOM     51  O   UNL     1       2.727  -6.084  26.914  0.00  0.00    -0.386 OA
ATOM     52  H   UNL     1       2.206  -5.570  26.273  0.00  0.00    +0.210 HD
ENDBRANCH  44  51
BRANCH  43  53
ATOM     53  C   UNL     1       5.396  -6.473  28.186  0.00  0.00    +0.190 C 
BRANCH  53  54
ATOM     54  O   UNL     1       4.617  -7.577  28.663  0.00  0.00    -0.392 OA
ATOM     55  H   UNL     1       4.361  -7.399  29.584  0.00  0.00    +0.210 HD
ENDBRANCH  53  54
ENDBRANCH  43  53
ENDBRANCH  40  41
ENDBRANCH   7  40
TORSDOF 18
ENDMDL
MODEL 3
REMARK VINA RESULT:      -7.2      1.602      2.823
REMARK  Name = 
REMARK  18 active torsions:
REMARK  status: ('A' for Active; 'I' for Inactive)
REMARK    1  A    between atoms: C_3  and  O_49
REMARK    2  A    between atoms: C_4  and  O_48
REMARK    3  A    between atoms: C_6  and  C_7
REMARK    4  A    between atoms: C_8  and  O_34
REMARK    5  A    between atoms: C_12  and  O_33
REMARK    6  A    between atoms: C_14  and  O_18
REMARK    7  A    between atoms: O_18  and  C_19
REMARK    8  A    between atoms: C_21  and  O_32
REMARK    9  A    between atoms: C_22  and  O_31
REMARK   10  A    between atoms: C_24  and  O_30
REMARK   11  A    between atoms: C_26  and  C_28
REMARK   12  A    between atoms: C_28  and  O_29
REMARK   13  A    between atoms: O_34  and  C_35
REMARK   14  A    between atoms: C_37  and  O_47
REMARK   15  A    between atoms: C_38  and  O_46
REMARK   16  A    between atoms: C_39  and  O_45
REMARK   17  A    between atoms: C_41  and  C_43
REMARK   18  A    between atoms: C_43  and  O_44
REMARK                            x       y       z     vdW  Elec       q    Type
REMARK                         _______ _______ _______ _____ _____    ______ ____
ROOT
ATOM      1  C   UNL     1       6.604   1.124  23.545  0.00  0.00    +0.181 A 
ATOM      2  O   UNL     1       5.995  -0.124  23.524  0.00  0.00    -0.451 OA
ATOM      3  C   UNL     1       6.763  -1.256  23.585  0.00  0.00    +0.147 A 
ATOM      4  C   UNL     1       8.147  -1.253  23.535  0.00  0.00    +0.109 A 
ATOM      5  C   UNL     1       8.825  -2.475  23.561  0.00  0.00    +0.135 A 
ATOM      6  C   UNL     1       8.132  -3.684  23.758  0.00  0.00    +0.092 A 
ATOM      7  C   UNL     1       6.744  -3.677  23.915  0.00  0.00    +0.131 A 
ATOM      8  C   UNL     1       8.810   0.079  23.472  0.00  0.00    +0.238 A 
ATOM      9  O   UNL     1      10.038   0.147  23.391  0.00  0.00    -0.283 OA
ATOM     10  C   UNL     1       6.069  -2.459  23.750  0.00  0.00    +0.093 A 
ATOM     11  C   UNL     1       7.946   1.300  23.551  0.00  0.00    +0.214 A 
ENDROOT
BRANCH   1  13
ATOM     12  C   UNL     1       4.925   2.486  24.898  0.00  0.00    +0.015 A 
ATOM     13  C   UNL     1       5.616   2.236  23.701  0.00  0.00    +0.025 A 
ATOM     14  C   UNL     1       5.250   3.001  22.583  0.00  0.00    +0.060 A 
ATOM     15  C   UNL     1       4.114   3.800  22.629  0.00  0.00    +0.159 A 
ATOM     16  C   UNL     1       3.318   3.844  23.765  0.00  0.00    +0.158 A 
ATOM     17  C   UNL     1       3.743   3.230  24.926  0.00  0.00    +0.050 A 
BRANCH  16  18
ATOM     18  O   UNL     1       2.115   4.483  23.693  0.00  0.00    -0.503 OA
ATOM     19  H   UNL     1       2.119   5.184  24.372  0.00  0.00    +0.292 HD
ENDBRANCH  16  18
BRANCH  15  20
ATOM     20  O   UNL     1       3.750   4.505  21.519  0.00  0.00    -0.503 OA
ATOM     21  H   UNL     1       4.026   5.423  21.714  0.00  0.00    +0.292 HD
ENDBRANCH  15  20
ENDBRANCH   1  13
BRANCH   5  22
ATOM     22  O   UNL     1      10.186  -2.569  23.435  0.00  0.00    -0.506 OA
ATOM     23  H   UNL     1      10.448  -3.510  23.531  0.00  0.00    +0.292 HD
ENDBRANCH   5  22
BRANCH  11  24
ATOM     24  O   UNL     1       8.519   2.559  23.406  0.00  0.00    -0.453 OA
BRANCH  24  25
ATOM     25  C   UNL     1       9.254   3.171  24.483  0.00  0.00    +0.340 C 
ATOM     26  O   UNL     1       8.404   3.437  25.620  0.00  0.00    -0.331 OA
ATOM     27  C   UNL     1       7.436   4.503  25.545  0.00  0.00    +0.179 C 
ATOM     28  C   UNL     1       7.641   5.612  24.478  0.00  0.00    +0.177 C 
ATOM     29  C   UNL     1       8.599   5.233  23.339  0.00  0.00    +0.180 C 
ATOM     30  C   UNL     1       9.795   4.522  24.000  0.00  0.00    +0.214 C 
BRANCH  30  31
ATOM     31  O   UNL     1      10.947   4.413  23.173  0.00  0.00    -0.383 OA
ATOM     32  H   UNL     1      11.083   5.249  22.690  0.00  0.00    +0.210 HD
ENDBRANCH  30  31
BRANCH  29  33
ATOM     33  O   UNL     1       9.019   6.372  22.588  0.00  0.00    -0.386 OA
ATOM     34  H   UNL     1       8.677   7.179  23.004  0.00  0.00    +0.210 HD
ENDBRANCH  29  33
BRANCH  28  35
ATOM     35  O   UNL     1       6.368   6.052  23.979  0.00  0.00    -0.386 OA
ATOM     36  H   UNL     1       5.670   5.748  24.590  0.00  0.00    +0.210 HD
ENDBRANCH  28  35
BRANCH  27  37
ATOM     37  C   UNL     1       7.380   5.175  26.941  0.00  0.00    +0.190 C 
BRANCH  37  38
ATOM     38  O   UNL     1       8.524   5.979  27.217  0.00  0.00    -0.392 OA
ATOM     39  H   UNL     1       8.235   6.842  27.570  0.00  0.00    +0.210 HD
ENDBRANCH  37  38
ENDBRANCH  27  37
ENDBRANCH  24  25
ENDBRANCH  11  24
BRANCH   7  40
ATOM     40  O   UNL     1       6.131  -4.871  24.281  0.00  0.00    -0.461 OA
BRANCH  40  41
ATOM     41  C   UNL     1       4.851  -4.672  24.928  0.00  0.00    +0.339 C 
ATOM     42  O   UNL     1       4.958  -4.935  26.330  0.00  0.00    -0.331 OA
ATOM     43  C   UNL     1       5.064  -6.338  26.628  0.00  0.00    +0.179 C 
ATOM     44  C   UNL     1       3.707  -6.987  26.321  0.00  0.00    +0.177 C 
ATOM     45  C   UNL     1       3.440  -6.865  24.814  0.00  0.00    +0.180 C 
ATOM     46  C   UNL     1       3.645  -5.429  24.304  0.00  0.00    +0.214 C 
BRANCH  46  47
ATOM     47  O   UNL     1       3.637  -5.386  22.873  0.00  0.00    -0.383 OA
ATOM     48  H   UNL     1       4.533  -5.122  22.587  0.00  0.00    +0.210 HD
ENDBRANCH  46  47
BRANCH  45  49
ATOM     49  O   UNL     1       4.237  -7.788  24.058  0.00  0.00    -0.386 OA
ATOM     50  H   UNL     1       5.010  -8.056  24.590  0.00  0.00    +0.210 HD
ENDBRANCH  45  49
BRANCH  44  51
ATOM     51  O   UNL     1       2.689  -6.310  27.067  0.00  0.00    -0.386 OA
ATOM     52  H   UNL     1       2.237  -5.672  26.489  0.00  0.00    +0.210 HD
ENDBRANCH  44  51
BRANCH  43  53
ATOM     53  C   UNL     1       5.482  -6.497  28.096  0.00  0.00    +0.190 C 
BRANCH  53  54
ATOM     54  O   UNL     1       5.551  -7.880  28.465  0.00  0.00    -0.392 OA
ATOM     55  H   UNL     1       6.400  -8.037  28.913  0.00  0.00    +0.210 HD
ENDBRANCH  53  54
ENDBRANCH  43  53
ENDBRANCH  40  41
ENDBRANCH   7  40
TORSDOF 18
ENDMDL
MODEL 4
REMARK VINA RESULT:      -7.0      2.116      4.718
REMARK  Name = 
REMARK  18 active torsions:
REMARK  status: ('A' for Active; 'I' for Inactive)
REMARK    1  A    between atoms: C_3  and  O_49
REMARK    2  A    between atoms: C_4  and  O_48
REMARK    3  A    between atoms: C_6  and  C_7
REMARK    4  A    between atoms: C_8  and  O_34
REMARK    5  A    between atoms: C_12  and  O_33
REMARK    6  A    between atoms: C_14  and  O_18
REMARK    7  A    between atoms: O_18  and  C_19
REMARK    8  A    between atoms: C_21  and  O_32
REMARK    9  A    between atoms: C_22  and  O_31
REMARK   10  A    between atoms: C_24  and  O_30
REMARK   11  A    between atoms: C_26  and  C_28
REMARK   12  A    between atoms: C_28  and  O_29
REMARK   13  A    between atoms: O_34  and  C_35
REMARK   14  A    between atoms: C_37  and  O_47
REMARK   15  A    between atoms: C_38  and  O_46
REMARK   16  A    between atoms: C_39  and  O_45
REMARK   17  A    between atoms: C_41  and  C_43
REMARK   18  A    between atoms: C_43  and  O_44
REMARK                            x       y       z     vdW  Elec       q    Type
REMARK                         _______ _______ _______ _____ _____    ______ ____
ROOT
ATOM      1  C   UNL     1       7.522   0.434  25.660  0.00  0.00    +0.181 A 
ATOM      2  O   UNL     1       7.265  -0.917  25.855  0.00  0.00    -0.451 OA
ATOM      3  C   UNL     1       6.261  -1.302  26.702  0.00  0.00    +0.147 A 
ATOM      4  C   UNL     1       5.545  -0.425  27.500  0.00  0.00    +0.109 A 
ATOM      5  C   UNL     1       4.570  -0.939  28.360  0.00  0.00    +0.135 A 
ATOM      6  C   UNL     1       4.228  -2.304  28.334  0.00  0.00    +0.092 A 
ATOM      7  C   UNL     1       4.876  -3.171  27.452  0.00  0.00    +0.131 A 
ATOM      8  C   UNL     1       5.871   1.021  27.361  0.00  0.00    +0.238 A 
ATOM      9  O   UNL     1       5.293   1.848  28.070  0.00  0.00    -0.283 OA
ATOM     10  C   UNL     1       5.943  -2.664  26.696  0.00  0.00    +0.093 A 
ATOM     11  C   UNL     1       6.875   1.420  26.324  0.00  0.00    +0.214 A 
ENDROOT
BRANCH   1  13
ATOM     12  C   UNL     1       9.839   0.990  24.753  0.00  0.00    +0.015 A 
ATOM     13  C   UNL     1       8.487   0.674  24.544  0.00  0.00    +0.025 A 
ATOM     14  C   UNL     1       8.021   0.716  23.220  0.00  0.00    +0.060 A 
ATOM     15  C   UNL     1       8.818   1.257  22.219  0.00  0.00    +0.159 A 
ATOM     16  C   UNL     1      10.073   1.776  22.508  0.00  0.00    +0.158 A 
ATOM     17  C   UNL     1      10.616   1.601  23.765  0.00  0.00    +0.050 A 
BRANCH  16  18
ATOM     18  O   UNL     1      10.730   2.470  21.535  0.00  0.00    -0.503 OA
ATOM     19  H   UNL     1      10.304   2.252  20.686  0.00  0.00    +0.292 HD
ENDBRANCH  16  18
BRANCH  15  20
ATOM     20  O   UNL     1       8.334   1.328  20.946  0.00  0.00    -0.503 OA
ATOM     21  H   UNL     1       7.982   2.237  20.871  0.00  0.00    +0.292 HD
ENDBRANCH  15  20
ENDBRANCH   1  13
BRANCH   5  22
ATOM     22  O   UNL     1       3.873  -0.155  29.240  0.00  0.00    -0.506 OA
ATOM     23  H   UNL     1       3.189  -0.704  29.680  0.00  0.00    +0.292 HD
ENDBRANCH   5  22
BRANCH  11  24
ATOM     24  O   UNL     1       7.271   2.750  26.225  0.00  0.00    -0.453 OA
BRANCH  24  25
ATOM     25  C   UNL     1       6.401   3.746  25.655  0.00  0.00    +0.340 C 
ATOM     26  O   UNL     1       6.481   3.757  24.213  0.00  0.00    -0.331 OA
ATOM     27  C   UNL     1       7.662   4.284  23.575  0.00  0.00    +0.179 C 
ATOM     28  C   UNL     1       8.580   5.233  24.392  0.00  0.00    +0.177 C 
ATOM     29  C   UNL     1       8.376   5.167  25.912  0.00  0.00    +0.180 C 
ATOM     30  C   UNL     1       6.853   5.128  26.141  0.00  0.00    +0.214 C 
BRANCH  30  31
ATOM     31  O   UNL     1       6.449   5.425  27.473  0.00  0.00    -0.383 OA
ATOM     32  H   UNL     1       6.698   6.342  27.693  0.00  0.00    +0.210 HD
ENDBRANCH  30  31
BRANCH  29  33
ATOM     33  O   UNL     1       8.976   6.274  26.584  0.00  0.00    -0.386 OA
ATOM     34  H   UNL     1       8.343   7.008  26.632  0.00  0.00    +0.210 HD
ENDBRANCH  29  33
BRANCH  28  35
ATOM     35  O   UNL     1       9.953   5.017  24.029  0.00  0.00    -0.386 OA
ATOM     36  H   UNL     1      10.279   4.226  24.497  0.00  0.00    +0.210 HD
ENDBRANCH  28  35
BRANCH  27  37
ATOM     37  C   UNL     1       7.201   5.032  22.298  0.00  0.00    +0.190 C 
BRANCH  37  38
ATOM     38  O   UNL     1       8.071   6.102  21.936  0.00  0.00    -0.392 OA
ATOM     39  H   UNL     1       7.877   6.878  22.494  0.00  0.00    +0.210 HD
ENDBRANCH  37  38
ENDBRANCH  27  37
ENDBRANCH  24  25
ENDBRANCH  11  24
BRANCH   7  40
ATOM     40  O   UNL     1       4.381  -4.466  27.341  0.00  0.00    -0.461 OA
BRANCH  40  41
ATOM     41  C   UNL     1       5.139  -5.282  26.417  0.00  0.00    +0.339 C 
ATOM     42  O   UNL     1       4.790  -4.958  25.068  0.00  0.00    -0.331 OA
ATOM     43  C   UNL     1       3.497  -5.460  24.690  0.00  0.00    +0.179 C 
ATOM     44  C   UNL     1       3.596  -6.989  24.597  0.00  0.00    +0.177 C 
ATOM     45  C   UNL     1       3.903  -7.543  25.997  0.00  0.00    +0.180 C 
ATOM     46  C   UNL     1       5.086  -6.817  26.658  0.00  0.00    +0.214 C 
BRANCH  46  47
ATOM     47  O   UNL     1       5.196  -7.170  28.041  0.00  0.00    -0.383 OA
ATOM     48  H   UNL     1       6.136  -7.076  28.290  0.00  0.00    +0.210 HD
ENDBRANCH  46  47
BRANCH  45  49
ATOM     49  O   UNL     1       2.748  -7.505  26.846  0.00  0.00    -0.386 OA
ATOM     50  H   UNL     1       2.016  -7.066  26.374  0.00  0.00    +0.210 HD
ENDBRANCH  45  49
BRANCH  44  51
ATOM     51  O   UNL     1       4.642  -7.333  23.681  0.00  0.00    -0.386 OA
ATOM     52  H   UNL     1       5.458  -6.871  23.936  0.00  0.00    +0.210 HD
ENDBRANCH  44  51
BRANCH  43  53
ATOM     53  C   UNL     1       3.087  -4.808  23.363  0.00  0.00    +0.190 C 
BRANCH  53  54
ATOM     54  O   UNL     1       4.237  -4.485  22.571  0.00  0.00    -0.392 OA
ATOM     55  H   UNL     1       4.898  -4.062  23.146  0.00  0.00    +0.210 HD
ENDBRANCH  53  54
ENDBRANCH  43  53
ENDBRANCH  40  41
ENDBRANCH   7  40
TORSDOF 18
ENDMDL
MODEL 5
REMARK VINA RESULT:      -6.9      2.550      4.909
REMARK  Name = 
REMARK  18 active torsions:
REMARK  status: ('A' for Active; 'I' for Inactive)
REMARK    1  A    between atoms: C_3  and  O_49
REMARK    2  A    between atoms: C_4  and  O_48
REMARK    3  A    between atoms: C_6  and  C_7
REMARK    4  A    between atoms: C_8  and  O_34
REMARK    5  A    between atoms: C_12  and  O_33
REMARK    6  A    between atoms: C_14  and  O_18
REMARK    7  A    between atoms: O_18  and  C_19
REMARK    8  A    between atoms: C_21  and  O_32
REMARK    9  A    between atoms: C_22  and  O_31
REMARK   10  A    between atoms: C_24  and  O_30
REMARK   11  A    between atoms: C_26  and  C_28
REMARK   12  A    between atoms: C_28  and  O_29
REMARK   13  A    between atoms: O_34  and  C_35
REMARK   14  A    between atoms: C_37  and  O_47
REMARK   15  A    between atoms: C_38  and  O_46
REMARK   16  A    between atoms: C_39  and  O_45
REMARK   17  A    between atoms: C_41  and  C_43
REMARK   18  A    between atoms: C_43  and  O_44
REMARK                            x       y       z     vdW  Elec       q    Type
REMARK                         _______ _______ _______ _____ _____    ______ ____
ROOT
ATOM      1  C   UNL     1       7.507   1.045  25.856  0.00  0.00    +0.181 A 
ATOM      2  O   UNL     1       7.060  -0.240  26.133  0.00  0.00    -0.451 OA
ATOM      3  C   UNL     1       6.086  -0.433  27.076  0.00  0.00    +0.147 A 
ATOM      4  C   UNL     1       5.589   0.572  27.889  0.00  0.00    +0.109 A 
ATOM      5  C   UNL     1       4.625   0.248  28.847  0.00  0.00    +0.135 A 
ATOM      6  C   UNL     1       4.073  -1.044  28.912  0.00  0.00    +0.092 A 
ATOM      7  C   UNL     1       4.498  -2.032  28.020  0.00  0.00    +0.131 A 
ATOM      8  C   UNL     1       6.124   1.943  27.658  0.00  0.00    +0.238 A 
ATOM      9  O   UNL     1       5.747   2.874  28.372  0.00  0.00    -0.283 OA
ATOM     10  C   UNL     1       5.561  -1.726  27.157  0.00  0.00    +0.093 A 
ATOM     11  C   UNL     1       7.083   2.143  26.524  0.00  0.00    +0.214 A 
ENDROOT
BRANCH   1  13
ATOM     12  C   UNL     1       9.797   1.108  24.737  0.00  0.00    +0.015 A 
ATOM     13  C   UNL     1       8.395   1.092  24.654  0.00  0.00    +0.025 A 
ATOM     14  C   UNL     1       7.831   1.256  23.380  0.00  0.00    +0.060 A 
ATOM     15  C   UNL     1       8.632   1.631  22.308  0.00  0.00    +0.159 A 
ATOM     16  C   UNL     1       9.990   1.865  22.478  0.00  0.00    +0.158 A 
ATOM     17  C   UNL     1      10.594   1.556  23.680  0.00  0.00    +0.050 A 
BRANCH  16  18
ATOM     18  O   UNL     1      10.690   2.419  21.447  0.00  0.00    -0.503 OA
ATOM     19  H   UNL     1      10.295   2.087  20.619  0.00  0.00    +0.292 HD
ENDBRANCH  16  18
BRANCH  15  20
ATOM     20  O   UNL     1       8.061   1.826  21.084  0.00  0.00    -0.503 OA
ATOM     21  H   UNL     1       8.481   2.643  20.748  0.00  0.00    +0.292 HD
ENDBRANCH  15  20
ENDBRANCH   1  13
BRANCH   5  22
ATOM     22  O   UNL     1       4.139   1.162  29.745  0.00  0.00    -0.506 OA
ATOM     23  H   UNL     1       3.720   0.680  30.491  0.00  0.00    +0.292 HD
ENDBRANCH   5  22
BRANCH  11  24
ATOM     24  O   UNL     1       7.670   3.389  26.333  0.00  0.00    -0.453 OA
BRANCH  24  25
ATOM     25  C   UNL     1       6.875   4.549  26.025  0.00  0.00    +0.340 C 
ATOM     26  O   UNL     1       6.446   4.546  24.645  0.00  0.00    -0.331 OA
ATOM     27  C   UNL     1       7.409   4.810  23.605  0.00  0.00    +0.179 C 
ATOM     28  C   UNL     1       8.726   5.540  23.987  0.00  0.00    +0.177 C 
ATOM     29  C   UNL     1       9.058   5.515  25.486  0.00  0.00    +0.180 C 
ATOM     30  C   UNL     1       7.737   5.801  26.225  0.00  0.00    +0.214 C 
BRANCH  30  31
ATOM     31  O   UNL     1       7.893   6.175  27.589  0.00  0.00    -0.383 OA
ATOM     32  H   UNL     1       7.066   6.578  27.914  0.00  0.00    +0.210 HD
ENDBRANCH  30  31
BRANCH  29  33
ATOM     33  O   UNL     1      10.065   6.467  25.830  0.00  0.00    -0.386 OA
ATOM     34  H   UNL     1       9.656   7.337  25.967  0.00  0.00    +0.210 HD
ENDBRANCH  29  33
BRANCH  28  35
ATOM     35  O   UNL     1       9.812   5.036  23.193  0.00  0.00    -0.386 OA
ATOM     36  H   UNL     1      10.314   4.389  23.724  0.00  0.00    +0.210 HD
ENDBRANCH  28  35
BRANCH  27  37
ATOM     37  C   UNL     1       6.691   5.642  22.512  0.00  0.00    +0.190 C 
BRANCH  37  38
ATOM     38  O   UNL     1       7.550   6.003  21.434  0.00  0.00    -0.392 OA
ATOM     39  H   UNL     1       7.404   5.392  20.687  0.00  0.00    +0.210 HD
ENDBRANCH  37  38
ENDBRANCH  27  37
ENDBRANCH  24  25
ENDBRANCH  11  24
BRANCH   7  40
ATOM     40  O   UNL     1       3.800  -3.234  28.010  0.00  0.00    -0.461 OA
BRANCH  40  41
ATOM     41  C   UNL     1       4.398  -4.242  28.860  0.00  0.00    +0.339 C 
ATOM     42  O   UNL     1       5.658  -4.657  28.326  0.00  0.00    -0.331 OA
ATOM     43  C   UNL     1       5.524  -5.496  27.165  0.00  0.00    +0.179 C 
ATOM     44  C   UNL     1       4.954  -6.844  27.626  0.00  0.00    +0.177 C 
ATOM     45  C   UNL     1       3.541  -6.612  28.180  0.00  0.00    +0.180 C 
ATOM     46  C   UNL     1       3.503  -5.466  29.204  0.00  0.00    +0.214 C 
BRANCH  46  47
ATOM     47  O   UNL     1       2.154  -5.102  29.517  0.00  0.00    -0.383 OA
ATOM     48  H   UNL     1       1.703  -5.908  29.833  0.00  0.00    +0.210 HD
ENDBRANCH  46  47
BRANCH  45  49
ATOM     49  O   UNL     1       2.591  -6.382  27.130  0.00  0.00    -0.386 OA
ATOM     50  H   UNL     1       3.041  -5.954  26.377  0.00  0.00    +0.210 HD
ENDBRANCH  45  49
BRANCH  44  51
ATOM     51  O   UNL     1       5.807  -7.389  28.640  0.00  0.00    -0.386 OA
ATOM     52  H   UNL     1       5.276  -7.603  29.426  0.00  0.00    +0.210 HD
ENDBRANCH  44  51
BRANCH  43  53
ATOM     53  C   UNL     1       6.897  -5.627  26.494  0.00  0.00    +0.190 C 
BRANCH  53  54
ATOM     54  O   UNL     1       7.933  -5.800  27.470  0.00  0.00    -0.392 OA
ATOM     55  H   UNL     1       7.988  -4.991  28.008  0.00  0.00    +0.210 HD
ENDBRANCH  53  54
ENDBRANCH  43  53
ENDBRANCH  40  41
ENDBRANCH   7  40
TORSDOF 18
ENDMDL
MODEL 6
REMARK VINA RESULT:      -6.7      2.327      9.848
REMARK  Name = 
REMARK  18 active torsions:
REMARK  status: ('A' for Active; 'I' for Inactive)
REMARK    1  A    between atoms: C_3  and  O_49
REMARK    2  A    between atoms: C_4  and  O_48
REMARK    3  A    between atoms: C_6  and  C_7
REMARK    4  A    between atoms: C_8  and  O_34
REMARK    5  A    between atoms: C_12  and  O_33
REMARK    6  A    between atoms: C_14  and  O_18
REMARK    7  A    between atoms: O_18  and  C_19
REMARK    8  A    between atoms: C_21  and  O_32
REMARK    9  A    between atoms: C_22  and  O_31
REMARK   10  A    between atoms: C_24  and  O_30
REMARK   11  A    between atoms: C_26  and  C_28
REMARK   12  A    between atoms: C_28  and  O_29
REMARK   13  A    between atoms: O_34  and  C_35
REMARK   14  A    between atoms: C_37  and  O_47
REMARK   15  A    between atoms: C_38  and  O_46
REMARK   16  A    between atoms: C_39  and  O_45
REMARK   17  A    between atoms: C_41  and  C_43
REMARK   18  A    between atoms: C_43  and  O_44
REMARK                            x       y       z     vdW  Elec       q    Type
REMARK                         _______ _______ _______ _____ _____    ______ ____
ROOT
ATOM      1  C   UNL     1       7.332  -2.255  24.807  0.00  0.00    +0.181 A 
ATOM      2  O   UNL     1       7.771  -1.065  25.371  0.00  0.00    -0.451 OA
ATOM      3  C   UNL     1       8.202  -0.048  24.562  0.00  0.00    +0.147 A 
ATOM      4  C   UNL     1       8.360  -0.166  23.191  0.00  0.00    +0.109 A 
ATOM      5  C   UNL     1       8.850   0.927  22.472  0.00  0.00    +0.135 A 
ATOM      6  C   UNL     1       9.066   2.168  23.099  0.00  0.00    +0.092 A 
ATOM      7  C   UNL     1       8.806   2.318  24.463  0.00  0.00    +0.131 A 
ATOM      8  C   UNL     1       7.972  -1.470  22.585  0.00  0.00    +0.238 A 
ATOM      9  O   UNL     1       8.121  -1.649  21.374  0.00  0.00    -0.283 OA
ATOM     10  C   UNL     1       8.445   1.176  25.193  0.00  0.00    +0.093 A 
ATOM     11  C   UNL     1       7.370  -2.511  23.479  0.00  0.00    +0.214 A 
ENDROOT
BRANCH   1  13
ATOM     12  C   UNL     1       5.499  -2.836  26.482  0.00  0.00    +0.015 A 
ATOM     13  C   UNL     1       6.690  -3.158  25.812  0.00  0.00    +0.025 A 
ATOM     14  C   UNL     1       7.351  -4.328  26.216  0.00  0.00    +0.060 A 
ATOM     15  C   UNL     1       6.945  -4.995  27.365  0.00  0.00    +0.159 A 
ATOM     16  C   UNL     1       5.898  -4.512  28.138  0.00  0.00    +0.158 A 
ATOM     17  C   UNL     1       5.133  -3.460  27.677  0.00  0.00    +0.050 A 
BRANCH  16  18
ATOM     18  O   UNL     1       5.667  -5.086  29.353  0.00  0.00    -0.503 OA
ATOM     19  H   UNL     1       5.157  -5.902  29.195  0.00  0.00    +0.292 HD
ENDBRANCH  16  18
BRANCH  15  20
ATOM     20  O   UNL     1       7.624  -6.108  27.766  0.00  0.00    -0.503 OA
ATOM     21  H   UNL     1       8.235  -6.299  27.026  0.00  0.00    +0.292 HD
ENDBRANCH  15  20
ENDBRANCH   1  13
BRANCH   5  22
ATOM     22  O   UNL     1       9.112   0.872  21.129  0.00  0.00    -0.506 OA
ATOM     23  H   UNL     1       9.118  -0.068  20.846  0.00  0.00    +0.292 HD
ENDBRANCH   5  22
BRANCH  11  24
ATOM     24  O   UNL     1       7.077  -3.771  22.967  0.00  0.00    -0.453 OA
BRANCH  24  25
ATOM     25  C   UNL     1       5.963  -3.974  22.077  0.00  0.00    +0.340 C 
ATOM     26  O   UNL     1       4.704  -3.722  22.739  0.00  0.00    -0.331 OA
ATOM     27  C   UNL     1       4.220  -4.665  23.717  0.00  0.00    +0.179 C 
ATOM     28  C   UNL     1       4.788  -6.110  23.694  0.00  0.00    +0.177 C 
ATOM     29  C   UNL     1       6.107  -6.265  22.925  0.00  0.00    +0.180 C 
ATOM     30  C   UNL     1       5.952  -5.441  21.632  0.00  0.00    +0.214 C 
BRANCH  30  31
ATOM     31  O   UNL     1       6.911  -5.738  20.624  0.00  0.00    -0.383 OA
ATOM     32  H   UNL     1       6.480  -5.725  19.749  0.00  0.00    +0.210 HD
ENDBRANCH  30  31
BRANCH  29  33
ATOM     33  O   UNL     1       6.407  -7.631  22.639  0.00  0.00    -0.386 OA
ATOM     34  H   UNL     1       5.905  -8.206  23.239  0.00  0.00    +0.210 HD
ENDBRANCH  29  33
BRANCH  28  35
ATOM     35  O   UNL     1       4.890  -6.617  25.034  0.00  0.00    -0.386 OA
ATOM     36  H   UNL     1       5.227  -7.532  24.997  0.00  0.00    +0.210 HD
ENDBRANCH  28  35
BRANCH  27  37
ATOM     37  C   UNL     1       2.680  -4.744  23.558  0.00  0.00    +0.190 C 
BRANCH  37  38
ATOM     38  O   UNL     1       2.188  -6.082  23.570  0.00  0.00    -0.392 OA
ATOM     39  H   UNL     1       1.811  -6.294  22.695  0.00  0.00    +0.210 HD
ENDBRANCH  37  38
ENDBRANCH  27  37
ENDBRANCH  24  25
ENDBRANCH  11  24
BRANCH   7  40
ATOM     40  O   UNL     1       8.866   3.602  24.994  0.00  0.00    -0.461 OA
BRANCH  40  41
ATOM     41  C   UNL     1       7.626   4.013  25.618  0.00  0.00    +0.339 C 
ATOM     42  O   UNL     1       6.521   3.747  24.750  0.00  0.00    -0.331 OA
ATOM     43  C   UNL     1       6.447   4.665  23.644  0.00  0.00    +0.179 C 
ATOM     44  C   UNL     1       6.046   6.038  24.200  0.00  0.00    +0.177 C 
ATOM     45  C   UNL     1       7.168   6.535  25.124  0.00  0.00    +0.180 C 
ATOM     46  C   UNL     1       7.582   5.472  26.155  0.00  0.00    +0.214 C 
BRANCH  46  47
ATOM     47  O   UNL     1       8.783   5.855  26.833  0.00  0.00    -0.383 OA
ATOM     48  H   UNL     1       9.217   5.034  27.139  0.00  0.00    +0.210 HD
ENDBRANCH  46  47
BRANCH  45  49
ATOM     49  O   UNL     1       8.307   6.986  24.379  0.00  0.00    -0.386 OA
ATOM     50  H   UNL     1       8.320   7.962  24.370  0.00  0.00    +0.210 HD
ENDBRANCH  45  49
BRANCH  44  51
ATOM     51  O   UNL     1       4.819   5.905  24.928  0.00  0.00    -0.386 OA
ATOM     52  H   UNL     1       5.011   5.887  25.881  0.00  0.00    +0.210 HD
ENDBRANCH  44  51
BRANCH  43  53
ATOM     53  C   UNL     1       5.442   4.119  22.622  0.00  0.00    +0.190 C 
BRANCH  53  54
ATOM     54  O   UNL     1       4.507   5.132  22.228  0.00  0.00    -0.392 OA
ATOM     55  H   UNL     1       4.475   5.162  21.257  0.00  0.00    +0.210 HD
ENDBRANCH  53  54
ENDBRANCH  43  53
ENDBRANCH  40  41
ENDBRANCH   7  40
TORSDOF 18
ENDMDL
MODEL 7
REMARK VINA RESULT:      -6.7      1.099      2.248
REMARK  Name = 
REMARK  18 active torsions:
REMARK  status: ('A' for Active; 'I' for Inactive)
REMARK    1  A    between atoms: C_3  and  O_49
REMARK    2  A    between atoms: C_4  and  O_48
REMARK    3  A    between atoms: C_6  and  C_7
REMARK    4  A    between atoms: C_8  and  O_34
REMARK    5  A    between atoms: C_12  and  O_33
REMARK    6  A    between atoms: C_14  and  O_18
REMARK    7  A    between atoms: O_18  and  C_19
REMARK    8  A    between atoms: C_21  and  O_32
REMARK    9  A    between atoms: C_22  and  O_31
REMARK   10  A    between atoms: C_24  and  O_30
REMARK   11  A    between atoms: C_26  and  C_28
REMARK   12  A    between atoms: C_28  and  O_29
REMARK   13  A    between atoms: O_34  and  C_35
REMARK   14  A    between atoms: C_37  and  O_47
REMARK   15  A    between atoms: C_38  and  O_46
REMARK   16  A    between atoms: C_39  and  O_45
REMARK   17  A    between atoms: C_41  and  C_43
REMARK   18  A    between atoms: C_43  and  O_44
REMARK                            x       y       z     vdW  Elec       q    Type
REMARK                         _______ _______ _______ _____ _____    ______ ____
ROOT
ATOM      1  C   UNL     1       7.442   2.039  25.074  0.00  0.00    +0.181 A 
ATOM      2  O   UNL     1       6.504   1.017  25.142  0.00  0.00    -0.451 OA
ATOM      3  C   UNL     1       6.893  -0.278  24.930  0.00  0.00    +0.147 A 
ATOM      4  C   UNL     1       8.162  -0.645  24.514  0.00  0.00    +0.109 A 
ATOM      5  C   UNL     1       8.433  -1.997  24.288  0.00  0.00    +0.135 A 
ATOM      6  C   UNL     1       7.480  -2.987  24.590  0.00  0.00    +0.092 A 
ATOM      7  C   UNL     1       6.236  -2.625  25.111  0.00  0.00    +0.131 A 
ATOM      8  C   UNL     1       9.155   0.454  24.355  0.00  0.00    +0.238 A 
ATOM      9  O   UNL     1      10.292   0.196  23.954  0.00  0.00    -0.283 OA
ATOM     10  C   UNL     1       5.934  -1.259  25.204  0.00  0.00    +0.093 A 
ATOM     11  C   UNL     1       8.736   1.842  24.732  0.00  0.00    +0.214 A 
ENDROOT
BRANCH   1  13
ATOM     12  C   UNL     1       7.228   3.908  26.794  0.00  0.00    +0.015 A 
ATOM     13  C   UNL     1       6.895   3.346  25.551  0.00  0.00    +0.025 A 
ATOM     14  C   UNL     1       5.906   4.000  24.801  0.00  0.00    +0.060 A 
ATOM     15  C   UNL     1       5.158   5.021  25.376  0.00  0.00    +0.159 A 
ATOM     16  C   UNL     1       5.362   5.398  26.696  0.00  0.00    +0.158 A 
ATOM     17  C   UNL     1       6.431   4.882  27.400  0.00  0.00    +0.050 A 
BRANCH  16  18
ATOM     18  O   UNL     1       4.476   6.261  27.271  0.00  0.00    -0.503 OA
ATOM     19  H   UNL     1       4.994   6.909  27.782  0.00  0.00    +0.292 HD
ENDBRANCH  16  18
BRANCH  15  20
ATOM     20  O   UNL     1       4.173   5.619  24.645  0.00  0.00    -0.503 OA
ATOM     21  H   UNL     1       3.570   5.996  25.316  0.00  0.00    +0.292 HD
ENDBRANCH  15  20
ENDBRANCH   1  13
BRANCH   5  22
ATOM     22  O   UNL     1       9.634  -2.439  23.799  0.00  0.00    -0.506 OA
ATOM     23  H   UNL     1      10.242  -2.602  24.552  0.00  0.00    +0.292 HD
ENDBRANCH   5  22
BRANCH  11  24
ATOM     24  O   UNL     1       9.606   2.905  24.514  0.00  0.00    -0.453 OA
BRANCH  24  25
ATOM     25  C   UNL     1      10.032   3.259  23.185  0.00  0.00    +0.340 C 
ATOM     26  O   UNL     1      11.422   3.652  23.162  0.00  0.00    -0.331 OA
ATOM     27  C   UNL     1      11.807   4.921  23.728  0.00  0.00    +0.179 C 
ATOM     28  C   UNL     1      10.715   6.011  23.907  0.00  0.00    +0.177 C 
ATOM     29  C   UNL     1       9.274   5.482  23.872  0.00  0.00    +0.180 C 
ATOM     30  C   UNL     1       9.215   4.468  22.714  0.00  0.00    +0.214 C 
BRANCH  30  31
ATOM     31  O   UNL     1       7.899   4.136  22.287  0.00  0.00    -0.383 OA
ATOM     32  H   UNL     1       7.905   3.257  21.865  0.00  0.00    +0.210 HD
ENDBRANCH  30  31
BRANCH  29  33
ATOM     33  O   UNL     1       8.321   6.530  23.696  0.00  0.00    -0.386 OA
ATOM     34  H   UNL     1       7.424   6.161  23.719  0.00  0.00    +0.210 HD
ENDBRANCH  29  33
BRANCH  28  35
ATOM     35  O   UNL     1      10.974   6.771  25.098  0.00  0.00    -0.386 OA
ATOM     36  H   UNL     1      10.131   7.137  25.425  0.00  0.00    +0.210 HD
ENDBRANCH  28  35
BRANCH  27  37
ATOM     37  C   UNL     1      12.933   5.502  22.834  0.00  0.00    +0.190 C 
BRANCH  37  38
ATOM     38  O   UNL     1      14.226   5.016  23.183  0.00  0.00    -0.392 OA
ATOM     39  H   UNL     1      14.164   4.494  24.006  0.00  0.00    +0.210 HD
ENDBRANCH  37  38
ENDBRANCH  27  37
ENDBRANCH  24  25
ENDBRANCH  11  24
BRANCH   7  40
ATOM     40  O   UNL     1       5.402  -3.645  25.557  0.00  0.00    -0.461 OA
BRANCH  40  41
ATOM     41  C   UNL     1       5.633  -4.901  24.874  0.00  0.00    +0.339 C 
ATOM     42  O   UNL     1       4.629  -5.115  23.878  0.00  0.00    -0.331 OA
ATOM     43  C   UNL     1       3.355  -5.477  24.438  0.00  0.00    +0.179 C 
ATOM     44  C   UNL     1       3.483  -6.892  25.019  0.00  0.00    +0.177 C 
ATOM     45  C   UNL     1       4.491  -6.852  26.178  0.00  0.00    +0.180 C 
ATOM     46  C   UNL     1       5.801  -6.152  25.781  0.00  0.00    +0.214 C 
BRANCH  46  47
ATOM     47  O   UNL     1       6.618  -5.904  26.930  0.00  0.00    -0.383 OA
ATOM     48  H   UNL     1       6.072  -6.089  27.719  0.00  0.00    +0.210 HD
ENDBRANCH  46  47
BRANCH  45  49
ATOM     49  O   UNL     1       3.927  -6.245  27.348  0.00  0.00    -0.386 OA
ATOM     50  H   UNL     1       3.143  -6.752  27.628  0.00  0.00    +0.210 HD
ENDBRANCH  45  49
BRANCH  44  51
ATOM     51  O   UNL     1       3.938  -7.779  23.990  0.00  0.00    -0.386 OA
ATOM     52  H   UNL     1       3.281  -7.804  23.274  0.00  0.00    +0.210 HD
ENDBRANCH  44  51
BRANCH  43  53
ATOM     53  C   UNL     1       2.290  -5.379  23.337  0.00  0.00    +0.190 C 
BRANCH  53  54
ATOM     54  O   UNL     1       1.082  -4.795  23.840  0.00  0.00    -0.392 OA
ATOM     55  H   UNL     1       1.317  -4.027  24.390  0.00  0.00    +0.210 HD
ENDBRANCH  53  54
ENDBRANCH  43  53
ENDBRANCH  40  41
ENDBRANCH   7  40
TORSDOF 18
ENDMDL
MODEL 8
REMARK VINA RESULT:      -6.7      2.483      5.052
REMARK  Name = 
REMARK  18 active torsions:
REMARK  status: ('A' for Active; 'I' for Inactive)
REMARK    1  A    between atoms: C_3  and  O_49
REMARK    2  A    between atoms: C_4  and  O_48
REMARK    3  A    between atoms: C_6  and  C_7
REMARK    4  A    between atoms: C_8  and  O_34
REMARK    5  A    between atoms: C_12  and  O_33
REMARK    6  A    between atoms: C_14  and  O_18
REMARK    7  A    between atoms: O_18  and  C_19
REMARK    8  A    between atoms: C_21  and  O_32
REMARK    9  A    between atoms: C_22  and  O_31
REMARK   10  A    between atoms: C_24  and  O_30
REMARK   11  A    between atoms: C_26  and  C_28
REMARK   12  A    between atoms: C_28  and  O_29
REMARK   13  A    between atoms: O_34  and  C_35
REMARK   14  A    between atoms: C_37  and  O_47
REMARK   15  A    between atoms: C_38  and  O_46
REMARK   16  A    between atoms: C_39  and  O_45
REMARK   17  A    between atoms: C_41  and  C_43
REMARK   18  A    between atoms: C_43  and  O_44
REMARK                            x       y       z     vdW  Elec       q    Type
REMARK                         _______ _______ _______ _____ _____    ______ ____
ROOT
ATOM      1  C   UNL     1       6.784   0.606  25.127  0.00  0.00    +0.181 A 
ATOM      2  O   UNL     1       6.787  -0.660  25.695  0.00  0.00    -0.451 OA
ATOM      3  C   UNL     1       5.659  -1.132  26.311  0.00  0.00    +0.147 A 
ATOM      4  C   UNL     1       4.523  -0.372  26.527  0.00  0.00    +0.109 A 
ATOM      5  C   UNL     1       3.445  -0.948  27.206  0.00  0.00    +0.135 A 
ATOM      6  C   UNL     1       3.456  -2.311  27.558  0.00  0.00    +0.092 A 
ATOM      7  C   UNL     1       4.560  -3.106  27.244  0.00  0.00    +0.131 A 
ATOM      8  C   UNL     1       4.539   1.019  25.995  0.00  0.00    +0.238 A 
ATOM      9  O   UNL     1       3.570   1.757  26.187  0.00  0.00    -0.283 OA
ATOM     10  C   UNL     1       5.685  -2.480  26.686  0.00  0.00    +0.093 A 
ATOM     11  C   UNL     1       5.734   1.456  25.204  0.00  0.00    +0.214 A 
ENDROOT
BRANCH   1  13
ATOM     12  C   UNL     1       9.118   1.577  24.794  0.00  0.00    +0.015 A 
ATOM     13  C   UNL     1       8.008   0.866  24.309  0.00  0.00    +0.025 A 
ATOM     14  C   UNL     1       8.027   0.506  22.953  0.00  0.00    +0.060 A 
ATOM     15  C   UNL     1       8.999   1.026  22.108  0.00  0.00    +0.159 A 
ATOM     16  C   UNL     1       9.953   1.918  22.581  0.00  0.00    +0.158 A 
ATOM     17  C   UNL     1      10.053   2.161  23.935  0.00  0.00    +0.050 A 
BRANCH  16  18
ATOM     18  O   UNL     1      10.757   2.549  21.678  0.00  0.00    -0.503 OA
ATOM     19  H   UNL     1      10.590   2.143  20.808  0.00  0.00    +0.292 HD
ENDBRANCH  16  18
BRANCH  15  20
ATOM     20  O   UNL     1       8.978   0.697  20.784  0.00  0.00    -0.503 OA
ATOM     21  H   UNL     1       9.921   0.678  20.524  0.00  0.00    +0.292 HD
ENDBRANCH  15  20
ENDBRANCH   1  13
BRANCH   5  22
ATOM     22  O   UNL     1       2.316  -0.245  27.534  0.00  0.00    -0.506 OA
ATOM     23  H   UNL     1       2.079   0.341  26.783  0.00  0.00    +0.292 HD
ENDBRANCH   5  22
BRANCH  11  24
ATOM     24  O   UNL     1       5.824   2.773  24.767  0.00  0.00    -0.453 OA
BRANCH  24  25
ATOM     25  C   UNL     1       5.568   3.123  23.394  0.00  0.00    +0.340 C 
ATOM     26  O   UNL     1       6.472   4.150  22.931  0.00  0.00    -0.331 OA
ATOM     27  C   UNL     1       6.308   5.502  23.407  0.00  0.00    +0.179 C 
ATOM     28  C   UNL     1       4.933   5.914  24.000  0.00  0.00    +0.177 C 
ATOM     29  C   UNL     1       4.039   4.736  24.417  0.00  0.00    +0.180 C 
ATOM     30  C   UNL     1       4.149   3.692  23.289  0.00  0.00    +0.214 C 
BRANCH  30  31
ATOM     31  O   UNL     1       3.132   2.697  23.307  0.00  0.00    -0.383 OA
ATOM     32  H   UNL     1       3.276   2.070  22.573  0.00  0.00    +0.210 HD
ENDBRANCH  30  31
BRANCH  29  33
ATOM     33  O   UNL     1       2.685   5.137  24.627  0.00  0.00    -0.386 OA
ATOM     34  H   UNL     1       2.637   6.105  24.674  0.00  0.00    +0.210 HD
ENDBRANCH  29  33
BRANCH  28  35
ATOM     35  O   UNL     1       5.124   6.845  25.077  0.00  0.00    -0.386 OA
ATOM     36  H   UNL     1       4.831   6.425  25.908  0.00  0.00    +0.210 HD
ENDBRANCH  28  35
BRANCH  27  37
ATOM     37  C   UNL     1       6.631   6.450  22.224  0.00  0.00    +0.190 C 
BRANCH  37  38
ATOM     38  O   UNL     1       7.762   6.027  21.466  0.00  0.00    -0.392 OA
ATOM     39  H   UNL     1       7.871   6.614  20.694  0.00  0.00    +0.210 HD
ENDBRANCH  37  38
ENDBRANCH  27  37
ENDBRANCH  24  25
ENDBRANCH  11  24
BRANCH   7  40
ATOM     40  O   UNL     1       4.449  -4.476  27.453  0.00  0.00    -0.461 OA
BRANCH  40  41
ATOM     41  C   UNL     1       5.186  -5.257  26.483  0.00  0.00    +0.339 C 
ATOM     42  O   UNL     1       4.805  -4.887  25.155  0.00  0.00    -0.331 OA
ATOM     43  C   UNL     1       3.504  -5.379  24.791  0.00  0.00    +0.179 C 
ATOM     44  C   UNL     1       3.604  -6.904  24.641  0.00  0.00    +0.177 C 
ATOM     45  C   UNL     1       3.946  -7.505  26.013  0.00  0.00    +0.180 C 
ATOM     46  C   UNL     1       5.143  -6.800  26.672  0.00  0.00    +0.214 C 
BRANCH  46  47
ATOM     47  O   UNL     1       5.286  -7.200  28.038  0.00  0.00    -0.383 OA
ATOM     48  H   UNL     1       5.960  -6.620  28.441  0.00  0.00    +0.210 HD
ENDBRANCH  46  47
BRANCH  45  49
ATOM     49  O   UNL     1       2.811  -7.500  26.891  0.00  0.00    -0.386 OA
ATOM     50  H   UNL     1       2.692  -8.392  27.267  0.00  0.00    +0.210 HD
ENDBRANCH  45  49
BRANCH  44  51
ATOM     51  O   UNL     1       4.629  -7.212  23.690  0.00  0.00    -0.386 OA
ATOM     52  H   UNL     1       4.345  -6.924  22.806  0.00  0.00    +0.210 HD
ENDBRANCH  44  51
BRANCH  43  53
ATOM     53  C   UNL     1       3.061  -4.683  23.497  0.00  0.00    +0.190 C 
BRANCH  53  54
ATOM     54  O   UNL     1       4.167  -4.505  22.603  0.00  0.00    -0.392 OA
ATOM     55  H   UNL     1       3.819  -4.358  21.707  0.00  0.00    +0.210 HD
ENDBRANCH  53  54
ENDBRANCH  43  53
ENDBRANCH  40  41
ENDBRANCH   7  40
TORSDOF 18
ENDMDL
MODEL 9
REMARK VINA RESULT:      -6.5      3.408      9.243
REMARK  Name = 
REMARK  18 active torsions:
REMARK  status: ('A' for Active; 'I' for Inactive)
REMARK    1  A    between atoms: C_3  and  O_49
REMARK    2  A    between atoms: C_4  and  O_48
REMARK    3  A    between atoms: C_6  and  C_7
REMARK    4  A    between atoms: C_8  and  O_34
REMARK    5  A    between atoms: C_12  and  O_33
REMARK    6  A    between atoms: C_14  and  O_18
REMARK    7  A    between atoms: O_18  and  C_19
REMARK    8  A    between atoms: C_21  and  O_32
REMARK    9  A    between atoms: C_22  and  O_31
REMARK   10  A    between atoms: C_24  and  O_30
REMARK   11  A    between atoms: C_26  and  C_28
REMARK   12  A    between atoms: C_28  and  O_29
REMARK   13  A    between atoms: O_34  and  C_35
REMARK   14  A    between atoms: C_37  and  O_47
REMARK   15  A    between atoms: C_38  and  O_46
REMARK   16  A    between atoms: C_39  and  O_45
REMARK   17  A    between atoms: C_41  and  C_43
REMARK   18  A    between atoms: C_43  and  O_44
REMARK                            x       y       z     vdW  Elec       q    Type
REMARK                         _______ _______ _______ _____ _____    ______ ____
ROOT
ATOM      1  C   UNL     1       6.010  -0.947  25.033  0.00  0.00    +0.181 A 
ATOM      2  O   UNL     1       5.496   0.324  24.813  0.00  0.00    -0.451 OA
ATOM      3  C   UNL     1       6.065   1.132  23.865  0.00  0.00    +0.147 A 
ATOM      4  C   UNL     1       7.225   0.818  23.179  0.00  0.00    +0.109 A 
ATOM      5  C   UNL     1       7.738   1.741  22.263  0.00  0.00    +0.135 A 
ATOM      6  C   UNL     1       7.031   2.916  21.947  0.00  0.00    +0.092 A 
ATOM      7  C   UNL     1       5.806   3.183  22.561  0.00  0.00    +0.131 A 
ATOM      8  C   UNL     1       7.833  -0.510  23.469  0.00  0.00    +0.238 A 
ATOM      9  O   UNL     1       8.887  -0.834  22.915  0.00  0.00    -0.283 OA
ATOM     10  C   UNL     1       5.375   2.314  23.575  0.00  0.00    +0.093 A 
ATOM     11  C   UNL     1       7.108  -1.428  24.405  0.00  0.00    +0.214 A 
ENDROOT
BRANCH   1  13
ATOM     12  C   UNL     1       4.157  -2.650  25.448  0.00  0.00    +0.015 A 
ATOM     13  C   UNL     1       5.137  -1.766  25.929  0.00  0.00    +0.025 A 
ATOM     14  C   UNL     1       5.190  -1.570  27.318  0.00  0.00    +0.060 A 
ATOM     15  C   UNL     1       4.177  -2.065  28.130  0.00  0.00    +0.159 A 
ATOM     16  C   UNL     1       3.094  -2.742  27.586  0.00  0.00    +0.158 A 
ATOM     17  C   UNL     1       3.099  -3.085  26.249  0.00  0.00    +0.050 A 
BRANCH  16  18
ATOM     18  O   UNL     1       2.035  -3.033  28.395  0.00  0.00    -0.503 OA
ATOM     19  H   UNL     1       2.327  -2.893  29.315  0.00  0.00    +0.292 HD
ENDBRANCH  16  18
BRANCH  15  20
ATOM     20  O   UNL     1       4.223  -1.831  29.473  0.00  0.00    -0.503 OA
ATOM     21  H   UNL     1       5.031  -1.293  29.597  0.00  0.00    +0.292 HD
ENDBRANCH  15  20
ENDBRANCH   1  13
BRANCH   5  22
ATOM     22  O   UNL     1       8.922   1.548  21.601  0.00  0.00    -0.506 OA
ATOM     23  H   UNL     1       9.038   2.267  20.944  0.00  0.00    +0.292 HD
ENDBRANCH   5  22
BRANCH  11  24
ATOM     24  O   UNL     1       7.688  -2.638  24.768  0.00  0.00    -0.453 OA
BRANCH  24  25
ATOM     25  C   UNL     1       7.951  -3.662  23.791  0.00  0.00    +0.340 C 
ATOM     26  O   UNL     1       6.730  -4.138  23.182  0.00  0.00    -0.331 OA
ATOM     27  C   UNL     1       5.834  -4.966  23.950  0.00  0.00    +0.179 C 
ATOM     28  C   UNL     1       6.395  -5.702  25.198  0.00  0.00    +0.177 C 
ATOM     29  C   UNL     1       7.719  -5.135  25.731  0.00  0.00    +0.180 C 
ATOM     30  C   UNL     1       8.598  -4.859  24.497  0.00  0.00    +0.214 C 
BRANCH  30  31
ATOM     31  O   UNL     1       9.979  -4.673  24.786  0.00  0.00    -0.383 OA
ATOM     32  H   UNL     1      10.238  -5.250  25.528  0.00  0.00    +0.210 HD
ENDBRANCH  30  31
BRANCH  29  33
ATOM     33  O   UNL     1       8.361  -6.031  26.639  0.00  0.00    -0.386 OA
ATOM     34  H   UNL     1       9.287  -6.149  26.378  0.00  0.00    +0.210 HD
ENDBRANCH  29  33
BRANCH  28  35
ATOM     35  O   UNL     1       5.391  -5.763  26.223  0.00  0.00    -0.386 OA
ATOM     36  H   UNL     1       5.286  -4.874  26.611  0.00  0.00    +0.210 HD
ENDBRANCH  28  35
BRANCH  27  37
ATOM     37  C   UNL     1       5.243  -6.026  22.985  0.00  0.00    +0.190 C 
BRANCH  37  38
ATOM     38  O   UNL     1       6.233  -6.652  22.174  0.00  0.00    -0.392 OA
ATOM     39  H   UNL     1       6.471  -6.057  21.438  0.00  0.00    +0.210 HD
ENDBRANCH  37  38
ENDBRANCH  27  37
ENDBRANCH  24  25
ENDBRANCH  11  24
BRANCH   7  40
ATOM     40  O   UNL     1       5.067   4.261  22.086  0.00  0.00    -0.461 OA
BRANCH  40  41
ATOM     41  C   UNL     1       3.752   4.351  22.684  0.00  0.00    +0.339 C 
ATOM     42  O   UNL     1       2.861   3.419  22.065  0.00  0.00    -0.331 OA
ATOM     43  C   UNL     1       2.458   3.824  20.745  0.00  0.00    +0.179 C 
ATOM     44  C   UNL     1       1.536   5.043  20.890  0.00  0.00    +0.177 C 
ATOM     45  C   UNL     1       2.350   6.200  21.488  0.00  0.00    +0.180 C 
ATOM     46  C   UNL     1       3.124   5.773  22.746  0.00  0.00    +0.214 C 
BRANCH  46  47
ATOM     47  O   UNL     1       4.062   6.781  23.138  0.00  0.00    -0.383 OA
ATOM     48  H   UNL     1       4.479   7.121  22.323  0.00  0.00    +0.210 HD
ENDBRANCH  46  47
BRANCH  45  49
ATOM     49  O   UNL     1       3.236   6.780  20.521  0.00  0.00    -0.386 OA
ATOM     50  H   UNL     1       2.908   7.664  20.273  0.00  0.00    +0.210 HD
ENDBRANCH  45  49
BRANCH  44  51
ATOM     51  O   UNL     1       0.444   4.701  21.751  0.00  0.00    -0.386 OA
ATOM     52  H   UNL     1       0.204   3.769  21.612  0.00  0.00    +0.210 HD
ENDBRANCH  44  51
BRANCH  43  53
ATOM     53  C   UNL     1       1.772   2.637  20.056  0.00  0.00    +0.190 C 
BRANCH  53  54
ATOM     54  O   UNL     1       1.042   1.845  21.001  0.00  0.00    -0.392 OA
ATOM     55  H   UNL     1       0.499   1.204  20.512  0.00  0.00    +0.210 HD
ENDBRANCH  53  54
ENDBRANCH  43  53
ENDBRANCH  40  41
ENDBRANCH   7  40
TORSDOF 18
ENDMDL
