MODEL 1
REMARK VINA RESULT:      -6.5      0.000      0.000
REMARK  Name = 
REMARK  28 active torsions:
REMARK  status: ('A' for Active; 'I' for Inactive)
REMARK    1  A    between atoms: C_1  and  C_2
REMARK    2  A    between atoms: C_4  and  O_75
REMARK    3  A    between atoms: C_6  and  O_48
REMARK    4  A    between atoms: C_7  and  O_47
REMARK    5  A    between atoms: C_9  and  O_11
REMARK    6  A    between atoms: O_11  and  C_12
REMARK    7  A    between atoms: C_14  and  O_46
REMARK    8  A    between atoms: C_19  and  C_38
REMARK    9  A    between atoms: C_20  and  O_23
REMARK   10  A    between atoms: O_23  and  C_24
REMARK   11  A    between atoms: C_26  and  O_37
REMARK   12  A    between atoms: C_27  and  O_36
REMARK   13  A    between atoms: C_28  and  O_35
REMARK   14  A    between atoms: C_30  and  C_33
REMARK   15  A    between atoms: C_33  and  O_34
REMARK   16  A    between atoms: C_40  and  O_45
REMARK   17  A    between atoms: C_41  and  O_44
REMARK   18  A    between atoms: O_48  and  C_49
REMARK   19  A    between atoms: C_51  and  O_74
REMARK   20  A    between atoms: C_52  and  O_73
REMARK   21  A    between atoms: C_54  and  O_72
REMARK   22  A    between atoms: C_56  and  C_58
REMARK   23  A    between atoms: C_58  and  O_59
REMARK   24  A    between atoms: O_59  and  C_60
REMARK   25  A    between atoms: C_60  and  C_62
REMARK   26  A    between atoms: C_63  and  C_64
REMARK   27  A    between atoms: C_66  and  O_71
REMARK   28  A    between atoms: C_67  and  O_70
REMARK                            x       y       z     vdW  Elec       q    Type
REMARK                         _______ _______ _______ _____ _____    ______ ____
ROOT
ATOM      1  C   UNL     1       7.952   5.833  30.135  0.00  0.00    +0.041 C 
ATOM      2  C   UNL     1       6.735   6.253  29.309  0.00  0.00    +0.150 C 
ATOM      3  O   UNL     1       5.643   5.336  29.466  0.00  0.00    -0.334 OA
ATOM      4  C   UNL     1       5.858   4.038  28.903  0.00  0.00    +0.339 C 
ATOM      5  C   UNL     1       6.135   4.144  27.387  0.00  0.00    +0.214 C 
ATOM      6  C   UNL     1       7.300   5.102  27.134  0.00  0.00    +0.187 C 
ATOM      7  C   UNL     1       7.039   6.460  27.815  0.00  0.00    +0.175 C 
ENDROOT
BRANCH   5   8
ATOM      8  O   UNL     1       4.974   4.626  26.679  0.00  0.00    -0.383 OA
ATOM      9  H   UNL     1       5.149   5.569  26.485  0.00  0.00    +0.210 HD
ENDBRANCH   5   8
BRANCH   7  10
ATOM     10  O   UNL     1       5.913   7.108  27.205  0.00  0.00    -0.387 OA
ATOM     11  H   UNL     1       6.243   7.537  26.385  0.00  0.00    +0.210 HD
ENDBRANCH   7  10
BRANCH   6  12
ATOM     12  O   UNL     1       7.490   5.159  25.701  0.00  0.00    -0.340 OA
BRANCH  12  13
ATOM     13  C   UNL     1       7.205   6.421  25.076  0.00  0.00    +0.282 C 
ATOM     14  O   UNL     1       5.928   6.351  24.419  0.00  0.00    -0.339 OA
ATOM     15  C   UNL     1       5.864   5.425  23.313  0.00  0.00    +0.190 C 
ATOM     16  C   UNL     1       6.967   5.682  22.259  0.00  0.00    +0.178 C 
ATOM     17  C   UNL     1       8.342   5.808  22.920  0.00  0.00    +0.179 C 
ATOM     18  C   UNL     1       8.265   6.861  24.039  0.00  0.00    +0.201 C 
BRANCH  18  19
ATOM     19  O   UNL     1       9.556   7.108  24.614  0.00  0.00    -0.384 OA
ATOM     20  H   UNL     1      10.140   7.408  23.891  0.00  0.00    +0.210 HD
ENDBRANCH  18  19
BRANCH  17  21
ATOM     21  O   UNL     1       8.822   4.546  23.401  0.00  0.00    -0.386 OA
ATOM     22  H   UNL     1       8.367   4.348  24.246  0.00  0.00    +0.210 HD
ENDBRANCH  17  21
BRANCH  16  23
ATOM     23  O   UNL     1       6.687   6.895  21.546  0.00  0.00    -0.386 OA
ATOM     24  H   UNL     1       6.405   7.576  22.182  0.00  0.00    +0.210 HD
ENDBRANCH  16  23
BRANCH  15  25
ATOM     25  C   UNL     1       4.479   5.553  22.651  0.00  0.00    +0.266 C 
BRANCH  25  26
ATOM     26  O   UNL     1       3.844   4.276  22.465  0.00  0.00    -0.459 OA
BRANCH  26  27
ATOM     27  C   UNL     1       4.060   3.383  23.455  0.00  0.00    +0.332 C 
ATOM     28  O   UNL     1       3.337   3.170  24.421  0.00  0.00    -0.246 OA
BRANCH  27  29
ATOM     29  C   UNL     1       5.344   2.710  23.188  0.00  0.00    +0.092 C 
ATOM     30  C   UNL     1       5.987   2.108  24.198  0.00  0.00    +0.015 C 
BRANCH  30  31
ATOM     31  C   UNL     1       7.297   1.453  24.077  0.00  0.00    -0.021 A 
ATOM     32  C   UNL     1       8.172   1.304  25.165  0.00  0.00    +0.012 A 
ATOM     33  C   UNL     1       9.410   0.672  25.005  0.00  0.00    +0.050 A 
ATOM     34  C   UNL     1       9.769   0.199  23.753  0.00  0.00    +0.158 A 
ATOM     35  C   UNL     1       8.923   0.359  22.661  0.00  0.00    +0.159 A 
ATOM     36  C   UNL     1       7.692   0.989  22.812  0.00  0.00    +0.057 A 
BRANCH  35  37
ATOM     37  O   UNL     1       9.345  -0.121  21.452  0.00  0.00    -0.503 OA
ATOM     38  H   UNL     1      10.317  -0.080  21.429  0.00  0.00    +0.292 HD
ENDBRANCH  35  37
BRANCH  34  39
ATOM     39  O   UNL     1      10.971  -0.430  23.597  0.00  0.00    -0.503 OA
ATOM     40  H   UNL     1      10.823  -1.332  23.941  0.00  0.00    +0.292 HD
ENDBRANCH  34  39
ENDBRANCH  30  31
ENDBRANCH  27  29
ENDBRANCH  26  27
ENDBRANCH  25  26
ENDBRANCH  15  25
ENDBRANCH  12  13
ENDBRANCH   6  12
BRANCH   4  41
ATOM     41  O   UNL     1       4.733   3.167  29.013  0.00  0.00    -0.461 OA
BRANCH  41  42
ATOM     42  C   UNL     1       4.622   2.085  28.202  0.00  0.00    +0.131 A 
ATOM     43  C   UNL     1       5.591   1.106  27.979  0.00  0.00    +0.093 A 
ATOM     44  C   UNL     1       5.247  -0.051  27.280  0.00  0.00    +0.147 A 
ATOM     45  O   UNL     1       6.190  -1.039  27.151  0.00  0.00    -0.451 OA
ATOM     46  C   UNL     1       5.963  -2.088  26.244  0.00  0.00    +0.181 A 
ATOM     47  C   UNL     1       4.733  -2.340  25.727  0.00  0.00    +0.214 A 
ATOM     48  C   UNL     1       3.611  -1.535  26.316  0.00  0.00    +0.238 A 
ATOM     49  O   UNL     1       2.476  -1.967  26.474  0.00  0.00    -0.283 OA
ATOM     50  C   UNL     1       3.955  -0.208  26.808  0.00  0.00    +0.109 A 
ATOM     51  C   UNL     1       3.009   0.804  26.954  0.00  0.00    +0.135 A 
ATOM     52  C   UNL     1       3.340   1.945  27.664  0.00  0.00    +0.092 A 
BRANCH  46  53
ATOM     53  C   UNL     1       7.218  -2.884  25.997  0.00  0.00    +0.025 A 
ATOM     54  C   UNL     1       7.503  -4.021  26.793  0.00  0.00    +0.015 A 
ATOM     55  C   UNL     1       8.611  -4.847  26.548  0.00  0.00    +0.050 A 
ATOM     56  C   UNL     1       9.460  -4.543  25.498  0.00  0.00    +0.158 A 
ATOM     57  C   UNL     1       9.217  -3.432  24.703  0.00  0.00    +0.159 A 
ATOM     58  C   UNL     1       8.110  -2.617  24.943  0.00  0.00    +0.060 A 
BRANCH  57  59
ATOM     59  O   UNL     1      10.079  -3.165  23.672  0.00  0.00    -0.503 OA
ATOM     60  H   UNL     1      10.555  -2.332  23.882  0.00  0.00    +0.292 HD
ENDBRANCH  57  59
BRANCH  56  61
ATOM     61  O   UNL     1      10.524  -5.358  25.240  0.00  0.00    -0.503 OA
ATOM     62  H   UNL     1      11.295  -4.756  25.225  0.00  0.00    +0.292 HD
ENDBRANCH  56  61
ENDBRANCH  46  53
BRANCH  51  63
ATOM     63  O   UNL     1       1.766   0.691  26.407  0.00  0.00    -0.506 OA
ATOM     64  H   UNL     1       1.833   0.644  25.440  0.00  0.00    +0.292 HD
ENDBRANCH  51  63
BRANCH  47  65
ATOM     65  O   UNL     1       4.484  -3.276  24.715  0.00  0.00    -0.453 OA
BRANCH  65  66
ATOM     66  C   UNL     1       4.215  -4.629  25.132  0.00  0.00    +0.340 C 
ATOM     67  O   UNL     1       5.303  -5.498  24.779  0.00  0.00    -0.331 OA
ATOM     68  C   UNL     1       5.282  -6.181  23.525  0.00  0.00    +0.179 C 
ATOM     69  C   UNL     1       3.926  -6.809  23.204  0.00  0.00    +0.177 C 
ATOM     70  C   UNL     1       2.822  -5.775  23.291  0.00  0.00    +0.180 C 
ATOM     71  C   UNL     1       2.807  -5.103  24.663  0.00  0.00    +0.214 C 
BRANCH  71  72
ATOM     72  O   UNL     1       1.809  -4.066  24.577  0.00  0.00    -0.383 OA
ATOM     73  H   UNL     1       1.005  -4.395  25.016  0.00  0.00    +0.210 HD
ENDBRANCH  71  72
BRANCH  70  74
ATOM     74  O   UNL     1       1.573  -6.455  23.044  0.00  0.00    -0.386 OA
ATOM     75  H   UNL     1       0.861  -5.877  23.386  0.00  0.00    +0.210 HD
ENDBRANCH  70  74
BRANCH  69  76
ATOM     76  O   UNL     1       3.641  -7.864  24.138  0.00  0.00    -0.386 OA
ATOM     77  H   UNL     1       3.070  -8.493  23.654  0.00  0.00    +0.210 HD
ENDBRANCH  69  76
BRANCH  68  78
ATOM     78  C   UNL     1       5.802  -5.285  22.388  0.00  0.00    +0.190 C 
BRANCH  78  79
ATOM     79  O   UNL     1       7.236  -5.249  22.346  0.00  0.00    -0.392 OA
ATOM     80  H   UNL     1       7.513  -4.549  22.968  0.00  0.00    +0.210 HD
ENDBRANCH  78  79
ENDBRANCH  68  78
ENDBRANCH  65  66
ENDBRANCH  47  65
ENDBRANCH  41  42
ENDBRANCH   4  41
TORSDOF 27
ENDMDL
MODEL 2
REMARK VINA RESULT:      -5.5      1.991     10.777
REMARK  Name = 
REMARK  28 active torsions:
REMARK  status: ('A' for Active; 'I' for Inactive)
REMARK    1  A    between atoms: C_1  and  C_2
REMARK    2  A    between atoms: C_4  and  O_75
REMARK    3  A    between atoms: C_6  and  O_48
REMARK    4  A    between atoms: C_7  and  O_47
REMARK    5  A    between atoms: C_9  and  O_11
REMARK    6  A    between atoms: O_11  and  C_12
REMARK    7  A    between atoms: C_14  and  O_46
REMARK    8  A    between atoms: C_19  and  C_38
REMARK    9  A    between atoms: C_20  and  O_23
REMARK   10  A    between atoms: O_23  and  C_24
REMARK   11  A    between atoms: C_26  and  O_37
REMARK   12  A    between atoms: C_27  and  O_36
REMARK   13  A    between atoms: C_28  and  O_35
REMARK   14  A    between atoms: C_30  and  C_33
REMARK   15  A    between atoms: C_33  and  O_34
REMARK   16  A    between atoms: C_40  and  O_45
REMARK   17  A    between atoms: C_41  and  O_44
REMARK   18  A    between atoms: O_48  and  C_49
REMARK   19  A    between atoms: C_51  and  O_74
REMARK   20  A    between atoms: C_52  and  O_73
REMARK   21  A    between atoms: C_54  and  O_72
REMARK   22  A    between atoms: C_56  and  C_58
REMARK   23  A    between atoms: C_58  and  O_59
REMARK   24  A    between atoms: O_59  and  C_60
REMARK   25  A    between atoms: C_60  and  C_62
REMARK   26  A    between atoms: C_63  and  C_64
REMARK   27  A    between atoms: C_66  and  O_71
REMARK   28  A    between atoms: C_67  and  O_70
REMARK                            x       y       z     vdW  Elec       q    Type
REMARK                         _______ _______ _______ _____ _____    ______ ____
ROOT
ATOM      1  C   UNL     1       8.096  -6.372  23.651  0.00  0.00    +0.041 C 
ATOM      2  C   UNL     1       7.577  -6.023  22.255  0.00  0.00    +0.150 C 
ATOM      3  O   UNL     1       8.051  -4.742  21.815  0.00  0.00    -0.334 OA
ATOM      4  C   UNL     1       7.526  -3.623  22.536  0.00  0.00    +0.339 C 
ATOM      5  C   UNL     1       5.986  -3.586  22.431  0.00  0.00    +0.214 C 
ATOM      6  C   UNL     1       5.397  -4.919  22.893  0.00  0.00    +0.187 C 
ATOM      7  C   UNL     1       6.045  -6.089  22.126  0.00  0.00    +0.175 C 
ENDROOT
BRANCH   5   8
ATOM      8  O   UNL     1       5.562  -3.336  21.074  0.00  0.00    -0.383 OA
ATOM      9  H   UNL     1       4.626  -3.059  21.130  0.00  0.00    +0.210 HD
ENDBRANCH   5   8
BRANCH   7  10
ATOM     10  O   UNL     1       5.699  -6.017  20.735  0.00  0.00    -0.387 OA
ATOM     11  H   UNL     1       6.507  -6.256  20.229  0.00  0.00    +0.210 HD
ENDBRANCH   7  10
BRANCH   6  12
ATOM     12  O   UNL     1       3.961  -4.813  22.754  0.00  0.00    -0.340 OA
BRANCH  12  13
ATOM     13  C   UNL     1       3.223  -4.599  23.969  0.00  0.00    +0.282 C 
ATOM     14  O   UNL     1       4.015  -5.029  25.090  0.00  0.00    -0.339 OA
ATOM     15  C   UNL     1       4.292  -6.446  25.129  0.00  0.00    +0.190 C 
ATOM     16  C   UNL     1       3.007  -7.304  25.051  0.00  0.00    +0.178 C 
ATOM     17  C   UNL     1       2.111  -6.851  23.896  0.00  0.00    +0.179 C 
ATOM     18  C   UNL     1       1.865  -5.337  24.017  0.00  0.00    +0.201 C 
BRANCH  18  19
ATOM     19  O   UNL     1       0.933  -4.879  23.028  0.00  0.00    -0.384 OA
ATOM     20  H   UNL     1       0.344  -5.629  22.818  0.00  0.00    +0.210 HD
ENDBRANCH  18  19
BRANCH  17  21
ATOM     21  O   UNL     1       2.660  -7.207  22.621  0.00  0.00    -0.386 OA
ATOM     22  H   UNL     1       1.930  -7.533  22.054  0.00  0.00    +0.210 HD
ENDBRANCH  17  21
BRANCH  16  23
ATOM     23  O   UNL     1       2.270  -7.191  26.277  0.00  0.00    -0.386 OA
ATOM     24  H   UNL     1       1.785  -6.347  26.275  0.00  0.00    +0.210 HD
ENDBRANCH  16  23
BRANCH  15  25
ATOM     25  C   UNL     1       5.041  -6.759  26.438  0.00  0.00    +0.266 C 
BRANCH  25  26
ATOM     26  O   UNL     1       4.543  -5.992  27.548  0.00  0.00    -0.459 OA
BRANCH  26  27
ATOM     27  C   UNL     1       5.408  -5.083  28.047  0.00  0.00    +0.332 C 
ATOM     28  O   UNL     1       6.603  -5.249  28.261  0.00  0.00    -0.246 OA
BRANCH  27  29
ATOM     29  C   UNL     1       4.659  -3.843  28.317  0.00  0.00    +0.092 C 
ATOM     30  C   UNL     1       5.100  -2.689  27.798  0.00  0.00    +0.015 C 
BRANCH  30  31
ATOM     31  C   UNL     1       4.480  -1.378  28.036  0.00  0.00    -0.021 A 
ATOM     32  C   UNL     1       4.217  -0.889  29.325  0.00  0.00    +0.012 A 
ATOM     33  C   UNL     1       3.626   0.367  29.506  0.00  0.00    +0.050 A 
ATOM     34  C   UNL     1       3.292   1.122  28.393  0.00  0.00    +0.158 A 
ATOM     35  C   UNL     1       3.526   0.641  27.110  0.00  0.00    +0.159 A 
ATOM     36  C   UNL     1       4.111  -0.608  26.922  0.00  0.00    +0.057 A 
BRANCH  35  37
ATOM     37  O   UNL     1       3.162   1.434  26.056  0.00  0.00    -0.503 OA
ATOM     38  H   UNL     1       3.641   2.277  26.129  0.00  0.00    +0.292 HD
ENDBRANCH  35  37
BRANCH  34  39
ATOM     39  O   UNL     1       2.727   2.353  28.568  0.00  0.00    -0.503 OA
ATOM     40  H   UNL     1       2.055   2.218  29.264  0.00  0.00    +0.292 HD
ENDBRANCH  34  39
ENDBRANCH  30  31
ENDBRANCH  27  29
ENDBRANCH  26  27
ENDBRANCH  25  26
ENDBRANCH  15  25
ENDBRANCH  12  13
ENDBRANCH   6  12
BRANCH   4  41
ATOM     41  O   UNL     1       7.961  -2.359  22.037  0.00  0.00    -0.461 OA
BRANCH  41  42
ATOM     42  C   UNL     1       7.786  -1.233  22.774  0.00  0.00    +0.131 A 
ATOM     43  C   UNL     1       6.866  -0.212  22.533  0.00  0.00    +0.093 A 
ATOM     44  C   UNL     1       6.670   0.775  23.499  0.00  0.00    +0.147 A 
ATOM     45  O   UNL     1       5.697   1.716  23.280  0.00  0.00    -0.451 OA
ATOM     46  C   UNL     1       5.652   2.858  24.098  0.00  0.00    +0.181 A 
ATOM     47  C   UNL     1       6.317   2.924  25.280  0.00  0.00    +0.214 A 
ATOM     48  C   UNL     1       6.959   1.643  25.728  0.00  0.00    +0.238 A 
ATOM     49  O   UNL     1       7.049   1.303  26.902  0.00  0.00    -0.283 OA
ATOM     50  C   UNL     1       7.396   0.736  24.677  0.00  0.00    +0.109 A 
ATOM     51  C   UNL     1       8.377  -0.232  24.883  0.00  0.00    +0.135 A 
ATOM     52  C   UNL     1       8.561  -1.225  23.937  0.00  0.00    +0.092 A 
BRANCH  46  53
ATOM     53  C   UNL     1       4.749   3.916  23.519  0.00  0.00    +0.025 A 
ATOM     54  C   UNL     1       5.297   5.131  23.042  0.00  0.00    +0.015 A 
ATOM     55  C   UNL     1       4.512   6.111  22.414  0.00  0.00    +0.050 A 
ATOM     56  C   UNL     1       3.155   5.891  22.259  0.00  0.00    +0.158 A 
ATOM     57  C   UNL     1       2.581   4.715  22.724  0.00  0.00    +0.159 A 
ATOM     58  C   UNL     1       3.365   3.738  23.339  0.00  0.00    +0.060 A 
BRANCH  57  59
ATOM     59  O   UNL     1       1.234   4.532  22.550  0.00  0.00    -0.503 OA
ATOM     60  H   UNL     1       1.075   3.577  22.392  0.00  0.00    +0.292 HD
ENDBRANCH  57  59
BRANCH  56  61
ATOM     61  O   UNL     1       2.392   6.829  21.626  0.00  0.00    -0.503 OA
ATOM     62  H   UNL     1       2.742   6.854  20.713  0.00  0.00    +0.292 HD
ENDBRANCH  56  61
ENDBRANCH  46  53
BRANCH  51  63
ATOM     63  O   UNL     1       9.159  -0.216  25.999  0.00  0.00    -0.506 OA
ATOM     64  H   UNL     1      10.078  -0.420  25.763  0.00  0.00    +0.292 HD
ENDBRANCH  51  63
BRANCH  47  65
ATOM     65  O   UNL     1       6.421   4.084  26.058  0.00  0.00    -0.453 OA
BRANCH  65  66
ATOM     66  C   UNL     1       7.712   4.369  26.631  0.00  0.00    +0.340 C 
ATOM     67  O   UNL     1       7.574   5.096  27.863  0.00  0.00    -0.331 OA
ATOM     68  C   UNL     1       7.582   6.523  27.845  0.00  0.00    +0.179 C 
ATOM     69  C   UNL     1       8.683   7.108  26.960  0.00  0.00    +0.177 C 
ATOM     70  C   UNL     1       8.607   6.536  25.559  0.00  0.00    +0.180 C 
ATOM     71  C   UNL     1       8.674   5.010  25.586  0.00  0.00    +0.214 C 
BRANCH  71  72
ATOM     72  O   UNL     1       8.466   4.588  24.223  0.00  0.00    -0.383 OA
ATOM     73  H   UNL     1       9.211   4.925  23.694  0.00  0.00    +0.210 HD
ENDBRANCH  71  72
BRANCH  70  74
ATOM     74  O   UNL     1       9.713   7.080  24.809  0.00  0.00    -0.386 OA
ATOM     75  H   UNL     1       9.334   7.681  24.136  0.00  0.00    +0.210 HD
ENDBRANCH  70  74
BRANCH  69  76
ATOM     76  O   UNL     1       9.973   6.796  27.513  0.00  0.00    -0.386 OA
ATOM     77  H   UNL     1      10.533   6.554  26.747  0.00  0.00    +0.210 HD
ENDBRANCH  69  76
BRANCH  68  78
ATOM     78  C   UNL     1       6.192   7.090  27.508  0.00  0.00    +0.190 C 
BRANCH  78  79
ATOM     79  O   UNL     1       5.140   6.190  27.887  0.00  0.00    -0.392 OA
ATOM     80  H   UNL     1       4.924   5.666  27.092  0.00  0.00    +0.210 HD
ENDBRANCH  78  79
ENDBRANCH  68  78
ENDBRANCH  65  66
ENDBRANCH  47  65
ENDBRANCH  41  42
ENDBRANCH   4  41
TORSDOF 27
ENDMDL
MODEL 3
REMARK VINA RESULT:      -5.5      2.147     10.084
REMARK  Name = 
REMARK  28 active torsions:
REMARK  status: ('A' for Active; 'I' for Inactive)
REMARK    1  A    between atoms: C_1  and  C_2
REMARK    2  A    between atoms: C_4  and  O_75
REMARK    3  A    between atoms: C_6  and  O_48
REMARK    4  A    between atoms: C_7  and  O_47
REMARK    5  A    between atoms: C_9  and  O_11
REMARK    6  A    between atoms: O_11  and  C_12
REMARK    7  A    between atoms: C_14  and  O_46
REMARK    8  A    between atoms: C_19  and  C_38
REMARK    9  A    between atoms: C_20  and  O_23
REMARK   10  A    between atoms: O_23  and  C_24
REMARK   11  A    between atoms: C_26  and  O_37
REMARK   12  A    between atoms: C_27  and  O_36
REMARK   13  A    between atoms: C_28  and  O_35
REMARK   14  A    between atoms: C_30  and  C_33
REMARK   15  A    between atoms: C_33  and  O_34
REMARK   16  A    between atoms: C_40  and  O_45
REMARK   17  A    between atoms: C_41  and  O_44
REMARK   18  A    between atoms: O_48  and  C_49
REMARK   19  A    between atoms: C_51  and  O_74
REMARK   20  A    between atoms: C_52  and  O_73
REMARK   21  A    between atoms: C_54  and  O_72
REMARK   22  A    between atoms: C_56  and  C_58
REMARK   23  A    between atoms: C_58  and  O_59
REMARK   24  A    between atoms: O_59  and  C_60
REMARK   25  A    between atoms: C_60  and  C_62
REMARK   26  A    between atoms: C_63  and  C_64
REMARK   27  A    between atoms: C_66  and  O_71
REMARK   28  A    between atoms: C_67  and  O_70
REMARK                            x       y       z     vdW  Elec       q    Type
REMARK                         _______ _______ _______ _____ _____    ______ ____
ROOT
ATOM      1  C   UNL     1       6.198  -6.270  22.294  0.00  0.00    +0.041 C 
ATOM      2  C   UNL     1       5.851  -4.927  22.941  0.00  0.00    +0.150 C 
ATOM      3  O   UNL     1       6.988  -4.055  22.998  0.00  0.00    -0.334 OA
ATOM      4  C   UNL     1       8.027  -4.472  23.889  0.00  0.00    +0.339 C 
ATOM      5  C   UNL     1       7.487  -4.592  25.332  0.00  0.00    +0.214 C 
ATOM      6  C   UNL     1       6.271  -5.519  25.360  0.00  0.00    +0.187 C 
ATOM      7  C   UNL     1       5.216  -5.055  24.336  0.00  0.00    +0.175 C 
ENDROOT
BRANCH   5   8
ATOM      8  O   UNL     1       7.100  -3.302  25.851  0.00  0.00    -0.383 OA
ATOM      9  H   UNL     1       6.206  -3.422  26.231  0.00  0.00    +0.210 HD
ENDBRANCH   5   8
BRANCH   7  10
ATOM     10  O   UNL     1       4.689  -3.776  24.718  0.00  0.00    -0.387 OA
ATOM     11  H   UNL     1       5.094  -3.550  25.585  0.00  0.00    +0.210 HD
ENDBRANCH   7  10
BRANCH   6  12
ATOM     12  O   UNL     1       5.817  -5.571  26.732  0.00  0.00    -0.340 OA
BRANCH  12  13
ATOM     13  C   UNL     1       4.712  -6.450  26.999  0.00  0.00    +0.282 C 
ATOM     14  O   UNL     1       3.479  -5.724  26.855  0.00  0.00    -0.339 OA
ATOM     15  C   UNL     1       3.283  -4.664  27.816  0.00  0.00    +0.190 C 
ATOM     16  C   UNL     1       3.420  -5.154  29.276  0.00  0.00    +0.178 C 
ATOM     17  C   UNL     1       4.701  -5.971  29.466  0.00  0.00    +0.179 C 
ATOM     18  C   UNL     1       4.743  -7.087  28.408  0.00  0.00    +0.201 C 
BRANCH  18  19
ATOM     19  O   UNL     1       5.863  -7.960  28.614  0.00  0.00    -0.384 OA
ATOM     20  H   UNL     1       6.039  -8.407  27.764  0.00  0.00    +0.210 HD
ENDBRANCH  18  19
BRANCH  17  21
ATOM     21  O   UNL     1       5.872  -5.147  29.426  0.00  0.00    -0.386 OA
ATOM     22  H   UNL     1       5.677  -4.365  28.868  0.00  0.00    +0.210 HD
ENDBRANCH  17  21
BRANCH  16  23
ATOM     23  O   UNL     1       2.296  -5.974  29.623  0.00  0.00    -0.386 OA
ATOM     24  H   UNL     1       2.435  -6.868  29.264  0.00  0.00    +0.210 HD
ENDBRANCH  16  23
BRANCH  15  25
ATOM     25  C   UNL     1       1.879  -4.067  27.602  0.00  0.00    +0.266 C 
BRANCH  25  26
ATOM     26  O   UNL     1       1.823  -2.672  27.946  0.00  0.00    -0.459 OA
BRANCH  26  27
ATOM     27  C   UNL     1       2.162  -1.825  26.950  0.00  0.00    +0.332 C 
ATOM     28  O   UNL     1       2.529  -2.130  25.822  0.00  0.00    -0.246 OA
BRANCH  27  29
ATOM     29  C   UNL     1       2.037  -0.449  27.463  0.00  0.00    +0.092 C 
ATOM     30  C   UNL     1       3.090   0.377  27.376  0.00  0.00    +0.015 C 
BRANCH  30  31
ATOM     31  C   UNL     1       3.115   1.750  27.899  0.00  0.00    -0.021 A 
ATOM     32  C   UNL     1       2.997   2.042  29.267  0.00  0.00    +0.012 A 
ATOM     33  C   UNL     1       3.029   3.365  29.721  0.00  0.00    +0.050 A 
ATOM     34  C   UNL     1       3.168   4.391  28.800  0.00  0.00    +0.158 A 
ATOM     35  C   UNL     1       3.263   4.119  27.440  0.00  0.00    +0.159 A 
ATOM     36  C   UNL     1       3.230   2.806  26.981  0.00  0.00    +0.057 A 
BRANCH  35  37
ATOM     37  O   UNL     1       3.387   5.180  26.585  0.00  0.00    -0.503 OA
ATOM     38  H   UNL     1       2.922   5.941  26.973  0.00  0.00    +0.292 HD
ENDBRANCH  35  37
BRANCH  34  39
ATOM     39  O   UNL     1       3.211   5.682  29.242  0.00  0.00    -0.503 OA
ATOM     40  H   UNL     1       3.449   5.611  30.187  0.00  0.00    +0.292 HD
ENDBRANCH  34  39
ENDBRANCH  30  31
ENDBRANCH  27  29
ENDBRANCH  26  27
ENDBRANCH  25  26
ENDBRANCH  15  25
ENDBRANCH  12  13
ENDBRANCH   6  12
BRANCH   4  41
ATOM     41  O   UNL     1       9.116  -3.554  23.978  0.00  0.00    -0.461 OA
BRANCH  41  42
ATOM     42  C   UNL     1       8.913  -2.227  23.783  0.00  0.00    +0.131 A 
ATOM     43  C   UNL     1       8.589  -1.281  24.756  0.00  0.00    +0.093 A 
ATOM     44  C   UNL     1       8.618   0.075  24.430  0.00  0.00    +0.147 A 
ATOM     45  O   UNL     1       8.385   0.990  25.425  0.00  0.00    -0.451 OA
ATOM     46  C   UNL     1       8.153   2.333  25.080  0.00  0.00    +0.181 A 
ATOM     47  C   UNL     1       8.457   2.823  23.852  0.00  0.00    +0.214 A 
ATOM     48  C   UNL     1       9.207   1.884  22.952  0.00  0.00    +0.238 A 
ATOM     49  O   UNL     1      10.058   2.248  22.149  0.00  0.00    -0.283 OA
ATOM     50  C   UNL     1       8.956   0.463  23.145  0.00  0.00    +0.109 A 
ATOM     51  C   UNL     1       9.195  -0.481  22.149  0.00  0.00    +0.135 A 
ATOM     52  C   UNL     1       9.187  -1.827  22.474  0.00  0.00    +0.092 A 
BRANCH  46  53
ATOM     53  C   UNL     1       7.602   3.113  26.244  0.00  0.00    +0.025 A 
ATOM     54  C   UNL     1       7.133   2.432  27.395  0.00  0.00    +0.015 A 
ATOM     55  C   UNL     1       6.693   3.114  28.540  0.00  0.00    +0.050 A 
ATOM     56  C   UNL     1       6.709   4.498  28.550  0.00  0.00    +0.158 A 
ATOM     57  C   UNL     1       7.152   5.199  27.437  0.00  0.00    +0.159 A 
ATOM     58  C   UNL     1       7.599   4.518  26.302  0.00  0.00    +0.060 A 
BRANCH  57  59
ATOM     59  O   UNL     1       7.156   6.568  27.485  0.00  0.00    -0.503 OA
ATOM     60  H   UNL     1       6.567   6.848  28.218  0.00  0.00    +0.292 HD
ENDBRANCH  57  59
BRANCH  56  61
ATOM     61  O   UNL     1       6.306   5.165  29.670  0.00  0.00    -0.503 OA
ATOM     62  H   UNL     1       7.139   5.434  30.107  0.00  0.00    +0.292 HD
ENDBRANCH  56  61
ENDBRANCH  46  53
BRANCH  51  63
ATOM     63  O   UNL     1       9.433  -0.103  20.862  0.00  0.00    -0.506 OA
ATOM     64  H   UNL     1       8.686   0.416  20.525  0.00  0.00    +0.292 HD
ENDBRANCH  51  63
BRANCH  47  65
ATOM     65  O   UNL     1       8.114   4.109  23.413  0.00  0.00    -0.453 OA
BRANCH  65  66
ATOM     66  C   UNL     1       7.088   4.201  22.406  0.00  0.00    +0.340 C 
ATOM     67  O   UNL     1       6.982   5.544  21.906  0.00  0.00    -0.331 OA
ATOM     68  C   UNL     1       6.067   6.454  22.517  0.00  0.00    +0.179 C 
ATOM     69  C   UNL     1       4.694   5.838  22.786  0.00  0.00    +0.177 C 
ATOM     70  C   UNL     1       4.827   4.561  23.591  0.00  0.00    +0.180 C 
ATOM     71  C   UNL     1       5.751   3.565  22.891  0.00  0.00    +0.214 C 
BRANCH  71  72
ATOM     72  O   UNL     1       5.894   2.460  23.805  0.00  0.00    -0.383 OA
ATOM     73  H   UNL     1       6.791   2.505  24.183  0.00  0.00    +0.210 HD
ENDBRANCH  71  72
BRANCH  70  74
ATOM     74  O   UNL     1       3.504   4.006  23.744  0.00  0.00    -0.386 OA
ATOM     75  H   UNL     1       3.519   3.116  23.338  0.00  0.00    +0.210 HD
ENDBRANCH  70  74
BRANCH  69  76
ATOM     76  O   UNL     1       4.043   5.529  21.542  0.00  0.00    -0.386 OA
ATOM     77  H   UNL     1       3.113   5.334  21.777  0.00  0.00    +0.210 HD
ENDBRANCH  69  76
BRANCH  68  78
ATOM     78  C   UNL     1       6.676   7.108  23.770  0.00  0.00    +0.190 C 
BRANCH  78  79
ATOM     79  O   UNL     1       8.111   7.094  23.738  0.00  0.00    -0.392 OA
ATOM     80  H   UNL     1       8.409   7.179  24.664  0.00  0.00    +0.210 HD
ENDBRANCH  78  79
ENDBRANCH  68  78
ENDBRANCH  65  66
ENDBRANCH  47  65
ENDBRANCH  41  42
ENDBRANCH   4  41
TORSDOF 27
ENDMDL
MODEL 4
REMARK VINA RESULT:      -5.1      2.236      9.894
REMARK  Name = 
REMARK  28 active torsions:
REMARK  status: ('A' for Active; 'I' for Inactive)
REMARK    1  A    between atoms: C_1  and  C_2
REMARK    2  A    between atoms: C_4  and  O_75
REMARK    3  A    between atoms: C_6  and  O_48
REMARK    4  A    between atoms: C_7  and  O_47
REMARK    5  A    between atoms: C_9  and  O_11
REMARK    6  A    between atoms: O_11  and  C_12
REMARK    7  A    between atoms: C_14  and  O_46
REMARK    8  A    between atoms: C_19  and  C_38
REMARK    9  A    between atoms: C_20  and  O_23
REMARK   10  A    between atoms: O_23  and  C_24
REMARK   11  A    between atoms: C_26  and  O_37
REMARK   12  A    between atoms: C_27  and  O_36
REMARK   13  A    between atoms: C_28  and  O_35
REMARK   14  A    between atoms: C_30  and  C_33
REMARK   15  A    between atoms: C_33  and  O_34
REMARK   16  A    between atoms: C_40  and  O_45
REMARK   17  A    between atoms: C_41  and  O_44
REMARK   18  A    between atoms: O_48  and  C_49
REMARK   19  A    between atoms: C_51  and  O_74
REMARK   20  A    between atoms: C_52  and  O_73
REMARK   21  A    between atoms: C_54  and  O_72
REMARK   22  A    between atoms: C_56  and  C_58
REMARK   23  A    between atoms: C_58  and  O_59
REMARK   24  A    between atoms: O_59  and  C_60
REMARK   25  A    between atoms: C_60  and  C_62
REMARK   26  A    between atoms: C_63  and  C_64
REMARK   27  A    between atoms: C_66  and  O_71
REMARK   28  A    between atoms: C_67  and  O_70
REMARK                            x       y       z     vdW  Elec       q    Type
REMARK                         _______ _______ _______ _____ _____    ______ ____
ROOT
ATOM      1  C   UNL     1       7.478  -6.015  22.914  0.00  0.00    +0.041 C 
ATOM      2  C   UNL     1       6.725  -4.779  23.407  0.00  0.00    +0.150 C 
ATOM      3  O   UNL     1       7.600  -3.655  23.579  0.00  0.00    -0.334 OA
ATOM      4  C   UNL     1       8.544  -3.782  24.646  0.00  0.00    +0.339 C 
ATOM      5  C   UNL     1       7.816  -3.988  25.993  0.00  0.00    +0.214 C 
ATOM      6  C   UNL     1       6.864  -5.181  25.896  0.00  0.00    +0.187 C 
ATOM      7  C   UNL     1       5.914  -5.016  24.693  0.00  0.00    +0.175 C 
ENDROOT
BRANCH   5   8
ATOM      8  O   UNL     1       7.056  -2.816  26.357  0.00  0.00    -0.383 OA
ATOM      9  H   UNL     1       6.135  -2.995  26.082  0.00  0.00    +0.210 HD
ENDBRANCH   5   8
BRANCH   7  10
ATOM     10  O   UNL     1       5.047  -3.892  24.901  0.00  0.00    -0.387 OA
ATOM     11  H   UNL     1       4.441  -3.854  24.128  0.00  0.00    +0.210 HD
ENDBRANCH   7  10
BRANCH   6  12
ATOM     12  O   UNL     1       6.213  -5.301  27.182  0.00  0.00    -0.340 OA
BRANCH  12  13
ATOM     13  C   UNL     1       5.273  -6.381  27.316  0.00  0.00    +0.282 C 
ATOM     14  O   UNL     1       3.942  -5.884  27.097  0.00  0.00    -0.339 OA
ATOM     15  C   UNL     1       3.479  -4.934  28.081  0.00  0.00    +0.190 C 
ATOM     16  C   UNL     1       3.593  -5.473  29.527  0.00  0.00    +0.178 C 
ATOM     17  C   UNL     1       4.984  -6.054  29.791  0.00  0.00    +0.179 C 
ATOM     18  C   UNL     1       5.314  -7.081  28.694  0.00  0.00    +0.201 C 
BRANCH  18  19
ATOM     19  O   UNL     1       6.558  -7.746  28.958  0.00  0.00    -0.384 OA
ATOM     20  H   UNL     1       7.139  -7.585  28.190  0.00  0.00    +0.210 HD
ENDBRANCH  18  19
BRANCH  17  21
ATOM     21  O   UNL     1       5.982  -5.029  29.886  0.00  0.00    -0.386 OA
ATOM     22  H   UNL     1       6.697  -5.353  30.475  0.00  0.00    +0.210 HD
ENDBRANCH  17  21
BRANCH  16  23
ATOM     23  O   UNL     1       2.617  -6.503  29.740  0.00  0.00    -0.386 OA
ATOM     24  H   UNL     1       2.265  -6.788  28.878  0.00  0.00    +0.210 HD
ENDBRANCH  16  23
BRANCH  15  25
ATOM     25  C   UNL     1       2.009  -4.591  27.773  0.00  0.00    +0.266 C 
BRANCH  25  26
ATOM     26  O   UNL     1       1.787  -3.173  27.688  0.00  0.00    -0.459 OA
BRANCH  26  27
ATOM     27  C   UNL     1       2.444  -2.552  26.684  0.00  0.00    +0.332 C 
ATOM     28  O   UNL     1       2.203  -2.641  25.486  0.00  0.00    -0.246 OA
BRANCH  27  29
ATOM     29  C   UNL     1       3.530  -1.753  27.278  0.00  0.00    +0.092 C 
ATOM     30  C   UNL     1       3.226  -0.804  28.175  0.00  0.00    +0.015 C 
BRANCH  30  31
ATOM     31  C   UNL     1       4.206   0.098  28.796  0.00  0.00    -0.021 A 
ATOM     32  C   UNL     1       3.846   1.072  29.741  0.00  0.00    +0.012 A 
ATOM     33  C   UNL     1       4.812   1.908  30.309  0.00  0.00    +0.050 A 
ATOM     34  C   UNL     1       6.136   1.771  29.921  0.00  0.00    +0.158 A 
ATOM     35  C   UNL     1       6.505   0.826  28.970  0.00  0.00    +0.159 A 
ATOM     36  C   UNL     1       5.548  -0.007  28.399  0.00  0.00    +0.057 A 
BRANCH  35  37
ATOM     37  O   UNL     1       7.826   0.752  28.624  0.00  0.00    -0.503 OA
ATOM     38  H   UNL     1       8.304   0.298  29.341  0.00  0.00    +0.292 HD
ENDBRANCH  35  37
BRANCH  34  39
ATOM     39  O   UNL     1       7.083   2.578  30.484  0.00  0.00    -0.503 OA
ATOM     40  H   UNL     1       6.664   2.915  31.300  0.00  0.00    +0.292 HD
ENDBRANCH  34  39
ENDBRANCH  30  31
ENDBRANCH  27  29
ENDBRANCH  26  27
ENDBRANCH  25  26
ENDBRANCH  15  25
ENDBRANCH  12  13
ENDBRANCH   6  12
BRANCH   4  41
ATOM     41  O   UNL     1       9.358  -2.626  24.840  0.00  0.00    -0.461 OA
BRANCH  41  42
ATOM     42  C   UNL     1       8.872  -1.391  24.561  0.00  0.00    +0.131 A 
ATOM     43  C   UNL     1       8.334  -0.480  25.471  0.00  0.00    +0.093 A 
ATOM     44  C   UNL     1       8.070   0.826  25.060  0.00  0.00    +0.147 A 
ATOM     45  O   UNL     1       7.628   1.727  25.994  0.00  0.00    -0.451 OA
ATOM     46  C   UNL     1       7.112   2.962  25.565  0.00  0.00    +0.181 A 
ATOM     47  C   UNL     1       7.320   3.431  24.308  0.00  0.00    +0.214 A 
ATOM     48  C   UNL     1       8.271   2.625  23.470  0.00  0.00    +0.238 A 
ATOM     49  O   UNL     1       9.033   3.117  22.646  0.00  0.00    -0.283 OA
ATOM     50  C   UNL     1       8.334   1.199  23.753  0.00  0.00    +0.109 A 
ATOM     51  C   UNL     1       8.789   0.270  22.819  0.00  0.00    +0.135 A 
ATOM     52  C   UNL     1       9.071  -1.022  23.229  0.00  0.00    +0.092 A 
BRANCH  46  53
ATOM     53  C   UNL     1       6.387   3.673  26.677  0.00  0.00    +0.025 A 
ATOM     54  C   UNL     1       7.083   4.589  27.504  0.00  0.00    +0.015 A 
ATOM     55  C   UNL     1       6.436   5.343  28.496  0.00  0.00    +0.050 A 
ATOM     56  C   UNL     1       5.073   5.186  28.680  0.00  0.00    +0.158 A 
ATOM     57  C   UNL     1       4.360   4.291  27.894  0.00  0.00    +0.159 A 
ATOM     58  C   UNL     1       5.004   3.549  26.903  0.00  0.00    +0.060 A 
BRANCH  57  59
ATOM     59  O   UNL     1       3.012   4.165  28.105  0.00  0.00    -0.503 OA
ATOM     60  H   UNL     1       2.877   3.522  28.834  0.00  0.00    +0.292 HD
ENDBRANCH  57  59
BRANCH  56  61
ATOM     61  O   UNL     1       4.435   5.935  29.626  0.00  0.00    -0.503 OA
ATOM     62  H   UNL     1       4.486   6.852  29.287  0.00  0.00    +0.292 HD
ENDBRANCH  56  61
ENDBRANCH  46  53
BRANCH  51  63
ATOM     63  O   UNL     1       8.957   0.611  21.510  0.00  0.00    -0.506 OA
ATOM     64  H   UNL     1       8.582   1.491  21.346  0.00  0.00    +0.292 HD
ENDBRANCH  51  63
BRANCH  47  65
ATOM     65  O   UNL     1       6.710   4.580  23.788  0.00  0.00    -0.453 OA
BRANCH  65  66
ATOM     66  C   UNL     1       5.985   4.430  22.552  0.00  0.00    +0.340 C 
ATOM     67  O   UNL     1       5.651   5.712  21.998  0.00  0.00    -0.331 OA
ATOM     68  C   UNL     1       4.403   6.320  22.327  0.00  0.00    +0.179 C 
ATOM     69  C   UNL     1       3.224   5.349  22.263  0.00  0.00    +0.177 C 
ATOM     70  C   UNL     1       3.488   4.126  23.117  0.00  0.00    +0.180 C 
ATOM     71  C   UNL     1       4.790   3.442  22.706  0.00  0.00    +0.214 C 
BRANCH  71  72
ATOM     72  O   UNL     1       4.991   2.382  23.663  0.00  0.00    -0.383 OA
ATOM     73  H   UNL     1       4.185   2.319  24.205  0.00  0.00    +0.210 HD
ENDBRANCH  71  72
BRANCH  70  74
ATOM     74  O   UNL     1       2.368   3.232  22.951  0.00  0.00    -0.386 OA
ATOM     75  H   UNL     1       2.520   2.470  23.546  0.00  0.00    +0.210 HD
ENDBRANCH  70  74
BRANCH  69  76
ATOM     76  O   UNL     1       3.014   4.923  20.906  0.00  0.00    -0.386 OA
ATOM     77  H   UNL     1       3.892   4.635  20.585  0.00  0.00    +0.210 HD
ENDBRANCH  69  76
BRANCH  68  78
ATOM     78  C   UNL     1       4.478   7.068  23.670  0.00  0.00    +0.190 C 
BRANCH  78  79
ATOM     79  O   UNL     1       4.408   6.171  24.787  0.00  0.00    -0.392 OA
ATOM     80  H   UNL     1       5.309   5.820  24.918  0.00  0.00    +0.210 HD
ENDBRANCH  78  79
ENDBRANCH  68  78
ENDBRANCH  65  66
ENDBRANCH  47  65
ENDBRANCH  41  42
ENDBRANCH   4  41
TORSDOF 27
ENDMDL
MODEL 5
REMARK VINA RESULT:      -4.7      2.146     10.783
REMARK  Name = 
REMARK  28 active torsions:
REMARK  status: ('A' for Active; 'I' for Inactive)
REMARK    1  A    between atoms: C_1  and  C_2
REMARK    2  A    between atoms: C_4  and  O_75
REMARK    3  A    between atoms: C_6  and  O_48
REMARK    4  A    between atoms: C_7  and  O_47
REMARK    5  A    between atoms: C_9  and  O_11
REMARK    6  A    between atoms: O_11  and  C_12
REMARK    7  A    between atoms: C_14  and  O_46
REMARK    8  A    between atoms: C_19  and  C_38
REMARK    9  A    between atoms: C_20  and  O_23
REMARK   10  A    between atoms: O_23  and  C_24
REMARK   11  A    between atoms: C_26  and  O_37
REMARK   12  A    between atoms: C_27  and  O_36
REMARK   13  A    between atoms: C_28  and  O_35
REMARK   14  A    between atoms: C_30  and  C_33
REMARK   15  A    between atoms: C_33  and  O_34
REMARK   16  A    between atoms: C_40  and  O_45
REMARK   17  A    between atoms: C_41  and  O_44
REMARK   18  A    between atoms: O_48  and  C_49
REMARK   19  A    between atoms: C_51  and  O_74
REMARK   20  A    between atoms: C_52  and  O_73
REMARK   21  A    between atoms: C_54  and  O_72
REMARK   22  A    between atoms: C_56  and  C_58
REMARK   23  A    between atoms: C_58  and  O_59
REMARK   24  A    between atoms: O_59  and  C_60
REMARK   25  A    between atoms: C_60  and  C_62
REMARK   26  A    between atoms: C_63  and  C_64
REMARK   27  A    between atoms: C_66  and  O_71
REMARK   28  A    between atoms: C_67  and  O_70
REMARK                            x       y       z     vdW  Elec       q    Type
REMARK                         _______ _______ _______ _____ _____    ______ ____
ROOT
ATOM      1  C   UNL     1       8.046  -6.331  23.808  0.00  0.00    +0.041 C 
ATOM      2  C   UNL     1       7.555  -6.019  22.393  0.00  0.00    +0.150 C 
ATOM      3  O   UNL     1       8.036  -4.749  21.931  0.00  0.00    -0.334 OA
ATOM      4  C   UNL     1       7.495  -3.613  22.611  0.00  0.00    +0.339 C 
ATOM      5  C   UNL     1       5.957  -3.581  22.474  0.00  0.00    +0.214 C 
ATOM      6  C   UNL     1       5.361  -4.904  22.959  0.00  0.00    +0.187 C 
ATOM      7  C   UNL     1       6.027  -6.092  22.236  0.00  0.00    +0.175 C 
ENDROOT
BRANCH   5   8
ATOM      8  O   UNL     1       5.561  -3.368  21.103  0.00  0.00    -0.383 OA
ATOM      9  H   UNL     1       6.153  -3.927  20.561  0.00  0.00    +0.210 HD
ENDBRANCH   5   8
BRANCH   7  10
ATOM     10  O   UNL     1       5.709  -6.056  20.837  0.00  0.00    -0.387 OA
ATOM     11  H   UNL     1       6.259  -6.745  20.403  0.00  0.00    +0.210 HD
ENDBRANCH   7  10
BRANCH   6  12
ATOM     12  O   UNL     1       3.928  -4.804  22.789  0.00  0.00    -0.340 OA
BRANCH  12  13
ATOM     13  C   UNL     1       3.161  -4.608  23.988  0.00  0.00    +0.282 C 
ATOM     14  O   UNL     1       3.930  -5.045  25.122  0.00  0.00    -0.339 OA
ATOM     15  C   UNL     1       4.216  -6.460  25.154  0.00  0.00    +0.190 C 
ATOM     16  C   UNL     1       2.939  -7.325  25.037  0.00  0.00    +0.178 C 
ATOM     17  C   UNL     1       2.066  -6.866  23.866  0.00  0.00    +0.179 C 
ATOM     18  C   UNL     1       1.808  -5.355  23.998  0.00  0.00    +0.201 C 
BRANCH  18  19
ATOM     19  O   UNL     1       0.895  -4.892  22.993  0.00  0.00    -0.384 OA
ATOM     20  H   UNL     1       1.385  -4.269  22.423  0.00  0.00    +0.210 HD
ENDBRANCH  18  19
BRANCH  17  21
ATOM     21  O   UNL     1       2.647  -7.205  22.601  0.00  0.00    -0.386 OA
ATOM     22  H   UNL     1       2.224  -6.649  21.912  0.00  0.00    +0.210 HD
ENDBRANCH  17  21
BRANCH  16  23
ATOM     23  O   UNL     1       2.173  -7.229  26.247  0.00  0.00    -0.386 OA
ATOM     24  H   UNL     1       2.006  -8.127  26.586  0.00  0.00    +0.210 HD
ENDBRANCH  16  23
BRANCH  15  25
ATOM     25  C   UNL     1       4.938  -6.782  26.475  0.00  0.00    +0.266 C 
BRANCH  25  26
ATOM     26  O   UNL     1       4.020  -6.952  27.570  0.00  0.00    -0.459 OA
BRANCH  26  27
ATOM     27  C   UNL     1       4.389  -6.353  28.723  0.00  0.00    +0.332 C 
ATOM     28  O   UNL     1       5.070  -6.842  29.616  0.00  0.00    -0.246 OA
BRANCH  27  29
ATOM     29  C   UNL     1       3.810  -4.998  28.737  0.00  0.00    +0.092 C 
ATOM     30  C   UNL     1       4.629  -3.940  28.823  0.00  0.00    +0.015 C 
BRANCH  30  31
ATOM     31  C   UNL     1       4.178  -2.544  28.904  0.00  0.00    -0.021 A 
ATOM     32  C   UNL     1       3.410  -2.057  29.974  0.00  0.00    +0.012 A 
ATOM     33  C   UNL     1       3.004  -0.719  30.011  0.00  0.00    +0.050 A 
ATOM     34  C   UNL     1       3.361   0.124  28.970  0.00  0.00    +0.158 A 
ATOM     35  C   UNL     1       4.102  -0.350  27.892  0.00  0.00    +0.159 A 
ATOM     36  C   UNL     1       4.507  -1.680  27.848  0.00  0.00    +0.057 A 
BRANCH  35  37
ATOM     37  O   UNL     1       4.410   0.533  26.894  0.00  0.00    -0.503 OA
ATOM     38  H   UNL     1       5.337   0.389  26.635  0.00  0.00    +0.292 HD
ENDBRANCH  35  37
BRANCH  34  39
ATOM     39  O   UNL     1       2.977   1.433  29.010  0.00  0.00    -0.503 OA
ATOM     40  H   UNL     1       3.367   1.779  29.837  0.00  0.00    +0.292 HD
ENDBRANCH  34  39
ENDBRANCH  30  31
ENDBRANCH  27  29
ENDBRANCH  26  27
ENDBRANCH  25  26
ENDBRANCH  15  25
ENDBRANCH  12  13
ENDBRANCH   6  12
BRANCH   4  41
ATOM     41  O   UNL     1       7.938  -2.361  22.089  0.00  0.00    -0.461 OA
BRANCH  41  42
ATOM     42  C   UNL     1       7.838  -1.232  22.835  0.00  0.00    +0.131 A 
ATOM     43  C   UNL     1       6.933  -0.187  22.650  0.00  0.00    +0.093 A 
ATOM     44  C   UNL     1       6.822   0.804  23.626  0.00  0.00    +0.147 A 
ATOM     45  O   UNL     1       5.863   1.771  23.467  0.00  0.00    -0.451 OA
ATOM     46  C   UNL     1       5.898   2.913  24.285  0.00  0.00    +0.181 A 
ATOM     47  C   UNL     1       6.635   2.959  25.424  0.00  0.00    +0.214 A 
ATOM     48  C   UNL     1       7.269   1.661  25.833  0.00  0.00    +0.238 A 
ATOM     49  O   UNL     1       7.421   1.317  26.999  0.00  0.00    -0.283 OA
ATOM     50  C   UNL     1       7.617   0.744  24.757  0.00  0.00    +0.109 A 
ATOM     51  C   UNL     1       8.583  -0.250  24.904  0.00  0.00    +0.135 A 
ATOM     52  C   UNL     1       8.682  -1.246  23.948  0.00  0.00    +0.092 A 
BRANCH  46  53
ATOM     53  C   UNL     1       4.989   3.994  23.763  0.00  0.00    +0.025 A 
ATOM     54  C   UNL     1       3.629   4.029  24.157  0.00  0.00    +0.015 A 
ATOM     55  C   UNL     1       2.764   5.064  23.771  0.00  0.00    +0.050 A 
ATOM     56  C   UNL     1       3.248   6.085  22.972  0.00  0.00    +0.158 A 
ATOM     57  C   UNL     1       4.573   6.079  22.557  0.00  0.00    +0.159 A 
ATOM     58  C   UNL     1       5.434   5.053  22.951  0.00  0.00    +0.060 A 
BRANCH  57  59
ATOM     59  O   UNL     1       5.016   7.108  21.768  0.00  0.00    -0.503 OA
ATOM     60  H   UNL     1       4.849   7.950  22.245  0.00  0.00    +0.292 HD
ENDBRANCH  57  59
BRANCH  56  61
ATOM     61  O   UNL     1       2.417   7.107  22.613  0.00  0.00    -0.503 OA
ATOM     62  H   UNL     1       2.986   7.902  22.631  0.00  0.00    +0.292 HD
ENDBRANCH  56  61
ENDBRANCH  46  53
BRANCH  51  63
ATOM     63  O   UNL     1       9.432  -0.256  25.970  0.00  0.00    -0.506 OA
ATOM     64  H   UNL     1      10.300   0.084  25.704  0.00  0.00    +0.292 HD
ENDBRANCH  51  63
BRANCH  47  65
ATOM     65  O   UNL     1       6.818   4.115  26.194  0.00  0.00    -0.453 OA
BRANCH  65  66
ATOM     66  C   UNL     1       5.628   4.772  26.674  0.00  0.00    +0.340 C 
ATOM     67  O   UNL     1       5.739   6.197  26.531  0.00  0.00    -0.331 OA
ATOM     68  C   UNL     1       6.261   6.976  27.607  0.00  0.00    +0.179 C 
ATOM     69  C   UNL     1       5.686   6.584  28.969  0.00  0.00    +0.177 C 
ATOM     70  C   UNL     1       5.864   5.101  29.220  0.00  0.00    +0.180 C 
ATOM     71  C   UNL     1       5.236   4.276  28.098  0.00  0.00    +0.214 C 
BRANCH  71  72
ATOM     72  O   UNL     1       5.579   2.905  28.385  0.00  0.00    -0.383 OA
ATOM     73  H   UNL     1       6.448   2.730  27.984  0.00  0.00    +0.210 HD
ENDBRANCH  71  72
BRANCH  70  74
ATOM     74  O   UNL     1       5.239   4.799  30.485  0.00  0.00    -0.386 OA
ATOM     75  H   UNL     1       5.958   4.669  31.136  0.00  0.00    +0.210 HD
ENDBRANCH  70  74
BRANCH  69  76
ATOM     76  O   UNL     1       4.282   6.892  29.014  0.00  0.00    -0.386 OA
ATOM     77  H   UNL     1       4.047   6.896  29.964  0.00  0.00    +0.210 HD
ENDBRANCH  69  76
BRANCH  68  78
ATOM     78  C   UNL     1       7.799   6.988  27.598  0.00  0.00    +0.190 C 
BRANCH  78  79
ATOM     79  O   UNL     1       8.345   6.659  28.884  0.00  0.00    -0.392 OA
ATOM     80  H   UNL     1       9.164   6.154  28.716  0.00  0.00    +0.210 HD
ENDBRANCH  78  79
ENDBRANCH  68  78
ENDBRANCH  65  66
ENDBRANCH  47  65
ENDBRANCH  41  42
ENDBRANCH   4  41
TORSDOF 27
ENDMDL
MODEL 6
REMARK VINA RESULT:      -4.3      2.226     10.329
REMARK  Name = 
REMARK  28 active torsions:
REMARK  status: ('A' for Active; 'I' for Inactive)
REMARK    1  A    between atoms: C_1  and  C_2
REMARK    2  A    between atoms: C_4  and  O_75
REMARK    3  A    between atoms: C_6  and  O_48
REMARK    4  A    between atoms: C_7  and  O_47
REMARK    5  A    between atoms: C_9  and  O_11
REMARK    6  A    between atoms: O_11  and  C_12
REMARK    7  A    between atoms: C_14  and  O_46
REMARK    8  A    between atoms: C_19  and  C_38
REMARK    9  A    between atoms: C_20  and  O_23
REMARK   10  A    between atoms: O_23  and  C_24
REMARK   11  A    between atoms: C_26  and  O_37
REMARK   12  A    between atoms: C_27  and  O_36
REMARK   13  A    between atoms: C_28  and  O_35
REMARK   14  A    between atoms: C_30  and  C_33
REMARK   15  A    between atoms: C_33  and  O_34
REMARK   16  A    between atoms: C_40  and  O_45
REMARK   17  A    between atoms: C_41  and  O_44
REMARK   18  A    between atoms: O_48  and  C_49
REMARK   19  A    between atoms: C_51  and  O_74
REMARK   20  A    between atoms: C_52  and  O_73
REMARK   21  A    between atoms: C_54  and  O_72
REMARK   22  A    between atoms: C_56  and  C_58
REMARK   23  A    between atoms: C_58  and  O_59
REMARK   24  A    between atoms: O_59  and  C_60
REMARK   25  A    between atoms: C_60  and  C_62
REMARK   26  A    between atoms: C_63  and  C_64
REMARK   27  A    between atoms: C_66  and  O_71
REMARK   28  A    between atoms: C_67  and  O_70
REMARK                            x       y       z     vdW  Elec       q    Type
REMARK                         _______ _______ _______ _____ _____    ______ ____
ROOT
ATOM      1  C   UNL     1       7.561  -6.106  22.422  0.00  0.00    +0.041 C 
ATOM      2  C   UNL     1       6.807  -4.848  22.859  0.00  0.00    +0.150 C 
ATOM      3  O   UNL     1       7.704  -3.774  23.176  0.00  0.00    -0.334 OA
ATOM      4  C   UNL     1       8.500  -3.977  24.348  0.00  0.00    +0.339 C 
ATOM      5  C   UNL     1       7.599  -4.184  25.586  0.00  0.00    +0.214 C 
ATOM      6  C   UNL     1       6.614  -5.326  25.331  0.00  0.00    +0.187 C 
ATOM      7  C   UNL     1       5.832  -5.081  24.025  0.00  0.00    +0.175 C 
ENDROOT
BRANCH   5   8
ATOM      8  O   UNL     1       6.853  -2.986  25.893  0.00  0.00    -0.383 OA
ATOM      9  H   UNL     1       7.116  -2.730  26.800  0.00  0.00    +0.210 HD
ENDBRANCH   5   8
BRANCH   7  10
ATOM     10  O   UNL     1       4.997  -3.922  24.162  0.00  0.00    -0.387 OA
ATOM     11  H   UNL     1       4.067  -4.237  24.132  0.00  0.00    +0.210 HD
ENDBRANCH   7  10
BRANCH   6  12
ATOM     12  O   UNL     1       5.801  -5.449  26.521  0.00  0.00    -0.340 OA
BRANCH  12  13
ATOM     13  C   UNL     1       5.353  -6.776  26.845  0.00  0.00    +0.282 C 
ATOM     14  O   UNL     1       4.062  -7.001  26.253  0.00  0.00    -0.339 OA
ATOM     15  C   UNL     1       3.002  -6.169  26.773  0.00  0.00    +0.190 C 
ATOM     16  C   UNL     1       2.881  -6.257  28.312  0.00  0.00    +0.178 C 
ATOM     17  C   UNL     1       4.242  -6.067  28.985  0.00  0.00    +0.179 C 
ATOM     18  C   UNL     1       5.249  -7.051  28.363  0.00  0.00    +0.201 C 
BRANCH  18  19
ATOM     19  O   UNL     1       6.513  -7.001  29.039  0.00  0.00    -0.384 OA
ATOM     20  H   UNL     1       7.181  -7.369  28.428  0.00  0.00    +0.210 HD
ENDBRANCH  18  19
BRANCH  17  21
ATOM     21  O   UNL     1       4.695  -4.710  28.903  0.00  0.00    -0.386 OA
ATOM     22  H   UNL     1       3.940  -4.123  29.118  0.00  0.00    +0.210 HD
ENDBRANCH  17  21
BRANCH  16  23
ATOM     23  O   UNL     1       2.357  -7.539  28.687  0.00  0.00    -0.386 OA
ATOM     24  H   UNL     1       1.888  -7.452  29.536  0.00  0.00    +0.210 HD
ENDBRANCH  16  23
BRANCH  15  25
ATOM     25  C   UNL     1       1.676  -6.610  26.125  0.00  0.00    +0.266 C 
BRANCH  25  26
ATOM     26  O   UNL     1       0.607  -5.686  26.392  0.00  0.00    -0.459 OA
BRANCH  26  27
ATOM     27  C   UNL     1       0.742  -4.474  25.812  0.00  0.00    +0.332 C 
ATOM     28  O   UNL     1       0.859  -4.244  24.614  0.00  0.00    -0.246 OA
BRANCH  27  29
ATOM     29  C   UNL     1       0.747  -3.457  26.879  0.00  0.00    +0.092 C 
ATOM     30  C   UNL     1       1.056  -2.190  26.571  0.00  0.00    +0.015 C 
BRANCH  30  31
ATOM     31  C   UNL     1       1.153  -1.096  27.547  0.00  0.00    -0.021 A 
ATOM     32  C   UNL     1       0.753  -1.238  28.885  0.00  0.00    +0.012 A 
ATOM     33  C   UNL     1       0.865  -0.169  29.782  0.00  0.00    +0.050 A 
ATOM     34  C   UNL     1       1.368   1.040  29.330  0.00  0.00    +0.158 A 
ATOM     35  C   UNL     1       1.748   1.203  28.003  0.00  0.00    +0.159 A 
ATOM     36  C   UNL     1       1.637   0.145  27.105  0.00  0.00    +0.057 A 
BRANCH  35  37
ATOM     37  O   UNL     1       2.226   2.426  27.621  0.00  0.00    -0.503 OA
ATOM     38  H   UNL     1       1.624   2.794  26.951  0.00  0.00    +0.292 HD
ENDBRANCH  35  37
BRANCH  34  39
ATOM     39  O   UNL     1       1.490   2.080  30.206  0.00  0.00    -0.503 OA
ATOM     40  H   UNL     1       0.689   2.028  30.763  0.00  0.00    +0.292 HD
ENDBRANCH  34  39
ENDBRANCH  30  31
ENDBRANCH  27  29
ENDBRANCH  26  27
ENDBRANCH  25  26
ENDBRANCH  15  25
ENDBRANCH  12  13
ENDBRANCH   6  12
BRANCH   4  41
ATOM     41  O   UNL     1       9.334  -2.868  24.680  0.00  0.00    -0.461 OA
BRANCH  41  42
ATOM     42  C   UNL     1       8.901  -1.598  24.477  0.00  0.00    +0.131 A 
ATOM     43  C   UNL     1       8.473  -0.696  25.451  0.00  0.00    +0.093 A 
ATOM     44  C   UNL     1       8.257   0.637  25.103  0.00  0.00    +0.147 A 
ATOM     45  O   UNL     1       7.925   1.524  26.094  0.00  0.00    -0.451 OA
ATOM     46  C   UNL     1       7.453   2.800  25.742  0.00  0.00    +0.181 A 
ATOM     47  C   UNL     1       7.607   3.305  24.492  0.00  0.00    +0.214 A 
ATOM     48  C   UNL     1       8.458   2.483  23.567  0.00  0.00    +0.238 A 
ATOM     49  O   UNL     1       9.193   2.964  22.713  0.00  0.00    -0.283 OA
ATOM     50  C   UNL     1       8.458   1.045  23.795  0.00  0.00    +0.109 A 
ATOM     51  C   UNL     1       8.802   0.130  22.803  0.00  0.00    +0.135 A 
ATOM     52  C   UNL     1       9.037  -1.190  23.148  0.00  0.00    +0.092 A 
BRANCH  46  53
ATOM     53  C   UNL     1       6.840   3.506  26.923  0.00  0.00    +0.025 A 
ATOM     54  C   UNL     1       7.194   4.849  27.208  0.00  0.00    +0.015 A 
ATOM     55  C   UNL     1       6.586   5.580  28.240  0.00  0.00    +0.050 A 
ATOM     56  C   UNL     1       5.613   4.973  29.014  0.00  0.00    +0.158 A 
ATOM     57  C   UNL     1       5.248   3.656  28.771  0.00  0.00    +0.159 A 
ATOM     58  C   UNL     1       5.846   2.934  27.737  0.00  0.00    +0.060 A 
BRANCH  57  59
ATOM     59  O   UNL     1       4.278   3.090  29.557  0.00  0.00    -0.503 OA
ATOM     60  H   UNL     1       4.640   2.996  30.465  0.00  0.00    +0.292 HD
ENDBRANCH  57  59
BRANCH  56  61
ATOM     61  O   UNL     1       5.001   5.687  30.004  0.00  0.00    -0.503 OA
ATOM     62  H   UNL     1       4.081   5.356  30.011  0.00  0.00    +0.292 HD
ENDBRANCH  56  61
ENDBRANCH  46  53
BRANCH  51  63
ATOM     63  O   UNL     1       8.907   0.511  21.498  0.00  0.00    -0.506 OA
ATOM     64  H   UNL     1       8.707   1.457  21.412  0.00  0.00    +0.292 HD
ENDBRANCH  51  63
BRANCH  47  65
ATOM     65  O   UNL     1       7.032   4.504  24.053  0.00  0.00    -0.453 OA
BRANCH  65  66
ATOM     66  C   UNL     1       6.278   4.453  22.826  0.00  0.00    +0.340 C 
ATOM     67  O   UNL     1       6.002   5.777  22.341  0.00  0.00    -0.331 OA
ATOM     68  C   UNL     1       4.794   6.433  22.725  0.00  0.00    +0.179 C 
ATOM     69  C   UNL     1       3.564   5.528  22.637  0.00  0.00    +0.177 C 
ATOM     70  C   UNL     1       3.778   4.253  23.426  0.00  0.00    +0.180 C 
ATOM     71  C   UNL     1       5.035   3.522  22.956  0.00  0.00    +0.214 C 
BRANCH  71  72
ATOM     72  O   UNL     1       5.197   2.408  23.856  0.00  0.00    -0.383 OA
ATOM     73  H   UNL     1       5.920   1.854  23.512  0.00  0.00    +0.210 HD
ENDBRANCH  71  72
BRANCH  70  74
ATOM     74  O   UNL     1       2.610   3.427  23.239  0.00  0.00    -0.386 OA
ATOM     75  H   UNL     1       1.830   4.007  23.345  0.00  0.00    +0.210 HD
ENDBRANCH  70  74
BRANCH  69  76
ATOM     76  O   UNL     1       3.308   5.182  21.266  0.00  0.00    -0.386 OA
ATOM     77  H   UNL     1       2.339   5.064  21.204  0.00  0.00    +0.210 HD
ENDBRANCH  69  76
BRANCH  68  78
ATOM     78  C   UNL     1       4.932   7.108  24.101  0.00  0.00    +0.190 C 
BRANCH  78  79
ATOM     79  O   UNL     1       6.290   7.105  24.565  0.00  0.00    -0.392 OA
ATOM     80  H   UNL     1       6.335   6.445  25.284  0.00  0.00    +0.210 HD
ENDBRANCH  78  79
ENDBRANCH  68  78
ENDBRANCH  65  66
ENDBRANCH  47  65
ENDBRANCH  41  42
ENDBRANCH   4  41
TORSDOF 27
ENDMDL
MODEL 7
REMARK VINA RESULT:      -4.3      2.142      5.248
REMARK  Name = 
REMARK  28 active torsions:
REMARK  status: ('A' for Active; 'I' for Inactive)
REMARK    1  A    between atoms: C_1  and  C_2
REMARK    2  A    between atoms: C_4  and  O_75
REMARK    3  A    between atoms: C_6  and  O_48
REMARK    4  A    between atoms: C_7  and  O_47
REMARK    5  A    between atoms: C_9  and  O_11
REMARK    6  A    between atoms: O_11  and  C_12
REMARK    7  A    between atoms: C_14  and  O_46
REMARK    8  A    between atoms: C_19  and  C_38
REMARK    9  A    between atoms: C_20  and  O_23
REMARK   10  A    between atoms: O_23  and  C_24
REMARK   11  A    between atoms: C_26  and  O_37
REMARK   12  A    between atoms: C_27  and  O_36
REMARK   13  A    between atoms: C_28  and  O_35
REMARK   14  A    between atoms: C_30  and  C_33
REMARK   15  A    between atoms: C_33  and  O_34
REMARK   16  A    between atoms: C_40  and  O_45
REMARK   17  A    between atoms: C_41  and  O_44
REMARK   18  A    between atoms: O_48  and  C_49
REMARK   19  A    between atoms: C_51  and  O_74
REMARK   20  A    between atoms: C_52  and  O_73
REMARK   21  A    between atoms: C_54  and  O_72
REMARK   22  A    between atoms: C_56  and  C_58
REMARK   23  A    between atoms: C_58  and  O_59
REMARK   24  A    between atoms: O_59  and  C_60
REMARK   25  A    between atoms: C_60  and  C_62
REMARK   26  A    between atoms: C_63  and  C_64
REMARK   27  A    between atoms: C_66  and  O_71
REMARK   28  A    between atoms: C_67  and  O_70
REMARK                            x       y       z     vdW  Elec       q    Type
REMARK                         _______ _______ _______ _____ _____    ______ ____
ROOT
ATOM      1  C   UNL     1      12.056   5.015  21.872  0.00  0.00    +0.041 C 
ATOM      2  C   UNL     1      11.727   5.015  23.366  0.00  0.00    +0.150 C 
ATOM      3  O   UNL     1      12.060   3.764  23.984  0.00  0.00    -0.334 OA
ATOM      4  C   UNL     1      11.254   2.654  23.577  0.00  0.00    +0.339 C 
ATOM      5  C   UNL     1       9.766   2.921  23.891  0.00  0.00    +0.214 C 
ATOM      6  C   UNL     1       9.325   4.241  23.255  0.00  0.00    +0.187 C 
ATOM      7  C   UNL     1      10.267   5.385  23.681  0.00  0.00    +0.175 C 
ENDROOT
BRANCH   5   8
ATOM      8  O   UNL     1       9.539   2.993  25.315  0.00  0.00    -0.383 OA
ATOM      9  H   UNL     1       8.899   3.721  25.450  0.00  0.00    +0.210 HD
ENDBRANCH   5   8
BRANCH   7  10
ATOM     10  O   UNL     1      10.149   5.619  25.092  0.00  0.00    -0.387 OA
ATOM     11  H   UNL     1      11.060   5.754  25.434  0.00  0.00    +0.210 HD
ENDBRANCH   7  10
BRANCH   6  12
ATOM     12  O   UNL     1       7.934   4.428  23.602  0.00  0.00    -0.340 OA
BRANCH  12  13
ATOM     13  C   UNL     1       7.498   5.789  23.753  0.00  0.00    +0.282 C 
ATOM     14  O   UNL     1       7.331   6.084  25.150  0.00  0.00    -0.339 OA
ATOM     15  C   UNL     1       6.283   5.338  25.807  0.00  0.00    +0.190 C 
ATOM     16  C   UNL     1       4.920   5.472  25.090  0.00  0.00    +0.178 C 
ATOM     17  C   UNL     1       5.058   5.209  23.588  0.00  0.00    +0.179 C 
ATOM     18  C   UNL     1       6.172   6.108  23.024  0.00  0.00    +0.201 C 
BRANCH  18  19
ATOM     19  O   UNL     1       6.264   5.991  21.597  0.00  0.00    -0.384 OA
ATOM     20  H   UNL     1       6.915   6.653  21.295  0.00  0.00    +0.210 HD
ENDBRANCH  18  19
BRANCH  17  21
ATOM     21  O   UNL     1       5.290   3.823  23.307  0.00  0.00    -0.386 OA
ATOM     22  H   UNL     1       5.087   3.309  24.117  0.00  0.00    +0.210 HD
ENDBRANCH  17  21
BRANCH  16  23
ATOM     23  O   UNL     1       4.398   6.795  25.279  0.00  0.00    -0.386 OA
ATOM     24  H   UNL     1       3.429   6.767  25.195  0.00  0.00    +0.210 HD
ENDBRANCH  16  23
BRANCH  15  25
ATOM     25  C   UNL     1       6.157   5.849  27.255  0.00  0.00    +0.266 C 
BRANCH  25  26
ATOM     26  O   UNL     1       7.338   5.584  28.031  0.00  0.00    -0.459 OA
BRANCH  26  27
ATOM     27  C   UNL     1       7.147   4.791  29.108  0.00  0.00    +0.332 C 
ATOM     28  O   UNL     1       7.574   4.978  30.240  0.00  0.00    -0.246 OA
BRANCH  27  29
ATOM     29  C   UNL     1       6.344   3.632  28.681  0.00  0.00    +0.092 C 
ATOM     30  C   UNL     1       6.901   2.712  27.880  0.00  0.00    +0.015 C 
BRANCH  30  31
ATOM     31  C   UNL     1       6.194   1.543  27.338  0.00  0.00    -0.021 A 
ATOM     32  C   UNL     1       5.470   0.654  28.148  0.00  0.00    +0.012 A 
ATOM     33  C   UNL     1       4.810  -0.446  27.589  0.00  0.00    +0.050 A 
ATOM     34  C   UNL     1       4.888  -0.656  26.221  0.00  0.00    +0.158 A 
ATOM     35  C   UNL     1       5.619   0.204  25.409  0.00  0.00    +0.159 A 
ATOM     36  C   UNL     1       6.280   1.298  25.959  0.00  0.00    +0.057 A 
BRANCH  35  37
ATOM     37  O   UNL     1       5.663  -0.068  24.069  0.00  0.00    -0.503 OA
ATOM     38  H   UNL     1       6.500   0.280  23.714  0.00  0.00    +0.292 HD
ENDBRANCH  35  37
BRANCH  34  39
ATOM     39  O   UNL     1       4.234  -1.721  25.672  0.00  0.00    -0.503 OA
ATOM     40  H   UNL     1       3.318  -1.646  26.005  0.00  0.00    +0.292 HD
ENDBRANCH  34  39
ENDBRANCH  30  31
ENDBRANCH  27  29
ENDBRANCH  26  27
ENDBRANCH  25  26
ENDBRANCH  15  25
ENDBRANCH  12  13
ENDBRANCH   6  12
BRANCH   4  41
ATOM     41  O   UNL     1      11.561   1.437  24.255  0.00  0.00    -0.461 OA
BRANCH  41  42
ATOM     42  C   UNL     1      10.581   0.545  24.543  0.00  0.00    +0.131 A 
ATOM     43  C   UNL     1      10.072  -0.440  23.694  0.00  0.00    +0.093 A 
ATOM     44  C   UNL     1       9.212  -1.410  24.208  0.00  0.00    +0.147 A 
ATOM     45  O   UNL     1       8.798  -2.420  23.378  0.00  0.00    -0.451 OA
ATOM     46  C   UNL     1       7.741  -3.252  23.786  0.00  0.00    +0.181 A 
ATOM     47  C   UNL     1       7.326  -3.308  25.077  0.00  0.00    +0.214 A 
ATOM     48  C   UNL     1       8.175  -2.553  26.058  0.00  0.00    +0.238 A 
ATOM     49  O   UNL     1       8.374  -2.923  27.209  0.00  0.00    -0.283 OA
ATOM     50  C   UNL     1       8.865  -1.377  25.548  0.00  0.00    +0.109 A 
ATOM     51  C   UNL     1       9.301  -0.346  26.378  0.00  0.00    +0.135 A 
ATOM     52  C   UNL     1      10.171   0.607  25.876  0.00  0.00    +0.092 A 
BRANCH  46  53
ATOM     53  C   UNL     1       7.213  -4.074  22.639  0.00  0.00    +0.025 A 
ATOM     54  C   UNL     1       7.225  -5.489  22.718  0.00  0.00    +0.015 A 
ATOM     55  C   UNL     1       6.665  -6.299  21.718  0.00  0.00    +0.050 A 
ATOM     56  C   UNL     1       6.086  -5.702  20.612  0.00  0.00    +0.158 A 
ATOM     57  C   UNL     1       6.065  -4.318  20.496  0.00  0.00    +0.159 A 
ATOM     58  C   UNL     1       6.614  -3.515  21.497  0.00  0.00    +0.060 A 
BRANCH  57  59
ATOM     59  O   UNL     1       5.481  -3.764  19.388  0.00  0.00    -0.503 OA
ATOM     60  H   UNL     1       4.614  -3.390  19.656  0.00  0.00    +0.292 HD
ENDBRANCH  57  59
BRANCH  56  61
ATOM     61  O   UNL     1       5.518  -6.484  19.649  0.00  0.00    -0.503 OA
ATOM     62  H   UNL     1       4.859  -7.024  20.130  0.00  0.00    +0.292 HD
ENDBRANCH  56  61
ENDBRANCH  46  53
BRANCH  51  63
ATOM     63  O   UNL     1       8.883  -0.259  27.672  0.00  0.00    -0.506 OA
ATOM     64  H   UNL     1       8.709   0.667  27.902  0.00  0.00    +0.292 HD
ENDBRANCH  51  63
BRANCH  47  65
ATOM     65  O   UNL     1       6.191  -4.007  25.506  0.00  0.00    -0.453 OA
BRANCH  65  66
ATOM     66  C   UNL     1       6.403  -5.072  26.454  0.00  0.00    +0.340 C 
ATOM     67  O   UNL     1       6.174  -6.352  25.844  0.00  0.00    -0.331 OA
ATOM     68  C   UNL     1       4.875  -6.940  25.903  0.00  0.00    +0.179 C 
ATOM     69  C   UNL     1       4.235  -6.849  27.288  0.00  0.00    +0.177 C 
ATOM     70  C   UNL     1       4.218  -5.416  27.779  0.00  0.00    +0.180 C 
ATOM     71  C   UNL     1       5.625  -4.821  27.781  0.00  0.00    +0.214 C 
BRANCH  71  72
ATOM     72  O   UNL     1       5.460  -3.434  28.140  0.00  0.00    -0.383 OA
ATOM     73  H   UNL     1       5.860  -3.309  29.019  0.00  0.00    +0.210 HD
ENDBRANCH  71  72
BRANCH  70  74
ATOM     74  O   UNL     1       3.667  -5.421  29.112  0.00  0.00    -0.386 OA
ATOM     75  H   UNL     1       3.087  -4.636  29.185  0.00  0.00    +0.210 HD
ENDBRANCH  70  74
BRANCH  69  76
ATOM     76  O   UNL     1       4.981  -7.645  28.225  0.00  0.00    -0.386 OA
ATOM     77  H   UNL     1       5.826  -7.170  28.355  0.00  0.00    +0.210 HD
ENDBRANCH  69  76
BRANCH  68  78
ATOM     78  C   UNL     1       3.959  -6.395  24.793  0.00  0.00    +0.190 C 
BRANCH  78  79
ATOM     79  O   UNL     1       2.637  -6.947  24.870  0.00  0.00    -0.392 OA
ATOM     80  H   UNL     1       2.629  -7.538  25.648  0.00  0.00    +0.210 HD
ENDBRANCH  78  79
ENDBRANCH  68  78
ENDBRANCH  65  66
ENDBRANCH  47  65
ENDBRANCH  41  42
ENDBRANCH   4  41
TORSDOF 27
ENDMDL
MODEL 8
REMARK VINA RESULT:      -4.1      2.148      5.545
REMARK  Name = 
REMARK  28 active torsions:
REMARK  status: ('A' for Active; 'I' for Inactive)
REMARK    1  A    between atoms: C_1  and  C_2
REMARK    2  A    between atoms: C_4  and  O_75
REMARK    3  A    between atoms: C_6  and  O_48
REMARK    4  A    between atoms: C_7  and  O_47
REMARK    5  A    between atoms: C_9  and  O_11
REMARK    6  A    between atoms: O_11  and  C_12
REMARK    7  A    between atoms: C_14  and  O_46
REMARK    8  A    between atoms: C_19  and  C_38
REMARK    9  A    between atoms: C_20  and  O_23
REMARK   10  A    between atoms: O_23  and  C_24
REMARK   11  A    between atoms: C_26  and  O_37
REMARK   12  A    between atoms: C_27  and  O_36
REMARK   13  A    between atoms: C_28  and  O_35
REMARK   14  A    between atoms: C_30  and  C_33
REMARK   15  A    between atoms: C_33  and  O_34
REMARK   16  A    between atoms: C_40  and  O_45
REMARK   17  A    between atoms: C_41  and  O_44
REMARK   18  A    between atoms: O_48  and  C_49
REMARK   19  A    between atoms: C_51  and  O_74
REMARK   20  A    between atoms: C_52  and  O_73
REMARK   21  A    between atoms: C_54  and  O_72
REMARK   22  A    between atoms: C_56  and  C_58
REMARK   23  A    between atoms: C_58  and  O_59
REMARK   24  A    between atoms: O_59  and  C_60
REMARK   25  A    between atoms: C_60  and  C_62
REMARK   26  A    between atoms: C_63  and  C_64
REMARK   27  A    between atoms: C_66  and  O_71
REMARK   28  A    between atoms: C_67  and  O_70
REMARK                            x       y       z     vdW  Elec       q    Type
REMARK                         _______ _______ _______ _____ _____    ______ ____
ROOT
ATOM      1  C   UNL     1      10.026   5.969  22.659  0.00  0.00    +0.041 C 
ATOM      2  C   UNL     1       9.627   5.557  24.077  0.00  0.00    +0.150 C 
ATOM      3  O   UNL     1      10.316   4.372  24.500  0.00  0.00    -0.334 OA
ATOM      4  C   UNL     1       9.945   3.176  23.807  0.00  0.00    +0.339 C 
ATOM      5  C   UNL     1       8.435   2.897  23.977  0.00  0.00    +0.214 C 
ATOM      6  C   UNL     1       7.625   4.117  23.535  0.00  0.00    +0.187 C 
ATOM      7  C   UNL     1       8.111   5.382  24.270  0.00  0.00    +0.175 C 
ENDROOT
BRANCH   5   8
ATOM      8  O   UNL     1       8.113   2.598  25.352  0.00  0.00    -0.383 OA
ATOM      9  H   UNL     1       8.923   2.211  25.741  0.00  0.00    +0.210 HD
ENDBRANCH   5   8
BRANCH   7  10
ATOM     10  O   UNL     1       7.838   5.270  25.674  0.00  0.00    -0.387 OA
ATOM     11  H   UNL     1       6.998   4.768  25.761  0.00  0.00    +0.210 HD
ENDBRANCH   7  10
BRANCH   6  12
ATOM     12  O   UNL     1       6.231   3.786  23.735  0.00  0.00    -0.340 OA
BRANCH  12  13
ATOM     13  C   UNL     1       5.284   4.814  23.400  0.00  0.00    +0.282 C 
ATOM     14  O   UNL     1       5.016   5.613  24.566  0.00  0.00    -0.339 OA
ATOM     15  C   UNL     1       4.359   4.912  25.644  0.00  0.00    +0.190 C 
ATOM     16  C   UNL     1       3.055   4.214  25.191  0.00  0.00    +0.178 C 
ATOM     17  C   UNL     1       3.284   3.386  23.925  0.00  0.00    +0.179 C 
ATOM     18  C   UNL     1       3.940   4.277  22.856  0.00  0.00    +0.201 C 
BRANCH  18  19
ATOM     19  O   UNL     1       4.068   3.585  21.606  0.00  0.00    -0.384 OA
ATOM     20  H   UNL     1       4.999   3.670  21.324  0.00  0.00    +0.210 HD
ENDBRANCH  18  19
BRANCH  17  21
ATOM     21  O   UNL     1       4.054   2.206  24.189  0.00  0.00    -0.386 OA
ATOM     22  H   UNL     1       4.463   2.301  25.075  0.00  0.00    +0.210 HD
ENDBRANCH  17  21
BRANCH  16  23
ATOM     23  O   UNL     1       2.045   5.197  24.922  0.00  0.00    -0.386 OA
ATOM     24  H   UNL     1       1.261   4.751  24.555  0.00  0.00    +0.210 HD
ENDBRANCH  16  23
BRANCH  15  25
ATOM     25  C   UNL     1       4.041   5.925  26.760  0.00  0.00    +0.266 C 
BRANCH  25  26
ATOM     26  O   UNL     1       4.989   5.860  27.840  0.00  0.00    -0.459 OA
BRANCH  26  27
ATOM     27  C   UNL     1       4.452   5.626  29.057  0.00  0.00    +0.332 C 
ATOM     28  O   UNL     1       4.338   6.430  29.974  0.00  0.00    -0.246 OA
BRANCH  27  29
ATOM     29  C   UNL     1       4.040   4.212  29.107  0.00  0.00    +0.092 C 
ATOM     30  C   UNL     1       4.936   3.261  28.810  0.00  0.00    +0.015 C 
BRANCH  30  31
ATOM     31  C   UNL     1       4.639   1.823  28.767  0.00  0.00    -0.021 A 
ATOM     32  C   UNL     1       5.510   0.887  28.187  0.00  0.00    +0.012 A 
ATOM     33  C   UNL     1       5.188  -0.475  28.170  0.00  0.00    +0.050 A 
ATOM     34  C   UNL     1       3.989  -0.891  28.726  0.00  0.00    +0.158 A 
ATOM     35  C   UNL     1       3.105   0.026  29.283  0.00  0.00    +0.159 A 
ATOM     36  C   UNL     1       3.418   1.382  29.301  0.00  0.00    +0.057 A 
BRANCH  35  37
ATOM     37  O   UNL     1       1.934  -0.451  29.804  0.00  0.00    -0.503 OA
ATOM     38  H   UNL     1       1.349  -0.696  29.066  0.00  0.00    +0.292 HD
ENDBRANCH  35  37
BRANCH  34  39
ATOM     39  O   UNL     1       3.678  -2.221  28.722  0.00  0.00    -0.503 OA
ATOM     40  H   UNL     1       3.772  -2.498  29.654  0.00  0.00    +0.292 HD
ENDBRANCH  34  39
ENDBRANCH  30  31
ENDBRANCH  27  29
ENDBRANCH  26  27
ENDBRANCH  25  26
ENDBRANCH  15  25
ENDBRANCH  12  13
ENDBRANCH   6  12
BRANCH   4  41
ATOM     41  O   UNL     1      10.594   2.002  24.291  0.00  0.00    -0.461 OA
BRANCH  41  42
ATOM     42  C   UNL     1       9.871   0.899  24.609  0.00  0.00    +0.131 A 
ATOM     43  C   UNL     1       9.440  -0.098  23.733  0.00  0.00    +0.093 A 
ATOM     44  C   UNL     1       8.885  -1.270  24.248  0.00  0.00    +0.147 A 
ATOM     45  O   UNL     1       8.553  -2.273  23.374  0.00  0.00    -0.451 OA
ATOM     46  C   UNL     1       7.764  -3.344  23.827  0.00  0.00    +0.181 A 
ATOM     47  C   UNL     1       7.581  -3.594  25.149  0.00  0.00    +0.214 A 
ATOM     48  C   UNL     1       8.409  -2.758  26.082  0.00  0.00    +0.238 A 
ATOM     49  O   UNL     1       8.860  -3.171  27.144  0.00  0.00    -0.283 OA
ATOM     50  C   UNL     1       8.758  -1.423  25.618  0.00  0.00    +0.109 A 
ATOM     51  C   UNL     1       9.106  -0.395  26.491  0.00  0.00    +0.135 A 
ATOM     52  C   UNL     1       9.676   0.761  25.985  0.00  0.00    +0.092 A 
BRANCH  46  53
ATOM     53  C   UNL     1       7.235  -4.163  22.679  0.00  0.00    +0.025 A 
ATOM     54  C   UNL     1       7.241  -5.577  22.757  0.00  0.00    +0.015 A 
ATOM     55  C   UNL     1       6.679  -6.384  21.755  0.00  0.00    +0.050 A 
ATOM     56  C   UNL     1       6.103  -5.784  20.649  0.00  0.00    +0.158 A 
ATOM     57  C   UNL     1       6.088  -4.400  20.534  0.00  0.00    +0.159 A 
ATOM     58  C   UNL     1       6.639  -3.600  21.536  0.00  0.00    +0.060 A 
BRANCH  57  59
ATOM     59  O   UNL     1       5.507  -3.843  19.426  0.00  0.00    -0.503 OA
ATOM     60  H   UNL     1       5.947  -4.216  18.632  0.00  0.00    +0.292 HD
ENDBRANCH  57  59
BRANCH  56  61
ATOM     61  O   UNL     1       5.533  -6.563  19.684  0.00  0.00    -0.503 OA
ATOM     62  H   UNL     1       4.713  -6.900  20.096  0.00  0.00    +0.292 HD
ENDBRANCH  56  61
ENDBRANCH  46  53
BRANCH  51  63
ATOM     63  O   UNL     1       8.893  -0.507  27.832  0.00  0.00    -0.506 OA
ATOM     64  H   UNL     1       8.113  -1.059  27.999  0.00  0.00    +0.292 HD
ENDBRANCH  51  63
BRANCH  47  65
ATOM     65  O   UNL     1       6.693  -4.554  25.649  0.00  0.00    -0.453 OA
BRANCH  65  66
ATOM     66  C   UNL     1       5.534  -4.065  26.353  0.00  0.00    +0.340 C 
ATOM     67  O   UNL     1       5.732  -4.135  27.774  0.00  0.00    -0.331 OA
ATOM     68  C   UNL     1       5.322  -5.301  28.488  0.00  0.00    +0.179 C 
ATOM     69  C   UNL     1       3.935  -5.798  28.083  0.00  0.00    +0.177 C 
ATOM     70  C   UNL     1       3.856  -6.009  26.584  0.00  0.00    +0.180 C 
ATOM     71  C   UNL     1       4.225  -4.731  25.832  0.00  0.00    +0.214 C 
BRANCH  71  72
ATOM     72  O   UNL     1       4.236  -5.092  24.436  0.00  0.00    -0.383 OA
ATOM     73  H   UNL     1       3.435  -4.718  24.029  0.00  0.00    +0.210 HD
ENDBRANCH  71  72
BRANCH  70  74
ATOM     74  O   UNL     1       2.505  -6.408  26.274  0.00  0.00    -0.386 OA
ATOM     75  H   UNL     1       2.563  -7.236  25.755  0.00  0.00    +0.210 HD
ENDBRANCH  70  74
BRANCH  69  76
ATOM     76  O   UNL     1       2.938  -4.834  28.463  0.00  0.00    -0.386 OA
ATOM     77  H   UNL     1       2.084  -5.308  28.409  0.00  0.00    +0.210 HD
ENDBRANCH  69  76
BRANCH  68  78
ATOM     78  C   UNL     1       6.389  -6.408  28.418  0.00  0.00    +0.190 C 
BRANCH  78  79
ATOM     79  O   UNL     1       7.638  -5.917  27.911  0.00  0.00    -0.392 OA
ATOM     80  H   UNL     1       7.564  -4.943  27.886  0.00  0.00    +0.210 HD
ENDBRANCH  78  79
ENDBRANCH  68  78
ENDBRANCH  65  66
ENDBRANCH  47  65
ENDBRANCH  41  42
ENDBRANCH   4  41
TORSDOF 27
ENDMDL
MODEL 9
REMARK VINA RESULT:      -3.9      2.430      5.372
REMARK  Name = 
REMARK  28 active torsions:
REMARK  status: ('A' for Active; 'I' for Inactive)
REMARK    1  A    between atoms: C_1  and  C_2
REMARK    2  A    between atoms: C_4  and  O_75
REMARK    3  A    between atoms: C_6  and  O_48
REMARK    4  A    between atoms: C_7  and  O_47
REMARK    5  A    between atoms: C_9  and  O_11
REMARK    6  A    between atoms: O_11  and  C_12
REMARK    7  A    between atoms: C_14  and  O_46
REMARK    8  A    between atoms: C_19  and  C_38
REMARK    9  A    between atoms: C_20  and  O_23
REMARK   10  A    between atoms: O_23  and  C_24
REMARK   11  A    between atoms: C_26  and  O_37
REMARK   12  A    between atoms: C_27  and  O_36
REMARK   13  A    between atoms: C_28  and  O_35
REMARK   14  A    between atoms: C_30  and  C_33
REMARK   15  A    between atoms: C_33  and  O_34
REMARK   16  A    between atoms: C_40  and  O_45
REMARK   17  A    between atoms: C_41  and  O_44
REMARK   18  A    between atoms: O_48  and  C_49
REMARK   19  A    between atoms: C_51  and  O_74
REMARK   20  A    between atoms: C_52  and  O_73
REMARK   21  A    between atoms: C_54  and  O_72
REMARK   22  A    between atoms: C_56  and  C_58
REMARK   23  A    between atoms: C_58  and  O_59
REMARK   24  A    between atoms: O_59  and  C_60
REMARK   25  A    between atoms: C_60  and  C_62
REMARK   26  A    between atoms: C_63  and  C_64
REMARK   27  A    between atoms: C_66  and  O_71
REMARK   28  A    between atoms: C_67  and  O_70
REMARK                            x       y       z     vdW  Elec       q    Type
REMARK                         _______ _______ _______ _____ _____    ______ ____
ROOT
ATOM      1  C   UNL     1       8.774   6.294  22.632  0.00  0.00    +0.041 C 
ATOM      2  C   UNL     1       8.077   6.157  23.988  0.00  0.00    +0.150 C 
ATOM      3  O   UNL     1       8.622   5.078  24.759  0.00  0.00    -0.334 OA
ATOM      4  C   UNL     1       8.360   3.770  24.239  0.00  0.00    +0.339 C 
ATOM      5  C   UNL     1       6.839   3.521  24.140  0.00  0.00    +0.214 C 
ATOM      6  C   UNL     1       6.180   4.631  23.319  0.00  0.00    +0.187 C 
ATOM      7  C   UNL     1       6.549   6.014  23.889  0.00  0.00    +0.175 C 
ENDROOT
BRANCH   5   8
ATOM      8  O   UNL     1       6.231   3.488  25.449  0.00  0.00    -0.383 OA
ATOM      9  H   UNL     1       6.943   3.708  26.083  0.00  0.00    +0.210 HD
ENDBRANCH   5   8
BRANCH   7  10
ATOM     10  O   UNL     1       5.990   6.171  25.202  0.00  0.00    -0.387 OA
ATOM     11  H   UNL     1       5.083   6.531  25.083  0.00  0.00    +0.210 HD
ENDBRANCH   7  10
BRANCH   6  12
ATOM     12  O   UNL     1       4.764   4.337  23.282  0.00  0.00    -0.340 OA
BRANCH  12  13
ATOM     13  C   UNL     1       3.919   5.369  22.747  0.00  0.00    +0.282 C 
ATOM     14  O   UNL     1       3.429   6.189  23.822  0.00  0.00    -0.339 OA
ATOM     15  C   UNL     1       2.556   5.512  24.752  0.00  0.00    +0.190 C 
ATOM     16  C   UNL     1       1.363   4.820  24.051  0.00  0.00    +0.178 C 
ATOM     17  C   UNL     1       1.836   3.970  22.869  0.00  0.00    +0.179 C 
ATOM     18  C   UNL     1       2.708   4.837  21.946  0.00  0.00    +0.201 C 
BRANCH  18  19
ATOM     19  O   UNL     1       3.080   4.124  20.758  0.00  0.00    -0.384 OA
ATOM     20  H   UNL     1       2.747   3.212  20.854  0.00  0.00    +0.210 HD
ENDBRANCH  18  19
BRANCH  17  21
ATOM     21  O   UNL     1       2.520   2.787  23.301  0.00  0.00    -0.386 OA
ATOM     22  H   UNL     1       2.172   2.538  24.183  0.00  0.00    +0.210 HD
ENDBRANCH  17  21
BRANCH  16  23
ATOM     23  O   UNL     1       0.443   5.809  23.568  0.00  0.00    -0.386 OA
ATOM     24  H   UNL     1       0.042   6.265  24.328  0.00  0.00    +0.210 HD
ENDBRANCH  16  23
BRANCH  15  25
ATOM     25  C   UNL     1       2.030   6.545  25.766  0.00  0.00    +0.266 C 
BRANCH  25  26
ATOM     26  O   UNL     1       2.647   6.404  27.057  0.00  0.00    -0.459 OA
BRANCH  26  27
ATOM     27  C   UNL     1       1.800   6.103  28.065  0.00  0.00    +0.332 C 
ATOM     28  O   UNL     1       1.461   6.841  28.982  0.00  0.00    -0.246 OA
BRANCH  27  29
ATOM     29  C   UNL     1       1.359   4.708  27.886  0.00  0.00    +0.092 C 
ATOM     30  C   UNL     1       2.245   3.717  28.061  0.00  0.00    +0.015 C 
BRANCH  30  31
ATOM     31  C   UNL     1       1.949   2.293  27.858  0.00  0.00    -0.021 A 
ATOM     32  C   UNL     1       0.679   1.829  27.481  0.00  0.00    +0.012 A 
ATOM     33  C   UNL     1       0.443   0.462  27.297  0.00  0.00    +0.050 A 
ATOM     34  C   UNL     1       1.479  -0.435  27.502  0.00  0.00    +0.158 A 
ATOM     35  C   UNL     1       2.736   0.007  27.898  0.00  0.00    +0.159 A 
ATOM     36  C   UNL     1       2.978   1.364  28.085  0.00  0.00    +0.057 A 
BRANCH  35  37
ATOM     37  O   UNL     1       3.711  -0.934  28.093  0.00  0.00    -0.503 OA
ATOM     38  H   UNL     1       3.729  -1.520  27.317  0.00  0.00    +0.292 HD
ENDBRANCH  35  37
BRANCH  34  39
ATOM     39  O   UNL     1       1.254  -1.768  27.311  0.00  0.00    -0.503 OA
ATOM     40  H   UNL     1       1.200  -1.872  26.340  0.00  0.00    +0.292 HD
ENDBRANCH  34  39
ENDBRANCH  30  31
ENDBRANCH  27  29
ENDBRANCH  26  27
ENDBRANCH  25  26
ENDBRANCH  15  25
ENDBRANCH  12  13
ENDBRANCH   6  12
BRANCH   4  41
ATOM     41  O   UNL     1       8.855   2.712  25.059  0.00  0.00    -0.461 OA
BRANCH  41  42
ATOM     42  C   UNL     1       8.137   1.571  25.214  0.00  0.00    +0.131 A 
ATOM     43  C   UNL     1       8.061   0.505  24.317  0.00  0.00    +0.093 A 
ATOM     44  C   UNL     1       7.446  -0.682  24.715  0.00  0.00    +0.147 A 
ATOM     45  O   UNL     1       7.463  -1.747  23.851  0.00  0.00    -0.451 OA
ATOM     46  C   UNL     1       6.640  -2.855  24.112  0.00  0.00    +0.181 A 
ATOM     47  C   UNL     1       6.072  -3.059  25.328  0.00  0.00    +0.214 A 
ATOM     48  C   UNL     1       6.518  -2.120  26.411  0.00  0.00    +0.238 A 
ATOM     49  O   UNL     1       6.643  -2.448  27.586  0.00  0.00    -0.283 OA
ATOM     50  C   UNL     1       6.911  -0.784  25.988  0.00  0.00    +0.109 A 
ATOM     51  C   UNL     1       6.909   0.307  26.855  0.00  0.00    +0.135 A 
ATOM     52  C   UNL     1       7.535   1.480  26.471  0.00  0.00    +0.092 A 
BRANCH  46  53
ATOM     53  C   UNL     1       6.542  -3.764  22.915  0.00  0.00    +0.025 A 
ATOM     54  C   UNL     1       6.750  -5.157  23.065  0.00  0.00    +0.015 A 
ATOM     55  C   UNL     1       6.584  -6.058  22.001  0.00  0.00    +0.050 A 
ATOM     56  C   UNL     1       6.210  -5.573  20.760  0.00  0.00    +0.158 A 
ATOM     57  C   UNL     1       6.007  -4.213  20.573  0.00  0.00    +0.159 A 
ATOM     58  C   UNL     1       6.164  -3.321  21.635  0.00  0.00    +0.060 A 
BRANCH  57  59
ATOM     59  O   UNL     1       5.636  -3.771  19.330  0.00  0.00    -0.503 OA
ATOM     60  H   UNL     1       4.914  -4.351  19.005  0.00  0.00    +0.292 HD
ENDBRANCH  57  59
BRANCH  56  61
ATOM     61  O   UNL     1       6.023  -6.447  19.728  0.00  0.00    -0.503 OA
ATOM     62  H   UNL     1       5.189  -6.910  19.948  0.00  0.00    +0.292 HD
ENDBRANCH  56  61
ENDBRANCH  46  53
BRANCH  51  63
ATOM     63  O   UNL     1       6.298   0.239  28.072  0.00  0.00    -0.506 OA
ATOM     64  H   UNL     1       6.180  -0.688  28.331  0.00  0.00    +0.292 HD
ENDBRANCH  51  63
BRANCH  47  65
ATOM     65  O   UNL     1       5.134  -4.063  25.598  0.00  0.00    -0.453 OA
BRANCH  65  66
ATOM     66  C   UNL     1       3.778  -3.639  25.839  0.00  0.00    +0.340 C 
ATOM     67  O   UNL     1       3.467  -3.696  27.240  0.00  0.00    -0.331 OA
ATOM     68  C   UNL     1       2.893  -4.883  27.788  0.00  0.00    +0.179 C 
ATOM     69  C   UNL     1       1.764  -5.456  26.931  0.00  0.00    +0.177 C 
ATOM     70  C   UNL     1       2.228  -5.672  25.505  0.00  0.00    +0.180 C 
ATOM     71  C   UNL     1       2.772  -4.377  24.905  0.00  0.00    +0.214 C 
BRANCH  71  72
ATOM     72  O   UNL     1       3.292  -4.738  23.609  0.00  0.00    -0.383 OA
ATOM     73  H   UNL     1       2.943  -4.098  22.964  0.00  0.00    +0.210 HD
ENDBRANCH  71  72
BRANCH  70  74
ATOM     74  O   UNL     1       1.095  -6.146  24.748  0.00  0.00    -0.386 OA
ATOM     75  H   UNL     1       1.448  -6.688  24.014  0.00  0.00    +0.210 HD
ENDBRANCH  70  74
BRANCH  69  76
ATOM     76  O   UNL     1       0.649  -4.548  26.918  0.00  0.00    -0.386 OA
ATOM     77  H   UNL     1       0.421  -4.431  25.974  0.00  0.00    +0.210 HD
ENDBRANCH  69  76
BRANCH  68  78
ATOM     78  C   UNL     1       3.971  -5.929  28.119  0.00  0.00    +0.190 C 
BRANCH  78  79
ATOM     79  O   UNL     1       3.416  -7.245  28.260  0.00  0.00    -0.392 OA
ATOM     80  H   UNL     1       4.096  -7.867  27.937  0.00  0.00    +0.210 HD
ENDBRANCH  78  79
ENDBRANCH  68  78
ENDBRANCH  65  66
ENDBRANCH  47  65
ENDBRANCH  41  42
ENDBRANCH   4  41
TORSDOF 27
ENDMDL
