MODEL 1
REMARK VINA RESULT:      -7.8      0.000      0.000
REMARK  Name = 
REMARK  17 active torsions:
REMARK  status: ('A' for Active; 'I' for Inactive)
REMARK    1  A    between atoms: C_3  and  O_46
REMARK    2  A    between atoms: C_4  and  O_45
REMARK    3  A    between atoms: C_6  and  C_7
REMARK    4  A    between atoms: C_8  and  C_9
REMARK    5  A    between atoms: C_9  and  O_11
REMARK    6  A    between atoms: O_11  and  C_12
REMARK    7  A    between atoms: C_13  and  O_44
REMARK    8  A    between atoms: C_14  and  O_43
REMARK    9  A    between atoms: C_15  and  C_40
REMARK   10  A    between atoms: C_17  and  O_18
REMARK   11  A    between atoms: O_18  and  C_19
REMARK   12  A    between atoms: C_20  and  C_32
REMARK   13  A    between atoms: C_24  and  O_31
REMARK   14  A    between atoms: C_26  and  O_30
REMARK   15  A    between atoms: C_34  and  O_39
REMARK   16  A    between atoms: C_35  and  O_38
REMARK   17  A    between atoms: C_40  and  O_42
REMARK                            x       y       z     vdW  Elec       q    Type
REMARK                         _______ _______ _______ _____ _____    ______ ____
ROOT
ATOM      1  C   UNL     1       6.537  -3.988  26.313  0.00  0.00    +0.276 C 
ATOM      2  C   UNL     1       5.477  -3.008  26.896  0.00  0.00    +0.352 C 
ATOM      3  O   UNL     1       4.621  -3.554  27.920  0.00  0.00    -0.321 OA
ATOM      4  C   UNL     1       3.992  -4.780  27.588  0.00  0.00    +0.261 C 
ATOM      5  C   UNL     1       5.040  -5.846  27.281  0.00  0.00    +0.186 C 
ATOM      6  C   UNL     1       5.976  -5.409  26.144  0.00  0.00    +0.193 C 
ENDROOT
BRANCH   6   7
ATOM      7  O   UNL     1       7.041  -6.356  25.978  0.00  0.00    -0.385 OA
ATOM      8  H   UNL     1       7.395  -6.256  25.076  0.00  0.00    +0.210 HD
ENDBRANCH   6   7
BRANCH   5   9
ATOM      9  O   UNL     1       4.436  -7.113  27.004  0.00  0.00    -0.386 OA
ATOM     10  H   UNL     1       3.482  -7.048  27.229  0.00  0.00    +0.210 HD
ENDBRANCH   5   9
BRANCH   4  11
ATOM     11  C   UNL     1       2.893  -4.701  26.519  0.00  0.00    +0.337 C 
ATOM     12  O   UNL     1       2.753  -5.502  25.606  0.00  0.00    -0.248 OA
BRANCH  11  13
ATOM     13  O   UNL     1       2.053  -3.653  26.710  0.00  0.00    -0.479 OA
ATOM     14  H   UNL     1       2.513  -2.789  26.690  0.00  0.00    +0.295 HD
ENDBRANCH  11  13
ENDBRANCH   4  11
BRANCH   2  15
ATOM     15  O   UNL     1       4.694  -2.408  25.845  0.00  0.00    -0.452 OA
BRANCH  15  16
ATOM     16  C   UNL     1       5.370  -1.467  25.061  0.00  0.00    +0.214 A 
ATOM     17  C   UNL     1       5.724  -0.130  25.644  0.00  0.00    +0.238 A 
ATOM     18  O   UNL     1       5.689   0.068  26.851  0.00  0.00    -0.283 OA
ATOM     19  C   UNL     1       6.176   0.924  24.729  0.00  0.00    +0.109 A 
ATOM     20  C   UNL     1       6.474   0.554  23.429  0.00  0.00    +0.147 A 
ATOM     21  C   UNL     1       6.937   1.510  22.517  0.00  0.00    +0.092 A 
ATOM     22  C   UNL     1       7.112   2.824  22.939  0.00  0.00    +0.124 A 
ATOM     23  C   UNL     1       6.834   3.205  24.241  0.00  0.00    +0.091 A 
ATOM     24  O   UNL     1       6.373  -0.738  22.985  0.00  0.00    -0.451 OA
ATOM     25  C   UNL     1       6.357   2.254  25.140  0.00  0.00    +0.135 A 
ATOM     26  C   UNL     1       5.818  -1.725  23.807  0.00  0.00    +0.181 A 
BRANCH  26  27
ATOM     27  C   UNL     1       5.843  -3.071  23.132  0.00  0.00    +0.025 A 
ATOM     28  C   UNL     1       7.065  -3.588  22.632  0.00  0.00    +0.015 A 
ATOM     29  C   UNL     1       7.195  -4.925  22.229  0.00  0.00    +0.050 A 
ATOM     30  C   UNL     1       6.093  -5.755  22.281  0.00  0.00    +0.158 A 
ATOM     31  C   UNL     1       4.858  -5.249  22.660  0.00  0.00    +0.159 A 
ATOM     32  C   UNL     1       4.728  -3.929  23.100  0.00  0.00    +0.060 A 
BRANCH  31  33
ATOM     33  O   UNL     1       3.785  -6.097  22.609  0.00  0.00    -0.503 OA
ATOM     34  H   UNL     1       2.990  -5.548  22.486  0.00  0.00    +0.292 HD
ENDBRANCH  31  33
BRANCH  30  35
ATOM     35  O   UNL     1       6.228  -7.077  21.971  0.00  0.00    -0.503 OA
ATOM     36  H   UNL     1       6.898  -7.409  22.603  0.00  0.00    +0.292 HD
ENDBRANCH  30  35
ENDBRANCH  26  27
BRANCH  25  37
ATOM     37  O   UNL     1       6.053   2.651  26.409  0.00  0.00    -0.506 OA
ATOM     38  H   UNL     1       5.224   2.241  26.701  0.00  0.00    +0.292 HD
ENDBRANCH  25  37
BRANCH  22  39
ATOM     39  O   UNL     1       7.560   3.796  22.099  0.00  0.00    -0.507 OA
ATOM     40  H   UNL     1       8.207   4.353  22.560  0.00  0.00    +0.292 HD
ENDBRANCH  22  39
ENDBRANCH  15  16
ENDBRANCH   2  15
BRANCH   1  41
ATOM     41  O   UNL     1       7.740  -4.003  27.165  0.00  0.00    -0.449 OA
BRANCH  41  42
ATOM     42  C   UNL     1       8.939  -3.888  26.501  0.00  0.00    +0.332 C 
ATOM     43  O   UNL     1       9.819  -4.735  26.473  0.00  0.00    -0.246 OA
BRANCH  42  45
ATOM     44  C   UNL     1       9.644  -2.462  24.597  0.00  0.00    +0.015 C 
ATOM     45  C   UNL     1       9.033  -2.576  25.795  0.00  0.00    +0.092 C 
BRANCH  44  47
ATOM     46  C   UNL     1       9.734  -1.262  22.349  0.00  0.00    +0.012 A 
ATOM     47  C   UNL     1       9.799  -1.245  23.754  0.00  0.00    -0.021 A 
ATOM     48  C   UNL     1      10.047  -0.002  24.375  0.00  0.00    +0.057 A 
ATOM     49  C   UNL     1      10.222   1.154  23.610  0.00  0.00    +0.159 A 
ATOM     50  C   UNL     1      10.160   1.113  22.222  0.00  0.00    +0.158 A 
ATOM     51  C   UNL     1       9.911  -0.092  21.581  0.00  0.00    +0.050 A 
BRANCH  50  52
ATOM     52  O   UNL     1      10.354   2.281  21.539  0.00  0.00    -0.503 OA
ATOM     53  H   UNL     1       9.877   2.992  22.001  0.00  0.00    +0.292 HD
ENDBRANCH  50  52
BRANCH  49  54
ATOM     54  O   UNL     1      10.460   2.347  24.235  0.00  0.00    -0.503 OA
ATOM     55  H   UNL     1       9.636   2.861  24.107  0.00  0.00    +0.292 HD
ENDBRANCH  49  54
ENDBRANCH  44  47
ENDBRANCH  42  45
ENDBRANCH  41  42
ENDBRANCH   1  41
TORSDOF 17
ENDMDL
MODEL 2
REMARK VINA RESULT:      -7.7      1.633      7.799
REMARK  Name = 
REMARK  17 active torsions:
REMARK  status: ('A' for Active; 'I' for Inactive)
REMARK    1  A    between atoms: C_3  and  O_46
REMARK    2  A    between atoms: C_4  and  O_45
REMARK    3  A    between atoms: C_6  and  C_7
REMARK    4  A    between atoms: C_8  and  C_9
REMARK    5  A    between atoms: C_9  and  O_11
REMARK    6  A    between atoms: O_11  and  C_12
REMARK    7  A    between atoms: C_13  and  O_44
REMARK    8  A    between atoms: C_14  and  O_43
REMARK    9  A    between atoms: C_15  and  C_40
REMARK   10  A    between atoms: C_17  and  O_18
REMARK   11  A    between atoms: O_18  and  C_19
REMARK   12  A    between atoms: C_20  and  C_32
REMARK   13  A    between atoms: C_24  and  O_31
REMARK   14  A    between atoms: C_26  and  O_30
REMARK   15  A    between atoms: C_34  and  O_39
REMARK   16  A    between atoms: C_35  and  O_38
REMARK   17  A    between atoms: C_40  and  O_42
REMARK                            x       y       z     vdW  Elec       q    Type
REMARK                         _______ _______ _______ _____ _____    ______ ____
ROOT
ATOM      1  C   UNL     1       9.080  -1.454  24.401  0.00  0.00    +0.276 C 
ATOM      2  C   UNL     1       8.775  -1.673  22.889  0.00  0.00    +0.352 C 
ATOM      3  O   UNL     1       9.709  -1.069  21.971  0.00  0.00    -0.321 OA
ATOM      4  C   UNL     1       9.975   0.305  22.201  0.00  0.00    +0.261 C 
ATOM      5  C   UNL     1      10.547   0.505  23.601  0.00  0.00    +0.186 C 
ATOM      6  C   UNL     1       9.600  -0.036  24.683  0.00  0.00    +0.193 C 
ENDROOT
BRANCH   6   7
ATOM      7  O   UNL     1      10.224   0.025  25.973  0.00  0.00    -0.385 OA
ATOM      8  H   UNL     1      10.585  -0.857  26.175  0.00  0.00    +0.210 HD
ENDBRANCH   6   7
BRANCH   5   9
ATOM      9  O   UNL     1      10.886   1.874  23.840  0.00  0.00    -0.386 OA
ATOM     10  H   UNL     1      11.663   1.892  24.441  0.00  0.00    +0.210 HD
ENDBRANCH   5   9
BRANCH   4  11
ATOM     11  C   UNL     1       8.826   1.271  21.883  0.00  0.00    +0.337 C 
ATOM     12  O   UNL     1       8.438   2.158  22.629  0.00  0.00    -0.248 OA
BRANCH  11  13
ATOM     13  O   UNL     1       8.294   1.064  20.652  0.00  0.00    -0.479 OA
ATOM     14  H   UNL     1       8.938   0.687  20.020  0.00  0.00    +0.295 HD
ENDBRANCH  11  13
ENDBRANCH   4  11
BRANCH   2  15
ATOM     15  O   UNL     1       7.424  -1.281  22.572  0.00  0.00    -0.452 OA
BRANCH  15  16
ATOM     16  C   UNL     1       6.423  -2.056  23.168  0.00  0.00    +0.214 A 
ATOM     17  C   UNL     1       6.198  -3.466  22.704  0.00  0.00    +0.238 A 
ATOM     18  O   UNL     1       7.029  -4.051  22.022  0.00  0.00    -0.283 OA
ATOM     19  C   UNL     1       4.979  -4.151  23.144  0.00  0.00    +0.109 A 
ATOM     20  C   UNL     1       4.234  -3.547  24.143  0.00  0.00    +0.147 A 
ATOM     21  C   UNL     1       3.075  -4.167  24.625  0.00  0.00    +0.092 A 
ATOM     22  C   UNL     1       2.697  -5.400  24.104  0.00  0.00    +0.124 A 
ATOM     23  C   UNL     1       3.440  -6.023  23.116  0.00  0.00    +0.091 A 
ATOM     24  O   UNL     1       4.600  -2.363  24.727  0.00  0.00    -0.451 OA
ATOM     25  C   UNL     1       4.584  -5.395  22.628  0.00  0.00    +0.135 A 
ATOM     26  C   UNL     1       5.685  -1.636  24.226  0.00  0.00    +0.181 A 
BRANCH  26  27
ATOM     27  C   UNL     1       5.929  -0.393  25.041  0.00  0.00    +0.025 A 
ATOM     28  C   UNL     1       6.301  -0.505  26.404  0.00  0.00    +0.015 A 
ATOM     29  C   UNL     1       6.782   0.592  27.135  0.00  0.00    +0.050 A 
ATOM     30  C   UNL     1       6.859   1.827  26.523  0.00  0.00    +0.158 A 
ATOM     31  C   UNL     1       6.397   1.991  25.224  0.00  0.00    +0.159 A 
ATOM     32  C   UNL     1       5.953   0.897  24.478  0.00  0.00    +0.060 A 
BRANCH  31  33
ATOM     33  O   UNL     1       6.418   3.256  24.701  0.00  0.00    -0.503 OA
ATOM     34  H   UNL     1       6.888   3.823  25.338  0.00  0.00    +0.292 HD
ENDBRANCH  31  33
BRANCH  30  35
ATOM     35  O   UNL     1       7.403   2.882  27.196  0.00  0.00    -0.503 OA
ATOM     36  H   UNL     1       6.740   3.597  27.108  0.00  0.00    +0.292 HD
ENDBRANCH  30  35
ENDBRANCH  26  27
BRANCH  25  37
ATOM     37  O   UNL     1       5.287  -6.004  21.630  0.00  0.00    -0.506 OA
ATOM     38  H   UNL     1       5.035  -6.939  21.563  0.00  0.00    +0.292 HD
ENDBRANCH  25  37
BRANCH  22  39
ATOM     39  O   UNL     1       1.582  -6.051  24.533  0.00  0.00    -0.507 OA
ATOM     40  H   UNL     1       1.807  -6.627  25.280  0.00  0.00    +0.292 HD
ENDBRANCH  22  39
ENDBRANCH  15  16
ENDBRANCH   2  15
BRANCH   1  41
ATOM     41  O   UNL     1      10.042  -2.465  24.877  0.00  0.00    -0.449 OA
BRANCH  41  42
ATOM     42  C   UNL     1       9.539  -3.735  25.034  0.00  0.00    +0.332 C 
ATOM     43  O   UNL     1      10.033  -4.755  24.579  0.00  0.00    -0.246 OA
BRANCH  42  45
ATOM     44  C   UNL     1       7.471  -4.786  25.914  0.00  0.00    +0.015 C 
ATOM     45  C   UNL     1       8.292  -3.717  25.854  0.00  0.00    +0.092 C 
BRANCH  44  47
ATOM     46  C   UNL     1       5.736  -3.965  27.593  0.00  0.00    +0.012 A 
ATOM     47  C   UNL     1       6.215  -4.940  26.699  0.00  0.00    -0.021 A 
ATOM     48  C   UNL     1       5.462  -6.126  26.570  0.00  0.00    +0.057 A 
ATOM     49  C   UNL     1       4.291  -6.310  27.312  0.00  0.00    +0.159 A 
ATOM     50  C   UNL     1       3.841  -5.337  28.195  0.00  0.00    +0.158 A 
ATOM     51  C   UNL     1       4.555  -4.157  28.340  0.00  0.00    +0.050 A 
BRANCH  50  52
ATOM     52  O   UNL     1       2.695  -5.593  28.896  0.00  0.00    -0.503 OA
ATOM     53  H   UNL     1       1.947  -5.602  28.274  0.00  0.00    +0.292 HD
ENDBRANCH  50  52
BRANCH  49  54
ATOM     54  O   UNL     1       3.577  -7.469  27.168  0.00  0.00    -0.503 OA
ATOM     55  H   UNL     1       3.958  -8.077  27.835  0.00  0.00    +0.292 HD
ENDBRANCH  49  54
ENDBRANCH  44  47
ENDBRANCH  42  45
ENDBRANCH  41  42
ENDBRANCH   1  41
TORSDOF 17
ENDMDL
MODEL 3
REMARK VINA RESULT:      -6.9      1.891      8.152
REMARK  Name = 
REMARK  17 active torsions:
REMARK  status: ('A' for Active; 'I' for Inactive)
REMARK    1  A    between atoms: C_3  and  O_46
REMARK    2  A    between atoms: C_4  and  O_45
REMARK    3  A    between atoms: C_6  and  C_7
REMARK    4  A    between atoms: C_8  and  C_9
REMARK    5  A    between atoms: C_9  and  O_11
REMARK    6  A    between atoms: O_11  and  C_12
REMARK    7  A    between atoms: C_13  and  O_44
REMARK    8  A    between atoms: C_14  and  O_43
REMARK    9  A    between atoms: C_15  and  C_40
REMARK   10  A    between atoms: C_17  and  O_18
REMARK   11  A    between atoms: O_18  and  C_19
REMARK   12  A    between atoms: C_20  and  C_32
REMARK   13  A    between atoms: C_24  and  O_31
REMARK   14  A    between atoms: C_26  and  O_30
REMARK   15  A    between atoms: C_34  and  O_39
REMARK   16  A    between atoms: C_35  and  O_38
REMARK   17  A    between atoms: C_40  and  O_42
REMARK                            x       y       z     vdW  Elec       q    Type
REMARK                         _______ _______ _______ _____ _____    ______ ____
ROOT
ATOM      1  C   UNL     1       8.233  -1.859  23.166  0.00  0.00    +0.276 C 
ATOM      2  C   UNL     1       7.299  -1.013  24.082  0.00  0.00    +0.352 C 
ATOM      3  O   UNL     1       7.058   0.340  23.646  0.00  0.00    -0.321 OA
ATOM      4  C   UNL     1       8.221   1.091  23.343  0.00  0.00    +0.261 C 
ATOM      5  C   UNL     1       9.016   0.410  22.233  0.00  0.00    +0.186 C 
ATOM      6  C   UNL     1       9.401  -1.028  22.612  0.00  0.00    +0.193 C 
ENDROOT
BRANCH   6   7
ATOM      7  O   UNL     1      10.011  -1.695  21.498  0.00  0.00    -0.385 OA
ATOM      8  H   UNL     1       9.306  -1.946  20.874  0.00  0.00    +0.210 HD
ENDBRANCH   6   7
BRANCH   5   9
ATOM      9  O   UNL     1      10.163   1.178  21.860  0.00  0.00    -0.386 OA
ATOM     10  H   UNL     1      10.847   0.556  21.527  0.00  0.00    +0.210 HD
ENDBRANCH   5   9
BRANCH   4  11
ATOM     11  C   UNL     1       9.093   1.488  24.542  0.00  0.00    +0.337 C 
ATOM     12  O   UNL     1      10.316   1.510  24.534  0.00  0.00    -0.248 OA
BRANCH  11  13
ATOM     13  O   UNL     1       8.360   1.852  25.623  0.00  0.00    -0.479 OA
ATOM     14  H   UNL     1       8.298   2.823  25.730  0.00  0.00    +0.295 HD
ENDBRANCH  11  13
ENDBRANCH   4  11
BRANCH   2  15
ATOM     15  O   UNL     1       7.760  -1.033  25.448  0.00  0.00    -0.452 OA
BRANCH  15  16
ATOM     16  C   UNL     1       7.014  -1.838  26.316  0.00  0.00    +0.214 A 
ATOM     17  C   UNL     1       7.489  -3.225  26.638  0.00  0.00    +0.238 A 
ATOM     18  O   UNL     1       8.634  -3.579  26.390  0.00  0.00    -0.283 OA
ATOM     19  C   UNL     1       6.559  -4.133  27.317  0.00  0.00    +0.109 A 
ATOM     20  C   UNL     1       5.395  -3.586  27.829  0.00  0.00    +0.147 A 
ATOM     21  C   UNL     1       4.482  -4.397  28.512  0.00  0.00    +0.092 A 
ATOM     22  C   UNL     1       4.769  -5.747  28.687  0.00  0.00    +0.124 A 
ATOM     23  C   UNL     1       5.936  -6.305  28.194  0.00  0.00    +0.091 A 
ATOM     24  O   UNL     1       5.099  -2.252  27.733  0.00  0.00    -0.451 OA
ATOM     25  C   UNL     1       6.835  -5.498  27.500  0.00  0.00    +0.135 A 
ATOM     26  C   UNL     1       5.911  -1.403  26.974  0.00  0.00    +0.181 A 
BRANCH  26  27
ATOM     27  C   UNL     1       5.420   0.020  27.041  0.00  0.00    +0.025 A 
ATOM     28  C   UNL     1       5.935   0.898  28.027  0.00  0.00    +0.015 A 
ATOM     29  C   UNL     1       5.709   2.282  27.978  0.00  0.00    +0.050 A 
ATOM     30  C   UNL     1       4.930   2.803  26.964  0.00  0.00    +0.158 A 
ATOM     31  C   UNL     1       4.321   1.955  26.049  0.00  0.00    +0.159 A 
ATOM     32  C   UNL     1       4.572   0.581  26.068  0.00  0.00    +0.060 A 
BRANCH  31  33
ATOM     33  O   UNL     1       3.490   2.521  25.120  0.00  0.00    -0.503 OA
ATOM     34  H   UNL     1       2.638   2.054  25.175  0.00  0.00    +0.292 HD
ENDBRANCH  31  33
BRANCH  30  35
ATOM     35  O   UNL     1       4.773   4.155  26.859  0.00  0.00    -0.503 OA
ATOM     36  H   UNL     1       5.069   4.503  27.724  0.00  0.00    +0.292 HD
ENDBRANCH  30  35
ENDBRANCH  26  27
BRANCH  25  37
ATOM     37  O   UNL     1       7.964  -6.068  26.990  0.00  0.00    -0.506 OA
ATOM     38  H   UNL     1       8.606  -5.383  26.747  0.00  0.00    +0.292 HD
ENDBRANCH  25  37
BRANCH  22  39
ATOM     39  O   UNL     1       3.920  -6.584  29.344  0.00  0.00    -0.507 OA
ATOM     40  H   UNL     1       4.203  -7.503  29.214  0.00  0.00    +0.292 HD
ENDBRANCH  22  39
ENDBRANCH  15  16
ENDBRANCH   2  15
BRANCH   1  41
ATOM     41  O   UNL     1       7.457  -2.462  22.066  0.00  0.00    -0.449 OA
BRANCH  41  42
ATOM     42  C   UNL     1       7.075  -3.769  22.258  0.00  0.00    +0.332 C 
ATOM     43  O   UNL     1       7.730  -4.752  21.947  0.00  0.00    -0.246 OA
BRANCH  42  45
ATOM     44  C   UNL     1       5.453  -4.792  23.832  0.00  0.00    +0.015 C 
ATOM     45  C   UNL     1       5.738  -3.842  22.917  0.00  0.00    +0.092 C 
BRANCH  44  47
ATOM     46  C   UNL     1       3.281  -3.947  24.866  0.00  0.00    +0.012 A 
ATOM     47  C   UNL     1       4.189  -4.986  24.596  0.00  0.00    -0.021 A 
ATOM     48  C   UNL     1       3.879  -6.266  25.101  0.00  0.00    +0.057 A 
ATOM     49  C   UNL     1       2.713  -6.475  25.843  0.00  0.00    +0.159 A 
ATOM     50  C   UNL     1       1.832  -5.432  26.104  0.00  0.00    +0.158 A 
ATOM     51  C   UNL     1       2.105  -4.163  25.615  0.00  0.00    +0.050 A 
BRANCH  50  52
ATOM     52  O   UNL     1       0.718  -5.708  26.848  0.00  0.00    -0.503 OA
ATOM     53  H   UNL     1       0.785  -5.232  27.693  0.00  0.00    +0.292 HD
ENDBRANCH  50  52
BRANCH  49  54
ATOM     54  O   UNL     1       2.432  -7.726  26.322  0.00  0.00    -0.503 OA
ATOM     55  H   UNL     1       1.573  -7.626  26.781  0.00  0.00    +0.292 HD
ENDBRANCH  49  54
ENDBRANCH  44  47
ENDBRANCH  42  45
ENDBRANCH  41  42
ENDBRANCH   1  41
TORSDOF 17
ENDMDL
MODEL 4
REMARK VINA RESULT:      -6.8      2.150      4.466
REMARK  Name = 
REMARK  17 active torsions:
REMARK  status: ('A' for Active; 'I' for Inactive)
REMARK    1  A    between atoms: C_3  and  O_46
REMARK    2  A    between atoms: C_4  and  O_45
REMARK    3  A    between atoms: C_6  and  C_7
REMARK    4  A    between atoms: C_8  and  C_9
REMARK    5  A    between atoms: C_9  and  O_11
REMARK    6  A    between atoms: O_11  and  C_12
REMARK    7  A    between atoms: C_13  and  O_44
REMARK    8  A    between atoms: C_14  and  O_43
REMARK    9  A    between atoms: C_15  and  C_40
REMARK   10  A    between atoms: C_17  and  O_18
REMARK   11  A    between atoms: O_18  and  C_19
REMARK   12  A    between atoms: C_20  and  C_32
REMARK   13  A    between atoms: C_24  and  O_31
REMARK   14  A    between atoms: C_26  and  O_30
REMARK   15  A    between atoms: C_34  and  O_39
REMARK   16  A    between atoms: C_35  and  O_38
REMARK   17  A    between atoms: C_40  and  O_42
REMARK                            x       y       z     vdW  Elec       q    Type
REMARK                         _______ _______ _______ _____ _____    ______ ____
ROOT
ATOM      1  C   UNL     1       4.131  -0.465  27.352  0.00  0.00    +0.276 C 
ATOM      2  C   UNL     1       4.008  -1.866  26.684  0.00  0.00    +0.352 C 
ATOM      3  O   UNL     1       2.803  -2.598  26.987  0.00  0.00    -0.321 OA
ATOM      4  C   UNL     1       2.498  -2.709  28.367  0.00  0.00    +0.261 C 
ATOM      5  C   UNL     1       2.336  -1.323  28.985  0.00  0.00    +0.186 C 
ATOM      6  C   UNL     1       3.595  -0.465  28.792  0.00  0.00    +0.193 C 
ENDROOT
BRANCH   6   7
ATOM      7  O   UNL     1       3.363   0.876  29.244  0.00  0.00    -0.385 OA
ATOM      8  H   UNL     1       2.544   0.879  29.772  0.00  0.00    +0.210 HD
ENDBRANCH   6   7
BRANCH   5   9
ATOM      9  O   UNL     1       1.964  -1.403  30.364  0.00  0.00    -0.386 OA
ATOM     10  H   UNL     1       2.410  -2.189  30.752  0.00  0.00    +0.210 HD
ENDBRANCH   5   9
BRANCH   4  11
ATOM     11  C   UNL     1       3.422  -3.621  29.185  0.00  0.00    +0.337 C 
ATOM     12  O   UNL     1       3.845  -3.360  30.302  0.00  0.00    -0.248 OA
BRANCH  11  13
ATOM     13  O   UNL     1       3.701  -4.787  28.550  0.00  0.00    -0.479 OA
ATOM     14  H   UNL     1       4.585  -5.140  28.777  0.00  0.00    +0.295 HD
ENDBRANCH  11  13
ENDBRANCH   4  11
BRANCH   2  15
ATOM     15  O   UNL     1       5.174  -2.671  26.954  0.00  0.00    -0.452 OA
BRANCH  15  16
ATOM     16  C   UNL     1       6.129  -2.699  25.931  0.00  0.00    +0.214 A 
ATOM     17  C   UNL     1       7.385  -1.888  26.064  0.00  0.00    +0.238 A 
ATOM     18  O   UNL     1       7.731  -1.424  27.142  0.00  0.00    -0.283 OA
ATOM     19  C   UNL     1       8.226  -1.718  24.875  0.00  0.00    +0.109 A 
ATOM     20  C   UNL     1       7.936  -2.504  23.772  0.00  0.00    +0.147 A 
ATOM     21  C   UNL     1       8.721  -2.407  22.618  0.00  0.00    +0.092 A 
ATOM     22  C   UNL     1       9.801  -1.530  22.600  0.00  0.00    +0.124 A 
ATOM     23  C   UNL     1      10.111  -0.749  23.700  0.00  0.00    +0.091 A 
ATOM     24  O   UNL     1       6.921  -3.424  23.765  0.00  0.00    -0.451 OA
ATOM     25  C   UNL     1       9.318  -0.836  24.842  0.00  0.00    +0.135 A 
ATOM     26  C   UNL     1       6.032  -3.501  24.842  0.00  0.00    +0.181 A 
BRANCH  26  27
ATOM     27  C   UNL     1       5.025  -4.603  24.637  0.00  0.00    +0.025 A 
ATOM     28  C   UNL     1       4.196  -4.595  23.487  0.00  0.00    +0.015 A 
ATOM     29  C   UNL     1       3.430  -5.711  23.118  0.00  0.00    +0.050 A 
ATOM     30  C   UNL     1       3.450  -6.836  23.917  0.00  0.00    +0.158 A 
ATOM     31  C   UNL     1       4.164  -6.833  25.106  0.00  0.00    +0.159 A 
ATOM     32  C   UNL     1       4.960  -5.741  25.461  0.00  0.00    +0.060 A 
BRANCH  31  33
ATOM     33  O   UNL     1       4.077  -7.945  25.899  0.00  0.00    -0.503 OA
ATOM     34  H   UNL     1       3.166  -7.983  26.242  0.00  0.00    +0.292 HD
ENDBRANCH  31  33
BRANCH  30  35
ATOM     35  O   UNL     1       2.775  -7.956  23.524  0.00  0.00    -0.503 OA
ATOM     36  H   UNL     1       1.850  -7.793  23.799  0.00  0.00    +0.292 HD
ENDBRANCH  30  35
ENDBRANCH  26  27
BRANCH  25  37
ATOM     37  O   UNL     1       9.614  -0.035  25.905  0.00  0.00    -0.506 OA
ATOM     38  H   UNL     1       9.991   0.805  25.599  0.00  0.00    +0.292 HD
ENDBRANCH  25  37
BRANCH  22  39
ATOM     39  O   UNL     1      10.599  -1.393  21.507  0.00  0.00    -0.507 OA
ATOM     40  H   UNL     1      11.370  -1.976  21.591  0.00  0.00    +0.292 HD
ENDBRANCH  22  39
ENDBRANCH  15  16
ENDBRANCH   2  15
BRANCH   1  41
ATOM     41  O   UNL     1       3.434   0.549  26.538  0.00  0.00    -0.449 OA
BRANCH  41  42
ATOM     42  C   UNL     1       4.110   1.734  26.361  0.00  0.00    +0.332 C 
ATOM     43  O   UNL     1       3.833   2.796  26.896  0.00  0.00    -0.246 OA
BRANCH  42  45
ATOM     44  C   UNL     1       6.142   2.550  25.195  0.00  0.00    +0.015 C 
ATOM     45  C   UNL     1       5.257   1.557  25.422  0.00  0.00    +0.092 C 
BRANCH  44  47
ATOM     46  C   UNL     1       8.594   3.049  24.704  0.00  0.00    +0.012 A 
ATOM     47  C   UNL     1       7.346   2.529  24.318  0.00  0.00    -0.021 A 
ATOM     48  C   UNL     1       7.245   1.982  23.021  0.00  0.00    +0.057 A 
ATOM     49  C   UNL     1       8.350   1.971  22.165  0.00  0.00    +0.159 A 
ATOM     50  C   UNL     1       9.572   2.497  22.565  0.00  0.00    +0.158 A 
ATOM     51  C   UNL     1       9.706   3.035  23.836  0.00  0.00    +0.050 A 
BRANCH  50  52
ATOM     52  O   UNL     1      10.606   2.463  21.670  0.00  0.00    -0.503 OA
ATOM     53  H   UNL     1      10.238   2.334  20.778  0.00  0.00    +0.292 HD
ENDBRANCH  50  52
BRANCH  49  54
ATOM     54  O   UNL     1       8.228   1.435  20.913  0.00  0.00    -0.503 OA
ATOM     55  H   UNL     1       8.001   0.495  21.069  0.00  0.00    +0.292 HD
ENDBRANCH  49  54
ENDBRANCH  44  47
ENDBRANCH  42  45
ENDBRANCH  41  42
ENDBRANCH   1  41
TORSDOF 17
ENDMDL
MODEL 5
REMARK VINA RESULT:      -6.6      2.716      8.763
REMARK  Name = 
REMARK  17 active torsions:
REMARK  status: ('A' for Active; 'I' for Inactive)
REMARK    1  A    between atoms: C_3  and  O_46
REMARK    2  A    between atoms: C_4  and  O_45
REMARK    3  A    between atoms: C_6  and  C_7
REMARK    4  A    between atoms: C_8  and  C_9
REMARK    5  A    between atoms: C_9  and  O_11
REMARK    6  A    between atoms: O_11  and  C_12
REMARK    7  A    between atoms: C_13  and  O_44
REMARK    8  A    between atoms: C_14  and  O_43
REMARK    9  A    between atoms: C_15  and  C_40
REMARK   10  A    between atoms: C_17  and  O_18
REMARK   11  A    between atoms: O_18  and  C_19
REMARK   12  A    between atoms: C_20  and  C_32
REMARK   13  A    between atoms: C_24  and  O_31
REMARK   14  A    between atoms: C_26  and  O_30
REMARK   15  A    between atoms: C_34  and  O_39
REMARK   16  A    between atoms: C_35  and  O_38
REMARK   17  A    between atoms: C_40  and  O_42
REMARK                            x       y       z     vdW  Elec       q    Type
REMARK                         _______ _______ _______ _____ _____    ______ ____
ROOT
ATOM      1  C   UNL     1       5.285   3.470  24.763  0.00  0.00    +0.276 C 
ATOM      2  C   UNL     1       6.618   4.262  24.618  0.00  0.00    +0.352 C 
ATOM      3  O   UNL     1       6.524   5.685  24.833  0.00  0.00    -0.321 OA
ATOM      4  C   UNL     1       5.508   6.339  24.092  0.00  0.00    +0.261 C 
ATOM      5  C   UNL     1       4.142   5.754  24.437  0.00  0.00    +0.186 C 
ATOM      6  C   UNL     1       4.092   4.241  24.178  0.00  0.00    +0.193 C 
ENDROOT
BRANCH   6   7
ATOM      7  O   UNL     1       2.854   3.691  24.652  0.00  0.00    -0.385 OA
ATOM      8  H   UNL     1       3.060   2.899  25.181  0.00  0.00    +0.210 HD
ENDBRANCH   6   7
BRANCH   5   9
ATOM      9  O   UNL     1       3.088   6.438  23.753  0.00  0.00    -0.386 OA
ATOM     10  H   UNL     1       3.259   6.366  22.788  0.00  0.00    +0.210 HD
ENDBRANCH   5   9
BRANCH   4  11
ATOM     11  C   UNL     1       5.745   6.445  22.579  0.00  0.00    +0.337 C 
ATOM     12  O   UNL     1       4.858   6.503  21.740  0.00  0.00    -0.248 OA
BRANCH  11  13
ATOM     13  O   UNL     1       7.062   6.505  22.259  0.00  0.00    -0.479 OA
ATOM     14  H   UNL     1       7.246   7.126  21.526  0.00  0.00    +0.295 HD
ENDBRANCH  11  13
ENDBRANCH   4  11
BRANCH   2  15
ATOM     15  O   UNL     1       7.253   3.980  23.354  0.00  0.00    -0.452 OA
BRANCH  15  16
ATOM     16  C   UNL     1       8.022   2.812  23.321  0.00  0.00    +0.214 A 
ATOM     17  C   UNL     1       7.381   1.509  22.940  0.00  0.00    +0.238 A 
ATOM     18  O   UNL     1       6.287   1.474  22.394  0.00  0.00    -0.283 OA
ATOM     19  C   UNL     1       8.133   0.273  23.182  0.00  0.00    +0.109 A 
ATOM     20  C   UNL     1       9.469   0.397  23.524  0.00  0.00    +0.147 A 
ATOM     21  C   UNL     1      10.245  -0.748  23.740  0.00  0.00    +0.092 A 
ATOM     22  C   UNL     1       9.665  -2.003  23.587  0.00  0.00    +0.124 A 
ATOM     23  C   UNL     1       8.334  -2.142  23.230  0.00  0.00    +0.091 A 
ATOM     24  O   UNL     1      10.097   1.609  23.628  0.00  0.00    -0.451 OA
ATOM     25  C   UNL     1       7.561  -1.001  23.032  0.00  0.00    +0.135 A 
ATOM     26  C   UNL     1       9.362   2.795  23.530  0.00  0.00    +0.181 A 
BRANCH  26  27
ATOM     27  C   UNL     1      10.259   4.001  23.635  0.00  0.00    +0.025 A 
ATOM     28  C   UNL     1       9.795   5.171  24.285  0.00  0.00    +0.015 A 
ATOM     29  C   UNL     1      10.659   6.219  24.634  0.00  0.00    +0.050 A 
ATOM     30  C   UNL     1      11.996   6.130  24.300  0.00  0.00    +0.158 A 
ATOM     31  C   UNL     1      12.459   5.047  23.566  0.00  0.00    +0.159 A 
ATOM     32  C   UNL     1      11.612   3.981  23.249  0.00  0.00    +0.060 A 
BRANCH  31  33
ATOM     33  O   UNL     1      13.775   5.054  23.190  0.00  0.00    -0.503 OA
ATOM     34  H   UNL     1      14.280   4.627  23.904  0.00  0.00    +0.292 HD
ENDBRANCH  31  33
BRANCH  30  35
ATOM     35  O   UNL     1      12.862   7.103  24.708  0.00  0.00    -0.503 OA
ATOM     36  H   UNL     1      12.570   7.905  24.229  0.00  0.00    +0.292 HD
ENDBRANCH  30  35
ENDBRANCH  26  27
BRANCH  25  37
ATOM     37  O   UNL     1       6.243  -1.152  22.715  0.00  0.00    -0.506 OA
ATOM     38  H   UNL     1       5.686  -0.941  23.481  0.00  0.00    +0.292 HD
ENDBRANCH  25  37
BRANCH  22  39
ATOM     39  O   UNL     1      10.369  -3.150  23.782  0.00  0.00    -0.507 OA
ATOM     40  H   UNL     1       9.795  -3.916  23.628  0.00  0.00    +0.292 HD
ENDBRANCH  22  39
ENDBRANCH  15  16
ENDBRANCH   2  15
BRANCH   1  41
ATOM     41  O   UNL     1       5.044   3.136  26.179  0.00  0.00    -0.449 OA
BRANCH  41  42
ATOM     42  C   UNL     1       6.013   2.366  26.779  0.00  0.00    +0.332 C 
ATOM     43  O   UNL     1       6.796   2.751  27.635  0.00  0.00    -0.246 OA
BRANCH  42  45
ATOM     44  C   UNL     1       6.604  -0.040  26.901  0.00  0.00    +0.015 C 
ATOM     45  C   UNL     1       5.984   0.969  26.254  0.00  0.00    +0.092 C 
BRANCH  44  47
ATOM     46  C   UNL     1       5.547  -2.181  26.005  0.00  0.00    +0.012 A 
ATOM     47  C   UNL     1       6.649  -1.482  26.531  0.00  0.00    -0.021 A 
ATOM     48  C   UNL     1       7.842  -2.209  26.729  0.00  0.00    +0.057 A 
ATOM     49  C   UNL     1       7.908  -3.569  26.415  0.00  0.00    +0.159 A 
ATOM     50  C   UNL     1       6.805  -4.241  25.903  0.00  0.00    +0.158 A 
ATOM     51  C   UNL     1       5.619  -3.553  25.689  0.00  0.00    +0.050 A 
BRANCH  50  52
ATOM     52  O   UNL     1       6.939  -5.575  25.630  0.00  0.00    -0.503 OA
ATOM     53  H   UNL     1       7.097  -6.047  26.466  0.00  0.00    +0.292 HD
ENDBRANCH  50  52
BRANCH  49  54
ATOM     54  O   UNL     1       9.076  -4.252  26.615  0.00  0.00    -0.503 OA
ATOM     55  H   UNL     1       9.779  -3.583  26.477  0.00  0.00    +0.292 HD
ENDBRANCH  49  54
ENDBRANCH  44  47
ENDBRANCH  42  45
ENDBRANCH  41  42
ENDBRANCH   1  41
TORSDOF 17
ENDMDL
MODEL 6
REMARK VINA RESULT:      -6.5      2.635      6.822
REMARK  Name = 
REMARK  17 active torsions:
REMARK  status: ('A' for Active; 'I' for Inactive)
REMARK    1  A    between atoms: C_3  and  O_46
REMARK    2  A    between atoms: C_4  and  O_45
REMARK    3  A    between atoms: C_6  and  C_7
REMARK    4  A    between atoms: C_8  and  C_9
REMARK    5  A    between atoms: C_9  and  O_11
REMARK    6  A    between atoms: O_11  and  C_12
REMARK    7  A    between atoms: C_13  and  O_44
REMARK    8  A    between atoms: C_14  and  O_43
REMARK    9  A    between atoms: C_15  and  C_40
REMARK   10  A    between atoms: C_17  and  O_18
REMARK   11  A    between atoms: O_18  and  C_19
REMARK   12  A    between atoms: C_20  and  C_32
REMARK   13  A    between atoms: C_24  and  O_31
REMARK   14  A    between atoms: C_26  and  O_30
REMARK   15  A    between atoms: C_34  and  O_39
REMARK   16  A    between atoms: C_35  and  O_38
REMARK   17  A    between atoms: C_40  and  O_42
REMARK                            x       y       z     vdW  Elec       q    Type
REMARK                         _______ _______ _______ _____ _____    ______ ____
ROOT
ATOM      1  C   UNL     1       5.985   0.957  26.149  0.00  0.00    +0.276 C 
ATOM      2  C   UNL     1       6.838   2.259  26.214  0.00  0.00    +0.352 C 
ATOM      3  O   UNL     1       6.375   3.261  27.141  0.00  0.00    -0.321 OA
ATOM      4  C   UNL     1       5.004   3.605  27.021  0.00  0.00    +0.261 C 
ATOM      5  C   UNL     1       4.130   2.373  27.237  0.00  0.00    +0.186 C 
ATOM      6  C   UNL     1       4.480   1.250  26.250  0.00  0.00    +0.193 C 
ENDROOT
BRANCH   6   7
ATOM      7  O   UNL     1       3.753   0.055  26.570  0.00  0.00    -0.385 OA
ATOM      8  H   UNL     1       4.171  -0.351  27.351  0.00  0.00    +0.210 HD
ENDBRANCH   6   7
BRANCH   5   9
ATOM      9  O   UNL     1       2.739   2.700  27.186  0.00  0.00    -0.386 OA
ATOM     10  H   UNL     1       2.234   1.861  27.100  0.00  0.00    +0.210 HD
ENDBRANCH   5   9
BRANCH   4  11
ATOM     11  C   UNL     1       4.620   4.395  25.763  0.00  0.00    +0.337 C 
ATOM     12  O   UNL     1       3.592   4.225  25.123  0.00  0.00    -0.248 OA
BRANCH  11  13
ATOM     13  O   UNL     1       5.535   5.344  25.442  0.00  0.00    -0.479 OA
ATOM     14  H   UNL     1       5.702   5.399  24.479  0.00  0.00    +0.295 HD
ENDBRANCH  11  13
ENDBRANCH   4  11
BRANCH   2  15
ATOM     15  O   UNL     1       7.017   2.825  24.900  0.00  0.00    -0.452 OA
BRANCH  15  16
ATOM     16  C   UNL     1       8.344   3.080  24.537  0.00  0.00    +0.214 A 
ATOM     17  C   UNL     1       8.981   4.386  24.913  0.00  0.00    +0.238 A 
ATOM     18  O   UNL     1       8.479   5.118  25.756  0.00  0.00    -0.283 OA
ATOM     19  C   UNL     1      10.260   4.736  24.288  0.00  0.00    +0.109 A 
ATOM     20  C   UNL     1      10.914   3.744  23.577  0.00  0.00    +0.147 A 
ATOM     21  C   UNL     1      12.152   4.009  22.981  0.00  0.00    +0.092 A 
ATOM     22  C   UNL     1      12.723   5.269  23.131  0.00  0.00    +0.124 A 
ATOM     23  C   UNL     1      12.088   6.266  23.852  0.00  0.00    +0.091 A 
ATOM     24  O   UNL     1      10.418   2.473  23.454  0.00  0.00    -0.451 OA
ATOM     25  C   UNL     1      10.848   6.003  24.429  0.00  0.00    +0.135 A 
ATOM     26  C   UNL     1       9.140   2.164  23.931  0.00  0.00    +0.181 A 
BRANCH  26  27
ATOM     27  C   UNL     1       8.820   0.707  23.724  0.00  0.00    +0.025 A 
ATOM     28  C   UNL     1       7.574   0.331  23.162  0.00  0.00    +0.015 A 
ATOM     29  C   UNL     1       7.325  -0.975  22.716  0.00  0.00    +0.050 A 
ATOM     30  C   UNL     1       8.305  -1.936  22.863  0.00  0.00    +0.158 A 
ATOM     31  C   UNL     1       9.493  -1.625  23.510  0.00  0.00    +0.159 A 
ATOM     32  C   UNL     1       9.764  -0.318  23.922  0.00  0.00    +0.060 A 
BRANCH  31  33
ATOM     33  O   UNL     1      10.392  -2.639  23.703  0.00  0.00    -0.503 OA
ATOM     34  H   UNL     1      11.126  -2.495  23.079  0.00  0.00    +0.292 HD
ENDBRANCH  31  33
BRANCH  30  35
ATOM     35  O   UNL     1       8.107  -3.188  22.357  0.00  0.00    -0.503 OA
ATOM     36  H   UNL     1       8.903  -3.361  21.816  0.00  0.00    +0.292 HD
ENDBRANCH  30  35
ENDBRANCH  26  27
BRANCH  25  37
ATOM     37  O   UNL     1      10.218   7.005  25.107  0.00  0.00    -0.506 OA
ATOM     38  H   UNL     1      10.597   7.100  25.996  0.00  0.00    +0.292 HD
ENDBRANCH  25  37
BRANCH  22  39
ATOM     39  O   UNL     1      13.924   5.586  22.576  0.00  0.00    -0.507 OA
ATOM     40  H   UNL     1      13.904   6.500  22.253  0.00  0.00    +0.292 HD
ENDBRANCH  22  39
ENDBRANCH  15  16
ENDBRANCH   2  15
BRANCH   1  41
ATOM     41  O   UNL     1       6.404   0.021  27.209  0.00  0.00    -0.449 OA
BRANCH  41  42
ATOM     42  C   UNL     1       7.154  -1.052  26.789  0.00  0.00    +0.332 C 
ATOM     43  O   UNL     1       8.371  -1.137  26.855  0.00  0.00    -0.246 OA
BRANCH  42  45
ATOM     44  C   UNL     1       6.763  -3.362  25.973  0.00  0.00    +0.015 C 
ATOM     45  C   UNL     1       6.280  -2.131  26.242  0.00  0.00    +0.092 C 
BRANCH  44  47
ATOM     46  C   UNL     1       5.839  -4.803  24.083  0.00  0.00    +0.012 A 
ATOM     47  C   UNL     1       6.026  -4.548  25.453  0.00  0.00    -0.021 A 
ATOM     48  C   UNL     1       5.462  -5.463  26.366  0.00  0.00    +0.057 A 
ATOM     49  C   UNL     1       4.743  -6.572  25.909  0.00  0.00    +0.159 A 
ATOM     50  C   UNL     1       4.564  -6.802  24.551  0.00  0.00    +0.158 A 
ATOM     51  C   UNL     1       5.114  -5.924  23.628  0.00  0.00    +0.050 A 
BRANCH  50  52
ATOM     52  O   UNL     1       3.839  -7.900  24.178  0.00  0.00    -0.503 OA
ATOM     53  H   UNL     1       3.263  -7.652  23.435  0.00  0.00    +0.292 HD
ENDBRANCH  50  52
BRANCH  49  54
ATOM     54  O   UNL     1       4.206  -7.447  26.814  0.00  0.00    -0.503 OA
ATOM     55  H   UNL     1       4.334  -8.329  26.409  0.00  0.00    +0.292 HD
ENDBRANCH  49  54
ENDBRANCH  44  47
ENDBRANCH  42  45
ENDBRANCH  41  42
ENDBRANCH   1  41
TORSDOF 17
ENDMDL
MODEL 7
REMARK VINA RESULT:      -6.4      2.731      6.522
REMARK  Name = 
REMARK  17 active torsions:
REMARK  status: ('A' for Active; 'I' for Inactive)
REMARK    1  A    between atoms: C_3  and  O_46
REMARK    2  A    between atoms: C_4  and  O_45
REMARK    3  A    between atoms: C_6  and  C_7
REMARK    4  A    between atoms: C_8  and  C_9
REMARK    5  A    between atoms: C_9  and  O_11
REMARK    6  A    between atoms: O_11  and  C_12
REMARK    7  A    between atoms: C_13  and  O_44
REMARK    8  A    between atoms: C_14  and  O_43
REMARK    9  A    between atoms: C_15  and  C_40
REMARK   10  A    between atoms: C_17  and  O_18
REMARK   11  A    between atoms: O_18  and  C_19
REMARK   12  A    between atoms: C_20  and  C_32
REMARK   13  A    between atoms: C_24  and  O_31
REMARK   14  A    between atoms: C_26  and  O_30
REMARK   15  A    between atoms: C_34  and  O_39
REMARK   16  A    between atoms: C_35  and  O_38
REMARK   17  A    between atoms: C_40  and  O_42
REMARK                            x       y       z     vdW  Elec       q    Type
REMARK                         _______ _______ _______ _____ _____    ______ ____
ROOT
ATOM      1  C   UNL     1       5.681   2.238  25.651  0.00  0.00    +0.276 C 
ATOM      2  C   UNL     1       6.135   3.584  25.012  0.00  0.00    +0.352 C 
ATOM      3  O   UNL     1       5.135   4.621  24.967  0.00  0.00    -0.321 OA
ATOM      4  C   UNL     1       3.892   4.233  24.407  0.00  0.00    +0.261 C 
ATOM      5  C   UNL     1       3.289   3.080  25.204  0.00  0.00    +0.186 C 
ATOM      6  C   UNL     1       4.239   1.875  25.262  0.00  0.00    +0.193 C 
ENDROOT
BRANCH   6   7
ATOM      7  O   UNL     1       3.719   0.867  26.141  0.00  0.00    -0.385 OA
ATOM      8  H   UNL     1       3.999  -0.002  25.801  0.00  0.00    +0.210 HD
ENDBRANCH   6   7
BRANCH   5   9
ATOM      9  O   UNL     1       2.003   2.709  24.702  0.00  0.00    -0.386 OA
ATOM     10  H   UNL     1       1.877   1.750  24.874  0.00  0.00    +0.210 HD
ENDBRANCH   5   9
BRANCH   4  11
ATOM     11  C   UNL     1       3.890   3.976  22.894  0.00  0.00    +0.337 C 
ATOM     12  O   UNL     1       3.212   3.126  22.335  0.00  0.00    -0.248 OA
BRANCH  11  13
ATOM     13  O   UNL     1       4.705   4.824  22.218  0.00  0.00    -0.479 OA
ATOM     14  H   UNL     1       4.683   5.735  22.573  0.00  0.00    +0.295 HD
ENDBRANCH  11  13
ENDBRANCH   4  11
BRANCH   2  15
ATOM     15  O   UNL     1       6.705   3.369  23.705  0.00  0.00    -0.452 OA
BRANCH  15  16
ATOM     16  C   UNL     1       8.100   3.460  23.641  0.00  0.00    +0.214 A 
ATOM     17  C   UNL     1       8.800   4.620  24.286  0.00  0.00    +0.238 A 
ATOM     18  O   UNL     1       8.228   5.339  25.094  0.00  0.00    -0.283 OA
ATOM     19  C   UNL     1      10.216   4.836  23.968  0.00  0.00    +0.109 A 
ATOM     20  C   UNL     1      10.876   3.827  23.286  0.00  0.00    +0.147 A 
ATOM     21  C   UNL     1      12.235   3.963  22.980  0.00  0.00    +0.092 A 
ATOM     22  C   UNL     1      12.913   5.108  23.385  0.00  0.00    +0.124 A 
ATOM     23  C   UNL     1      12.270   6.117  24.081  0.00  0.00    +0.091 A 
ATOM     24  O   UNL     1      10.264   2.658  22.920  0.00  0.00    -0.451 OA
ATOM     25  C   UNL     1      10.913   5.986  24.369  0.00  0.00    +0.135 A 
ATOM     26  C   UNL     1       8.886   2.497  23.099  0.00  0.00    +0.181 A 
BRANCH  26  27
ATOM     27  C   UNL     1       8.439   1.126  22.663  0.00  0.00    +0.025 A 
ATOM     28  C   UNL     1       9.265   0.352  21.810  0.00  0.00    +0.015 A 
ATOM     29  C   UNL     1       9.024  -1.011  21.580  0.00  0.00    +0.050 A 
ATOM     30  C   UNL     1       7.928  -1.610  22.168  0.00  0.00    +0.158 A 
ATOM     31  C   UNL     1       7.039  -0.852  22.917  0.00  0.00    +0.159 A 
ATOM     32  C   UNL     1       7.293   0.496  23.183  0.00  0.00    +0.060 A 
BRANCH  31  33
ATOM     33  O   UNL     1       5.925  -1.482  23.403  0.00  0.00    -0.503 OA
ATOM     34  H   UNL     1       5.992  -2.420  23.151  0.00  0.00    +0.292 HD
ENDBRANCH  31  33
BRANCH  30  35
ATOM     35  O   UNL     1       7.730  -2.952  22.020  0.00  0.00    -0.503 OA
ATOM     36  H   UNL     1       6.988  -3.021  21.385  0.00  0.00    +0.292 HD
ENDBRANCH  30  35
ENDBRANCH  26  27
BRANCH  25  37
ATOM     37  O   UNL     1      10.284   7.004  25.024  0.00  0.00    -0.506 OA
ATOM     38  H   UNL     1      10.560   7.027  25.955  0.00  0.00    +0.292 HD
ENDBRANCH  25  37
BRANCH  22  39
ATOM     39  O   UNL     1      14.234   5.295  23.116  0.00  0.00    -0.507 OA
ATOM     40  H   UNL     1      14.600   5.955  23.725  0.00  0.00    +0.292 HD
ENDBRANCH  22  39
ENDBRANCH  15  16
ENDBRANCH   2  15
BRANCH   1  41
ATOM     41  O   UNL     1       5.825   2.297  27.117  0.00  0.00    -0.449 OA
BRANCH  41  42
ATOM     42  C   UNL     1       6.788   1.474  27.652  0.00  0.00    +0.332 C 
ATOM     43  O   UNL     1       7.393   1.674  28.695  0.00  0.00    -0.246 OA
BRANCH  42  45
ATOM     44  C   UNL     1       7.975  -0.622  27.058  0.00  0.00    +0.015 C 
ATOM     45  C   UNL     1       7.002   0.274  26.791  0.00  0.00    +0.092 C 
BRANCH  44  47
ATOM     46  C   UNL     1       9.387  -1.990  25.434  0.00  0.00    +0.012 A 
ATOM     47  C   UNL     1       8.302  -1.874  26.322  0.00  0.00    -0.021 A 
ATOM     48  C   UNL     1       7.481  -3.009  26.492  0.00  0.00    +0.057 A 
ATOM     49  C   UNL     1       7.748  -4.191  25.796  0.00  0.00    +0.159 A 
ATOM     50  C   UNL     1       8.821  -4.281  24.918  0.00  0.00    +0.158 A 
ATOM     51  C   UNL     1       9.652  -3.185  24.734  0.00  0.00    +0.050 A 
BRANCH  50  52
ATOM     52  O   UNL     1       9.013  -5.466  24.262  0.00  0.00    -0.503 OA
ATOM     53  H   UNL     1       8.363  -6.110  24.592  0.00  0.00    +0.292 HD
ENDBRANCH  50  52
BRANCH  49  54
ATOM     54  O   UNL     1       6.938  -5.279  25.978  0.00  0.00    -0.503 OA
ATOM     55  H   UNL     1       6.070  -5.003  25.618  0.00  0.00    +0.292 HD
ENDBRANCH  49  54
ENDBRANCH  44  47
ENDBRANCH  42  45
ENDBRANCH  41  42
ENDBRANCH   1  41
TORSDOF 17
ENDMDL
MODEL 8
REMARK VINA RESULT:      -6.2      2.246      7.295
REMARK  Name = 
REMARK  17 active torsions:
REMARK  status: ('A' for Active; 'I' for Inactive)
REMARK    1  A    between atoms: C_3  and  O_46
REMARK    2  A    between atoms: C_4  and  O_45
REMARK    3  A    between atoms: C_6  and  C_7
REMARK    4  A    between atoms: C_8  and  C_9
REMARK    5  A    between atoms: C_9  and  O_11
REMARK    6  A    between atoms: O_11  and  C_12
REMARK    7  A    between atoms: C_13  and  O_44
REMARK    8  A    between atoms: C_14  and  O_43
REMARK    9  A    between atoms: C_15  and  C_40
REMARK   10  A    between atoms: C_17  and  O_18
REMARK   11  A    between atoms: O_18  and  C_19
REMARK   12  A    between atoms: C_20  and  C_32
REMARK   13  A    between atoms: C_24  and  O_31
REMARK   14  A    between atoms: C_26  and  O_30
REMARK   15  A    between atoms: C_34  and  O_39
REMARK   16  A    between atoms: C_35  and  O_38
REMARK   17  A    between atoms: C_40  and  O_42
REMARK                            x       y       z     vdW  Elec       q    Type
REMARK                         _______ _______ _______ _____ _____    ______ ____
ROOT
ATOM      1  C   UNL     1       7.682  -1.273  22.983  0.00  0.00    +0.276 C 
ATOM      2  C   UNL     1       6.726  -0.267  23.692  0.00  0.00    +0.352 C 
ATOM      3  O   UNL     1       6.603   1.024  23.062  0.00  0.00    -0.321 OA
ATOM      4  C   UNL     1       7.831   1.671  22.771  0.00  0.00    +0.261 C 
ATOM      5  C   UNL     1       8.674   0.808  21.837  0.00  0.00    +0.186 C 
ATOM      6  C   UNL     1       8.939  -0.581  22.434  0.00  0.00    +0.193 C 
ENDROOT
BRANCH   6   7
ATOM      7  O   UNL     1       9.600  -1.422  21.477  0.00  0.00    -0.385 OA
ATOM      8  H   UNL     1       8.995  -2.150  21.247  0.00  0.00    +0.210 HD
ENDBRANCH   6   7
BRANCH   5   9
ATOM      9  O   UNL     1       9.892   1.463  21.473  0.00  0.00    -0.386 OA
ATOM     10  H   UNL     1      10.637   0.865  21.704  0.00  0.00    +0.210 HD
ENDBRANCH   5   9
BRANCH   4  11
ATOM     11  C   UNL     1       8.621   2.184  23.983  0.00  0.00    +0.337 C 
ATOM     12  O   UNL     1       8.289   3.134  24.677  0.00  0.00    -0.248 OA
BRANCH  11  13
ATOM     13  O   UNL     1       9.730   1.444  24.235  0.00  0.00    -0.479 OA
ATOM     14  H   UNL     1      10.557   1.901  23.982  0.00  0.00    +0.295 HD
ENDBRANCH  11  13
ENDBRANCH   4  11
BRANCH   2  15
ATOM     15  O   UNL     1       7.068  -0.124  25.085  0.00  0.00    -0.452 OA
BRANCH  15  16
ATOM     16  C   UNL     1       6.128  -0.638  25.985  0.00  0.00    +0.214 A 
ATOM     17  C   UNL     1       4.828   0.082  26.196  0.00  0.00    +0.238 A 
ATOM     18  O   UNL     1       4.445   0.944  25.416  0.00  0.00    -0.283 OA
ATOM     19  C   UNL     1       3.993  -0.319  27.333  0.00  0.00    +0.109 A 
ATOM     20  C   UNL     1       4.338  -1.484  27.996  0.00  0.00    +0.147 A 
ATOM     21  C   UNL     1       3.562  -1.933  29.071  0.00  0.00    +0.092 A 
ATOM     22  C   UNL     1       2.437  -1.208  29.449  0.00  0.00    +0.124 A 
ATOM     23  C   UNL     1       2.072  -0.049  28.785  0.00  0.00    +0.091 A 
ATOM     24  O   UNL     1       5.402  -2.262  27.623  0.00  0.00    -0.451 OA
ATOM     25  C   UNL     1       2.855   0.404  27.726  0.00  0.00    +0.135 A 
ATOM     26  C   UNL     1       6.281  -1.823  26.628  0.00  0.00    +0.181 A 
BRANCH  26  27
ATOM     27  C   UNL     1       7.349  -2.850  26.355  0.00  0.00    +0.025 A 
ATOM     28  C   UNL     1       7.247  -4.143  26.926  0.00  0.00    +0.015 A 
ATOM     29  C   UNL     1       8.063  -5.205  26.510  0.00  0.00    +0.050 A 
ATOM     30  C   UNL     1       9.023  -4.978  25.543  0.00  0.00    +0.158 A 
ATOM     31  C   UNL     1       9.221  -3.698  25.046  0.00  0.00    +0.159 A 
ATOM     32  C   UNL     1       8.387  -2.644  25.427  0.00  0.00    +0.060 A 
BRANCH  31  33
ATOM     33  O   UNL     1      10.243  -3.518  24.154  0.00  0.00    -0.503 OA
ATOM     34  H   UNL     1      11.067  -3.457  24.670  0.00  0.00    +0.292 HD
ENDBRANCH  31  33
BRANCH  30  35
ATOM     35  O   UNL     1       9.765  -6.021  25.070  0.00  0.00    -0.503 OA
ATOM     36  H   UNL     1       9.177  -6.467  24.427  0.00  0.00    +0.292 HD
ENDBRANCH  30  35
ENDBRANCH  26  27
BRANCH  25  37
ATOM     37  O   UNL     1       2.504   1.565  27.104  0.00  0.00    -0.506 OA
ATOM     38  H   UNL     1       3.255   2.179  27.088  0.00  0.00    +0.292 HD
ENDBRANCH  25  37
BRANCH  22  39
ATOM     39  O   UNL     1       1.645  -1.596  30.485  0.00  0.00    -0.507 OA
ATOM     40  H   UNL     1       1.916  -1.134  31.294  0.00  0.00    +0.292 HD
ENDBRANCH  22  39
ENDBRANCH  15  16
ENDBRANCH   2  15
BRANCH   1  41
ATOM     41  O   UNL     1       6.966  -1.981  21.906  0.00  0.00    -0.449 OA
BRANCH  41  42
ATOM     42  C   UNL     1       6.886  -3.347  22.046  0.00  0.00    +0.332 C 
ATOM     43  O   UNL     1       7.668  -4.156  21.572  0.00  0.00    -0.246 OA
BRANCH  42  45
ATOM     44  C   UNL     1       5.694  -4.862  23.608  0.00  0.00    +0.015 C 
ATOM     45  C   UNL     1       5.705  -3.729  22.875  0.00  0.00    +0.092 C 
BRANCH  44  47
ATOM     46  C   UNL     1       3.918  -4.557  25.412  0.00  0.00    +0.012 A 
ATOM     47  C   UNL     1       4.618  -5.371  24.502  0.00  0.00    -0.021 A 
ATOM     48  C   UNL     1       4.281  -6.740  24.467  0.00  0.00    +0.057 A 
ATOM     49  C   UNL     1       3.292  -7.252  25.312  0.00  0.00    +0.159 A 
ATOM     50  C   UNL     1       2.619  -6.432  26.208  0.00  0.00    +0.158 A 
ATOM     51  C   UNL     1       2.921  -5.079  26.262  0.00  0.00    +0.050 A 
BRANCH  50  52
ATOM     52  O   UNL     1       1.673  -7.005  27.012  0.00  0.00    -0.503 OA
ATOM     53  H   UNL     1       1.895  -7.946  27.129  0.00  0.00    +0.292 HD
ENDBRANCH  50  52
BRANCH  49  54
ATOM     54  O   UNL     1       2.983  -8.584  25.258  0.00  0.00    -0.503 OA
ATOM     55  H   UNL     1       2.357  -8.661  24.509  0.00  0.00    +0.292 HD
ENDBRANCH  49  54
ENDBRANCH  44  47
ENDBRANCH  42  45
ENDBRANCH  41  42
ENDBRANCH   1  41
TORSDOF 17
ENDMDL
MODEL 9
REMARK VINA RESULT:      -6.0      2.659      8.180
REMARK  Name = 
REMARK  17 active torsions:
REMARK  status: ('A' for Active; 'I' for Inactive)
REMARK    1  A    between atoms: C_3  and  O_46
REMARK    2  A    between atoms: C_4  and  O_45
REMARK    3  A    between atoms: C_6  and  C_7
REMARK    4  A    between atoms: C_8  and  C_9
REMARK    5  A    between atoms: C_9  and  O_11
REMARK    6  A    between atoms: O_11  and  C_12
REMARK    7  A    between atoms: C_13  and  O_44
REMARK    8  A    between atoms: C_14  and  O_43
REMARK    9  A    between atoms: C_15  and  C_40
REMARK   10  A    between atoms: C_17  and  O_18
REMARK   11  A    between atoms: O_18  and  C_19
REMARK   12  A    between atoms: C_20  and  C_32
REMARK   13  A    between atoms: C_24  and  O_31
REMARK   14  A    between atoms: C_26  and  O_30
REMARK   15  A    between atoms: C_34  and  O_39
REMARK   16  A    between atoms: C_35  and  O_38
REMARK   17  A    between atoms: C_40  and  O_42
REMARK                            x       y       z     vdW  Elec       q    Type
REMARK                         _______ _______ _______ _____ _____    ______ ____
ROOT
ATOM      1  C   UNL     1       8.006   2.112  24.095  0.00  0.00    +0.276 C 
ATOM      2  C   UNL     1       8.190   0.571  24.231  0.00  0.00    +0.352 C 
ATOM      3  O   UNL     1       9.524   0.079  23.986  0.00  0.00    -0.321 OA
ATOM      4  C   UNL     1      10.113   0.516  22.773  0.00  0.00    +0.261 C 
ATOM      5  C   UNL     1      10.197   2.039  22.745  0.00  0.00    +0.186 C 
ATOM      6  C   UNL     1       8.816   2.686  22.922  0.00  0.00    +0.193 C 
ENDROOT
BRANCH   6   7
ATOM      7  O   UNL     1       8.940   4.111  23.044  0.00  0.00    -0.385 OA
ATOM      8  H   UNL     1       9.783   4.376  22.634  0.00  0.00    +0.210 HD
ENDBRANCH   6   7
BRANCH   5   9
ATOM      9  O   UNL     1      10.846   2.508  21.559  0.00  0.00    -0.386 OA
ATOM     10  H   UNL     1      10.255   2.319  20.797  0.00  0.00    +0.210 HD
ENDBRANCH   5   9
BRANCH   4  11
ATOM     11  C   UNL     1       9.513  -0.071  21.488  0.00  0.00    +0.337 C 
ATOM     12  O   UNL     1       8.755   0.528  20.738  0.00  0.00    -0.248 OA
BRANCH  11  13
ATOM     13  O   UNL     1       9.942  -1.334  21.241  0.00  0.00    -0.479 OA
ATOM     14  H   UNL     1      10.110  -1.845  22.058  0.00  0.00    +0.295 HD
ENDBRANCH  11  13
ENDBRANCH   4  11
BRANCH   2  15
ATOM     15  O   UNL     1       7.230  -0.138  23.421  0.00  0.00    -0.452 OA
BRANCH  15  16
ATOM     16  C   UNL     1       6.785  -1.353  23.953  0.00  0.00    +0.214 A 
ATOM     17  C   UNL     1       7.029  -2.629  23.200  0.00  0.00    +0.238 A 
ATOM     18  O   UNL     1       7.836  -2.680  22.281  0.00  0.00    -0.283 OA
ATOM     19  C   UNL     1       6.318  -3.835  23.635  0.00  0.00    +0.109 A 
ATOM     20  C   UNL     1       5.654  -3.779  24.849  0.00  0.00    +0.147 A 
ATOM     21  C   UNL     1       4.981  -4.907  25.332  0.00  0.00    +0.092 A 
ATOM     22  C   UNL     1       5.006  -6.083  24.589  0.00  0.00    +0.124 A 
ATOM     23  C   UNL     1       5.678  -6.158  23.382  0.00  0.00    +0.091 A 
ATOM     24  O   UNL     1       5.653  -2.661  25.642  0.00  0.00    -0.451 OA
ATOM     25  C   UNL     1       6.333  -5.029  22.897  0.00  0.00    +0.135 A 
ATOM     26  C   UNL     1       6.213  -1.467  25.178  0.00  0.00    +0.181 A 
BRANCH  26  27
ATOM     27  C   UNL     1       6.134  -0.387  26.225  0.00  0.00    +0.025 A 
ATOM     28  C   UNL     1       4.924   0.328  26.411  0.00  0.00    +0.015 A 
ATOM     29  C   UNL     1       4.716   1.155  27.524  0.00  0.00    +0.050 A 
ATOM     30  C   UNL     1       5.730   1.312  28.447  0.00  0.00    +0.158 A 
ATOM     31  C   UNL     1       6.964   0.714  28.233  0.00  0.00    +0.159 A 
ATOM     32  C   UNL     1       7.167  -0.142  27.148  0.00  0.00    +0.060 A 
BRANCH  31  33
ATOM     33  O   UNL     1       7.959   0.976  29.137  0.00  0.00    -0.503 OA
ATOM     34  H   UNL     1       8.610   0.255  29.064  0.00  0.00    +0.292 HD
ENDBRANCH  31  33
BRANCH  30  35
ATOM     35  O   UNL     1       5.510   2.047  29.576  0.00  0.00    -0.503 OA
ATOM     36  H   UNL     1       5.697   1.427  30.311  0.00  0.00    +0.292 HD
ENDBRANCH  30  35
ENDBRANCH  26  27
BRANCH  25  37
ATOM     37  O   UNL     1       6.962  -5.107  21.689  0.00  0.00    -0.506 OA
ATOM     38  H   UNL     1       7.852  -5.477  21.796  0.00  0.00    +0.292 HD
ENDBRANCH  25  37
BRANCH  22  39
ATOM     39  O   UNL     1       4.371  -7.212  25.008  0.00  0.00    -0.507 OA
ATOM     40  H   UNL     1       4.090  -7.732  24.239  0.00  0.00    +0.292 HD
ENDBRANCH  22  39
ENDBRANCH  15  16
ENDBRANCH   2  15
BRANCH   1  41
ATOM     41  O   UNL     1       8.373   2.781  25.356  0.00  0.00    -0.449 OA
BRANCH  41  42
ATOM     42  C   UNL     1       7.368   3.501  25.959  0.00  0.00    +0.332 C 
ATOM     43  O   UNL     1       7.451   4.069  27.038  0.00  0.00    -0.246 OA
BRANCH  42  45
ATOM     44  C   UNL     1       5.764   4.617  24.431  0.00  0.00    +0.015 C 
ATOM     45  C   UNL     1       6.140   3.514  25.112  0.00  0.00    +0.092 C 
BRANCH  44  47
ATOM     46  C   UNL     1       3.967   6.027  23.297  0.00  0.00    +0.012 A 
ATOM     47  C   UNL     1       4.592   4.788  23.528  0.00  0.00    -0.021 A 
ATOM     48  C   UNL     1       4.052   3.659  22.877  0.00  0.00    +0.057 A 
ATOM     49  C   UNL     1       2.938   3.783  22.042  0.00  0.00    +0.159 A 
ATOM     50  C   UNL     1       2.331   5.016  21.834  0.00  0.00    +0.158 A 
ATOM     51  C   UNL     1       2.842   6.146  22.454  0.00  0.00    +0.050 A 
BRANCH  50  52
ATOM     52  O   UNL     1       1.237   5.059  21.015  0.00  0.00    -0.503 OA
ATOM     53  H   UNL     1       1.407   5.703  20.306  0.00  0.00    +0.292 HD
ENDBRANCH  50  52
BRANCH  49  54
ATOM     54  O   UNL     1       2.433   2.673  21.421  0.00  0.00    -0.503 OA
ATOM     55  H   UNL     1       1.531   2.936  21.144  0.00  0.00    +0.292 HD
ENDBRANCH  49  54
ENDBRANCH  44  47
ENDBRANCH  42  45
ENDBRANCH  41  42
ENDBRANCH   1  41
TORSDOF 17
ENDMDL
