MODEL 1
REMARK VINA RESULT:      -7.7      0.000      0.000
REMARK  Name = 
REMARK  10 active torsions:
REMARK  status: ('A' for Active; 'I' for Inactive)
REMARK    1  A    between atoms: C_1  and  C_2
REMARK    2  A    between atoms: C_2  and  C_3
REMARK    3  A    between atoms: C_2  and  C_4
REMARK    4  A    between atoms: C_4  and  O_6
REMARK    5  A    between atoms: O_6  and  C_7
REMARK    6  A    between atoms: C_8  and  O_27
REMARK    7  A    between atoms: C_10  and  C_13
REMARK    8  A    between atoms: C_14  and  O_26
REMARK    9  A    between atoms: C_18  and  O_25
REMARK   10  A    between atoms: C_20  and  O_24
REMARK                            x       y       z     vdW  Elec       q    Type
REMARK                         _______ _______ _______ _____ _____    ______ ____
ROOT
ATOM      1  C   UNL     1       7.706  -3.618  25.009  0.00  0.00    +0.181 A 
ATOM      2  O   UNL     1       6.728  -3.917  24.060  0.00  0.00    -0.451 OA
ATOM      3  C   UNL     1       5.821  -4.913  24.312  0.00  0.00    +0.147 A 
ATOM      4  C   UNL     1       5.845  -5.676  25.472  0.00  0.00    +0.109 A 
ATOM      5  C   UNL     1       4.895  -6.687  25.664  0.00  0.00    +0.135 A 
ATOM      6  C   UNL     1       3.915  -6.924  24.705  0.00  0.00    +0.091 A 
ATOM      7  C   UNL     1       3.898  -6.150  23.551  0.00  0.00    +0.124 A 
ATOM      8  C   UNL     1       6.882  -5.396  26.467  0.00  0.00    +0.238 A 
ATOM      9  O   UNL     1       6.956  -6.086  27.480  0.00  0.00    -0.283 OA
ATOM     10  C   UNL     1       4.846  -5.150  23.343  0.00  0.00    +0.092 A 
ATOM     11  C   UNL     1       7.833  -4.287  26.176  0.00  0.00    +0.208 A 
ENDROOT
BRANCH   1  15
ATOM     12  C   UNL     1      10.091  -0.303  23.600  0.00  0.00    +0.173 A 
ATOM     13  C   UNL     1       9.572  -0.270  24.895  0.00  0.00    +0.051 A 
ATOM     14  C   UNL     1       8.817  -1.351  25.377  0.00  0.00    +0.015 A 
ATOM     15  C   UNL     1       8.570  -2.482  24.578  0.00  0.00    +0.025 A 
ATOM     16  C   UNL     1       9.107  -2.496  23.281  0.00  0.00    +0.061 A 
ATOM     17  C   UNL     1       9.854  -1.420  22.798  0.00  0.00    +0.160 A 
BRANCH  17  18
ATOM     18  O   UNL     1      10.295  -1.529  21.509  0.00  0.00    -0.503 OA
ATOM     19  H   UNL     1      10.490  -0.619  21.205  0.00  0.00    +0.292 HD
ENDBRANCH  17  18
BRANCH  12  20
ATOM     20  O   UNL     1      10.663   0.897  23.124  0.00  0.00    -0.422 OA
BRANCH  20  21
ATOM     21  C   UNL     1       9.857   1.796  22.433  0.00  0.00    +0.315 C 
ATOM     22  O   UNL     1       9.153   1.503  21.472  0.00  0.00    -0.250 OA
BRANCH  21  24
ATOM     23  C   UNL     1       9.043   3.207  24.326  0.00  0.00    +0.019 C 
ATOM     24  C   UNL     1       9.918   3.177  23.069  0.00  0.00    +0.092 C 
ATOM     25  C   UNL     1      11.359   3.515  23.451  0.00  0.00    +0.019 C 
ENDBRANCH  21  24
ENDBRANCH  20  21
ENDBRANCH  12  20
ENDBRANCH   1  15
BRANCH   5  26
ATOM     26  O   UNL     1       4.874  -7.488  26.775  0.00  0.00    -0.506 OA
ATOM     27  H   UNL     1       5.715  -8.001  26.797  0.00  0.00    +0.292 HD
ENDBRANCH   5  26
BRANCH   7  28
ATOM     28  O   UNL     1       2.958  -6.341  22.585  0.00  0.00    -0.507 OA
ATOM     29  H   UNL     1       2.154  -5.845  22.825  0.00  0.00    +0.292 HD
ENDBRANCH   7  28
BRANCH  11  30
ATOM     30  O   UNL     1       8.802  -4.044  27.128  0.00  0.00    -0.501 OA
ATOM     31  H   UNL     1       8.648  -3.148  27.478  0.00  0.00    +0.292 HD
ENDBRANCH  11  30
TORSDOF 8
ENDMDL
MODEL 2
REMARK VINA RESULT:      -7.4      1.897      2.557
REMARK  Name = 
REMARK  10 active torsions:
REMARK  status: ('A' for Active; 'I' for Inactive)
REMARK    1  A    between atoms: C_1  and  C_2
REMARK    2  A    between atoms: C_2  and  C_3
REMARK    3  A    between atoms: C_2  and  C_4
REMARK    4  A    between atoms: C_4  and  O_6
REMARK    5  A    between atoms: O_6  and  C_7
REMARK    6  A    between atoms: C_8  and  O_27
REMARK    7  A    between atoms: C_10  and  C_13
REMARK    8  A    between atoms: C_14  and  O_26
REMARK    9  A    between atoms: C_18  and  O_25
REMARK   10  A    between atoms: C_20  and  O_24
REMARK                            x       y       z     vdW  Elec       q    Type
REMARK                         _______ _______ _______ _____ _____    ______ ____
ROOT
ATOM      1  C   UNL     1       8.379  -1.851  24.217  0.00  0.00    +0.181 A 
ATOM      2  O   UNL     1       7.982  -2.522  23.060  0.00  0.00    -0.451 OA
ATOM      3  C   UNL     1       7.243  -3.672  23.164  0.00  0.00    +0.147 A 
ATOM      4  C   UNL     1       6.890  -4.232  24.384  0.00  0.00    +0.109 A 
ATOM      5  C   UNL     1       6.142  -5.416  24.420  0.00  0.00    +0.135 A 
ATOM      6  C   UNL     1       5.736  -6.029  23.239  0.00  0.00    +0.091 A 
ATOM      7  C   UNL     1       6.092  -5.456  22.023  0.00  0.00    +0.124 A 
ATOM      8  C   UNL     1       7.322  -3.558  25.609  0.00  0.00    +0.238 A 
ATOM      9  O   UNL     1       7.065  -4.057  26.702  0.00  0.00    -0.283 OA
ATOM     10  C   UNL     1       6.846  -4.285  21.974  0.00  0.00    +0.092 A 
ATOM     11  C   UNL     1       8.098  -2.294  25.462  0.00  0.00    +0.208 A 
ENDROOT
BRANCH   1  15
ATOM     12  C   UNL     1      10.391   1.860  23.302  0.00  0.00    +0.173 A 
ATOM     13  C   UNL     1      10.753   1.150  24.448  0.00  0.00    +0.051 A 
ATOM     14  C   UNL     1      10.128  -0.070  24.745  0.00  0.00    +0.015 A 
ATOM     15  C   UNL     1       9.134  -0.604  23.905  0.00  0.00    +0.025 A 
ATOM     16  C   UNL     1       8.789   0.124  22.756  0.00  0.00    +0.061 A 
ATOM     17  C   UNL     1       9.407   1.341  22.460  0.00  0.00    +0.160 A 
BRANCH  17  18
ATOM     18  O   UNL     1       8.965   1.978  21.335  0.00  0.00    -0.503 OA
ATOM     19  H   UNL     1       8.548   2.812  21.633  0.00  0.00    +0.292 HD
ENDBRANCH  17  18
BRANCH  12  20
ATOM     20  O   UNL     1      10.918   3.165  23.181  0.00  0.00    -0.422 OA
BRANCH  20  21
ATOM     21  C   UNL     1      10.224   4.224  23.757  0.00  0.00    +0.315 C 
ATOM     22  O   UNL     1       9.168   4.114  24.369  0.00  0.00    -0.250 OA
BRANCH  21  24
ATOM     23  C   UNL     1      10.744   6.439  24.786  0.00  0.00    +0.019 C 
ATOM     24  C   UNL     1      10.986   5.530  23.578  0.00  0.00    +0.092 C 
ATOM     25  C   UNL     1      12.484   5.250  23.451  0.00  0.00    +0.019 C 
ENDBRANCH  21  24
ENDBRANCH  20  21
ENDBRANCH  12  20
ENDBRANCH   1  15
BRANCH   5  26
ATOM     26  O   UNL     1       5.778  -6.030  25.589  0.00  0.00    -0.506 OA
ATOM     27  H   UNL     1       5.315  -5.366  26.152  0.00  0.00    +0.292 HD
ENDBRANCH   5  26
BRANCH   7  28
ATOM     28  O   UNL     1       5.716  -6.016  20.841  0.00  0.00    -0.507 OA
ATOM     29  H   UNL     1       4.754  -6.168  20.855  0.00  0.00    +0.292 HD
ENDBRANCH   7  28
BRANCH  11  30
ATOM     30  O   UNL     1       8.495  -1.679  26.631  0.00  0.00    -0.501 OA
ATOM     31  H   UNL     1       8.986  -2.337  27.155  0.00  0.00    +0.292 HD
ENDBRANCH  11  30
TORSDOF 8
ENDMDL
MODEL 3
REMARK VINA RESULT:      -7.4      1.219      2.695
REMARK  Name = 
REMARK  10 active torsions:
REMARK  status: ('A' for Active; 'I' for Inactive)
REMARK    1  A    between atoms: C_1  and  C_2
REMARK    2  A    between atoms: C_2  and  C_3
REMARK    3  A    between atoms: C_2  and  C_4
REMARK    4  A    between atoms: C_4  and  O_6
REMARK    5  A    between atoms: O_6  and  C_7
REMARK    6  A    between atoms: C_8  and  O_27
REMARK    7  A    between atoms: C_10  and  C_13
REMARK    8  A    between atoms: C_14  and  O_26
REMARK    9  A    between atoms: C_18  and  O_25
REMARK   10  A    between atoms: C_20  and  O_24
REMARK                            x       y       z     vdW  Elec       q    Type
REMARK                         _______ _______ _______ _____ _____    ______ ____
ROOT
ATOM      1  C   UNL     1       7.024  -3.754  24.108  0.00  0.00    +0.181 A 
ATOM      2  O   UNL     1       6.838  -4.288  25.384  0.00  0.00    -0.451 OA
ATOM      3  C   UNL     1       5.952  -5.317  25.565  0.00  0.00    +0.147 A 
ATOM      4  C   UNL     1       5.191  -5.846  24.531  0.00  0.00    +0.109 A 
ATOM      5  C   UNL     1       4.295  -6.891  24.786  0.00  0.00    +0.135 A 
ATOM      6  C   UNL     1       4.171  -7.417  26.068  0.00  0.00    +0.091 A 
ATOM      7  C   UNL     1       4.942  -6.882  27.094  0.00  0.00    +0.124 A 
ATOM      8  C   UNL     1       5.351  -5.280  23.190  0.00  0.00    +0.238 A 
ATOM      9  O   UNL     1       4.656  -5.695  22.267  0.00  0.00    -0.283 OA
ATOM     10  C   UNL     1       5.828  -5.834  26.855  0.00  0.00    +0.092 A 
ATOM     11  C   UNL     1       6.344  -4.182  23.022  0.00  0.00    +0.208 A 
ENDROOT
BRANCH   1  15
ATOM     12  C   UNL     1       9.951  -0.583  23.902  0.00  0.00    +0.173 A 
ATOM     13  C   UNL     1       9.039  -0.605  24.958  0.00  0.00    +0.051 A 
ATOM     14  C   UNL     1       8.099  -1.642  25.054  0.00  0.00    +0.015 A 
ATOM     15  C   UNL     1       8.054  -2.676  24.100  0.00  0.00    +0.025 A 
ATOM     16  C   UNL     1       8.985  -2.638  23.051  0.00  0.00    +0.061 A 
ATOM     17  C   UNL     1       9.918  -1.604  22.951  0.00  0.00    +0.160 A 
BRANCH  17  18
ATOM     18  O   UNL     1      10.750  -1.652  21.868  0.00  0.00    -0.503 OA
ATOM     19  H   UNL     1      10.787  -0.743  21.507  0.00  0.00    +0.292 HD
ENDBRANCH  17  18
BRANCH  12  20
ATOM     20  O   UNL     1      10.725   0.589  23.766  0.00  0.00    -0.422 OA
BRANCH  20  21
ATOM     21  C   UNL     1      10.259   1.608  22.941  0.00  0.00    +0.315 C 
ATOM     22  O   UNL     1       9.961   1.466  21.760  0.00  0.00    -0.250 OA
BRANCH  21  24
ATOM     23  C   UNL     1      11.266   3.852  23.374  0.00  0.00    +0.019 C 
ATOM     24  C   UNL     1      10.110   2.908  23.718  0.00  0.00    +0.092 C 
ATOM     25  C   UNL     1       8.786   3.583  23.363  0.00  0.00    +0.019 C 
ENDBRANCH  21  24
ENDBRANCH  20  21
ENDBRANCH  12  20
ENDBRANCH   1  15
BRANCH   5  26
ATOM     26  O   UNL     1       3.501  -7.445  23.815  0.00  0.00    -0.506 OA
ATOM     27  H   UNL     1       2.769  -6.813  23.623  0.00  0.00    +0.292 HD
ENDBRANCH   5  26
BRANCH   7  28
ATOM     28  O   UNL     1       4.860  -7.364  28.364  0.00  0.00    -0.507 OA
ATOM     29  H   UNL     1       5.400  -6.804  28.950  0.00  0.00    +0.292 HD
ENDBRANCH   7  28
BRANCH  11  30
ATOM     30  O   UNL     1       6.476  -3.664  21.749  0.00  0.00    -0.501 OA
ATOM     31  H   UNL     1       7.133  -4.208  21.279  0.00  0.00    +0.292 HD
ENDBRANCH  11  30
TORSDOF 8
ENDMDL
MODEL 4
REMARK VINA RESULT:      -7.2      2.460      9.259
REMARK  Name = 
REMARK  10 active torsions:
REMARK  status: ('A' for Active; 'I' for Inactive)
REMARK    1  A    between atoms: C_1  and  C_2
REMARK    2  A    between atoms: C_2  and  C_3
REMARK    3  A    between atoms: C_2  and  C_4
REMARK    4  A    between atoms: C_4  and  O_6
REMARK    5  A    between atoms: O_6  and  C_7
REMARK    6  A    between atoms: C_8  and  O_27
REMARK    7  A    between atoms: C_10  and  C_13
REMARK    8  A    between atoms: C_14  and  O_26
REMARK    9  A    between atoms: C_18  and  O_25
REMARK   10  A    between atoms: C_20  and  O_24
REMARK                            x       y       z     vdW  Elec       q    Type
REMARK                         _______ _______ _______ _____ _____    ______ ____
ROOT
ATOM      1  C   UNL     1       8.968   1.745  23.791  0.00  0.00    +0.181 A 
ATOM      2  O   UNL     1      10.308   2.050  23.547  0.00  0.00    -0.451 OA
ATOM      3  C   UNL     1      10.719   3.357  23.566  0.00  0.00    +0.147 A 
ATOM      4  C   UNL     1       9.849   4.416  23.790  0.00  0.00    +0.109 A 
ATOM      5  C   UNL     1      10.332   5.731  23.786  0.00  0.00    +0.135 A 
ATOM      6  C   UNL     1      11.684   5.984  23.575  0.00  0.00    +0.091 A 
ATOM      7  C   UNL     1      12.545   4.915  23.358  0.00  0.00    +0.124 A 
ATOM      8  C   UNL     1       8.435   4.117  24.020  0.00  0.00    +0.238 A 
ATOM      9  O   UNL     1       7.635   5.037  24.172  0.00  0.00    -0.283 OA
ATOM     10  C   UNL     1      12.075   3.604  23.347  0.00  0.00    +0.092 A 
ATOM     11  C   UNL     1       8.026   2.685  24.022  0.00  0.00    +0.208 A 
ENDROOT
BRANCH   1  15
ATOM     12  C   UNL     1       8.205  -2.500  23.539  0.00  0.00    +0.173 A 
ATOM     13  C   UNL     1       9.438  -2.054  24.016  0.00  0.00    +0.051 A 
ATOM     14  C   UNL     1       9.692  -0.679  24.129  0.00  0.00    +0.015 A 
ATOM     15  C   UNL     1       8.721   0.274  23.771  0.00  0.00    +0.025 A 
ATOM     16  C   UNL     1       7.486  -0.197  23.300  0.00  0.00    +0.061 A 
ATOM     17  C   UNL     1       7.233  -1.565  23.182  0.00  0.00    +0.160 A 
BRANCH  17  18
ATOM     18  O   UNL     1       6.008  -1.905  22.679  0.00  0.00    -0.503 OA
ATOM     19  H   UNL     1       5.350  -1.370  23.167  0.00  0.00    +0.292 HD
ENDBRANCH  17  18
BRANCH  12  20
ATOM     20  O   UNL     1       8.100  -3.882  23.267  0.00  0.00    -0.422 OA
BRANCH  20  21
ATOM     21  C   UNL     1       8.295  -4.786  24.306  0.00  0.00    +0.315 C 
ATOM     22  O   UNL     1       9.234  -5.572  24.377  0.00  0.00    -0.250 OA
BRANCH  21  24
ATOM     23  C   UNL     1       5.971  -5.414  24.969  0.00  0.00    +0.019 C 
ATOM     24  C   UNL     1       7.221  -4.625  25.372  0.00  0.00    +0.092 C 
ATOM     25  C   UNL     1       7.732  -5.144  26.715  0.00  0.00    +0.019 C 
ENDBRANCH  21  24
ENDBRANCH  20  21
ENDBRANCH  12  20
ENDBRANCH   1  15
BRANCH   5  26
ATOM     26  O   UNL     1       9.525   6.821  23.981  0.00  0.00    -0.506 OA
ATOM     27  H   UNL     1       9.866   7.318  24.760  0.00  0.00    +0.292 HD
ENDBRANCH   5  26
BRANCH   7  28
ATOM     28  O   UNL     1      13.876   5.111  23.150  0.00  0.00    -0.507 OA
ATOM     29  H   UNL     1      14.237   4.345  22.669  0.00  0.00    +0.292 HD
ENDBRANCH   7  28
BRANCH  11  30
ATOM     30  O   UNL     1       6.687   2.429  24.239  0.00  0.00    -0.501 OA
ATOM     31  H   UNL     1       6.434   2.882  25.063  0.00  0.00    +0.292 HD
ENDBRANCH  11  30
TORSDOF 8
ENDMDL
MODEL 5
REMARK VINA RESULT:      -7.2      2.618      4.094
REMARK  Name = 
REMARK  10 active torsions:
REMARK  status: ('A' for Active; 'I' for Inactive)
REMARK    1  A    between atoms: C_1  and  C_2
REMARK    2  A    between atoms: C_2  and  C_3
REMARK    3  A    between atoms: C_2  and  C_4
REMARK    4  A    between atoms: C_4  and  O_6
REMARK    5  A    between atoms: O_6  and  C_7
REMARK    6  A    between atoms: C_8  and  O_27
REMARK    7  A    between atoms: C_10  and  C_13
REMARK    8  A    between atoms: C_14  and  O_26
REMARK    9  A    between atoms: C_18  and  O_25
REMARK   10  A    between atoms: C_20  and  O_24
REMARK                            x       y       z     vdW  Elec       q    Type
REMARK                         _______ _______ _______ _____ _____    ______ ____
ROOT
ATOM      1  C   UNL     1       8.146  -0.532  23.673  0.00  0.00    +0.181 A 
ATOM      2  O   UNL     1       6.924  -1.106  23.317  0.00  0.00    -0.451 OA
ATOM      3  C   UNL     1       6.802  -2.470  23.285  0.00  0.00    +0.147 A 
ATOM      4  C   UNL     1       7.858  -3.328  23.563  0.00  0.00    +0.109 A 
ATOM      5  C   UNL     1       7.668  -4.714  23.501  0.00  0.00    +0.135 A 
ATOM      6  C   UNL     1       6.422  -5.241  23.178  0.00  0.00    +0.091 A 
ATOM      7  C   UNL     1       5.371  -4.372  22.908  0.00  0.00    +0.124 A 
ATOM      8  C   UNL     1       9.154  -2.743  23.910  0.00  0.00    +0.238 A 
ATOM      9  O   UNL     1      10.118  -3.477  24.113  0.00  0.00    -0.283 OA
ATOM     10  C   UNL     1       5.550  -2.991  22.953  0.00  0.00    +0.092 A 
ATOM     11  C   UNL     1       9.246  -1.258  23.966  0.00  0.00    +0.208 A 
ENDROOT
BRANCH   1  15
ATOM     12  C   UNL     1       7.740   3.769  23.724  0.00  0.00    +0.173 A 
ATOM     13  C   UNL     1       8.455   3.137  24.742  0.00  0.00    +0.051 A 
ATOM     14  C   UNL     1       8.619   1.744  24.726  0.00  0.00    +0.015 A 
ATOM     15  C   UNL     1       8.074   0.958  23.694  0.00  0.00    +0.025 A 
ATOM     16  C   UNL     1       7.363   1.614  22.677  0.00  0.00    +0.061 A 
ATOM     17  C   UNL     1       7.195   3.000  22.694  0.00  0.00    +0.160 A 
BRANCH  17  18
ATOM     18  O   UNL     1       6.455   3.525  21.672  0.00  0.00    -0.503 OA
ATOM     19  H   UNL     1       5.684   2.933  21.556  0.00  0.00    +0.292 HD
ENDBRANCH  17  18
BRANCH  12  20
ATOM     20  O   UNL     1       7.450   5.137  23.917  0.00  0.00    -0.422 OA
BRANCH  20  21
ATOM     21  C   UNL     1       8.081   6.076  23.108  0.00  0.00    +0.315 C 
ATOM     22  O   UNL     1       7.750   6.338  21.957  0.00  0.00    -0.250 OA
BRANCH  21  24
ATOM     23  C   UNL     1       8.853   6.840  25.357  0.00  0.00    +0.019 C 
ATOM     24  C   UNL     1       9.198   6.779  23.866  0.00  0.00    +0.092 C 
ATOM     25  C   UNL     1      10.513   6.021  23.685  0.00  0.00    +0.019 C 
ENDBRANCH  21  24
ENDBRANCH  20  21
ENDBRANCH  12  20
ENDBRANCH   1  15
BRANCH   5  26
ATOM     26  O   UNL     1       8.672  -5.614  23.745  0.00  0.00    -0.506 OA
ATOM     27  H   UNL     1       8.762  -6.193  22.952  0.00  0.00    +0.292 HD
ENDBRANCH   5  26
BRANCH   7  28
ATOM     28  O   UNL     1       4.132  -4.839  22.590  0.00  0.00    -0.507 OA
ATOM     29  H   UNL     1       4.168  -5.810  22.521  0.00  0.00    +0.292 HD
ENDBRANCH   7  28
BRANCH  11  30
ATOM     30  O   UNL     1      10.479  -0.731  24.294  0.00  0.00    -0.501 OA
ATOM     31  H   UNL     1      10.797  -1.204  25.084  0.00  0.00    +0.292 HD
ENDBRANCH  11  30
TORSDOF 8
ENDMDL
MODEL 6
REMARK VINA RESULT:      -7.2      2.308      9.311
REMARK  Name = 
REMARK  10 active torsions:
REMARK  status: ('A' for Active; 'I' for Inactive)
REMARK    1  A    between atoms: C_1  and  C_2
REMARK    2  A    between atoms: C_2  and  C_3
REMARK    3  A    between atoms: C_2  and  C_4
REMARK    4  A    between atoms: C_4  and  O_6
REMARK    5  A    between atoms: O_6  and  C_7
REMARK    6  A    between atoms: C_8  and  O_27
REMARK    7  A    between atoms: C_10  and  C_13
REMARK    8  A    between atoms: C_14  and  O_26
REMARK    9  A    between atoms: C_18  and  O_25
REMARK   10  A    between atoms: C_20  and  O_24
REMARK                            x       y       z     vdW  Elec       q    Type
REMARK                         _______ _______ _______ _____ _____    ______ ____
ROOT
ATOM      1  C   UNL     1       9.174   1.569  23.620  0.00  0.00    +0.181 A 
ATOM      2  O   UNL     1      10.498   1.958  23.410  0.00  0.00    -0.451 OA
ATOM      3  C   UNL     1      10.837   3.283  23.497  0.00  0.00    +0.147 A 
ATOM      4  C   UNL     1       9.909   4.282  23.756  0.00  0.00    +0.109 A 
ATOM      5  C   UNL     1      10.319   5.619  23.821  0.00  0.00    +0.135 A 
ATOM      6  C   UNL     1      11.658   5.954  23.642  0.00  0.00    +0.091 A 
ATOM      7  C   UNL     1      12.579   4.945  23.388  0.00  0.00    +0.124 A 
ATOM      8  C   UNL     1       8.510   3.896  23.951  0.00  0.00    +0.238 A 
ATOM      9  O   UNL     1       7.659   4.764  24.134  0.00  0.00    -0.283 OA
ATOM     10  C   UNL     1      12.181   3.612  23.309  0.00  0.00    +0.092 A 
ATOM     11  C   UNL     1       8.180   2.445  23.880  0.00  0.00    +0.208 A 
ENDROOT
BRANCH   1  15
ATOM     12  C   UNL     1       8.538  -2.701  23.481  0.00  0.00    +0.173 A 
ATOM     13  C   UNL     1       8.555  -1.973  22.290  0.00  0.00    +0.051 A 
ATOM     14  C   UNL     1       8.787  -0.589  22.316  0.00  0.00    +0.015 A 
ATOM     15  C   UNL     1       9.008   0.090  23.528  0.00  0.00    +0.025 A 
ATOM     16  C   UNL     1       8.993  -0.662  24.712  0.00  0.00    +0.061 A 
ATOM     17  C   UNL     1       8.757  -2.039  24.689  0.00  0.00    +0.160 A 
BRANCH  17  18
ATOM     18  O   UNL     1       8.730  -2.661  25.906  0.00  0.00    -0.503 OA
ATOM     19  H   UNL     1       7.880  -2.414  26.324  0.00  0.00    +0.292 HD
ENDBRANCH  17  18
BRANCH  12  20
ATOM     20  O   UNL     1       8.103  -4.041  23.390  0.00  0.00    -0.422 OA
BRANCH  20  21
ATOM     21  C   UNL     1       6.764  -4.329  23.633  0.00  0.00    +0.315 C 
ATOM     22  O   UNL     1       6.192  -4.131  24.699  0.00  0.00    -0.250 OA
BRANCH  21  24
ATOM     23  C   UNL     1       7.019  -5.860  21.676  0.00  0.00    +0.019 C 
ATOM     24  C   UNL     1       6.090  -4.865  22.378  0.00  0.00    +0.092 C 
ATOM     25  C   UNL     1       4.783  -5.568  22.743  0.00  0.00    +0.019 C 
ENDBRANCH  21  24
ENDBRANCH  20  21
ENDBRANCH  12  20
ENDBRANCH   1  15
BRANCH   5  26
ATOM     26  O   UNL     1       9.452   6.653  24.053  0.00  0.00    -0.506 OA
ATOM     27  H   UNL     1       8.541   6.343  23.837  0.00  0.00    +0.292 HD
ENDBRANCH   5  26
BRANCH   7  28
ATOM     28  O   UNL     1      13.899   5.221  23.209  0.00  0.00    -0.507 OA
ATOM     29  H   UNL     1      14.209   4.777  22.400  0.00  0.00    +0.292 HD
ENDBRANCH   7  28
BRANCH  11  30
ATOM     30  O   UNL     1       6.854   2.108  24.065  0.00  0.00    -0.501 OA
ATOM     31  H   UNL     1       6.646   1.392  23.440  0.00  0.00    +0.292 HD
ENDBRANCH  11  30
TORSDOF 8
ENDMDL
MODEL 7
REMARK VINA RESULT:      -7.2      2.717      9.342
REMARK  Name = 
REMARK  10 active torsions:
REMARK  status: ('A' for Active; 'I' for Inactive)
REMARK    1  A    between atoms: C_1  and  C_2
REMARK    2  A    between atoms: C_2  and  C_3
REMARK    3  A    between atoms: C_2  and  C_4
REMARK    4  A    between atoms: C_4  and  O_6
REMARK    5  A    between atoms: O_6  and  C_7
REMARK    6  A    between atoms: C_8  and  O_27
REMARK    7  A    between atoms: C_10  and  C_13
REMARK    8  A    between atoms: C_14  and  O_26
REMARK    9  A    between atoms: C_18  and  O_25
REMARK   10  A    between atoms: C_20  and  O_24
REMARK                            x       y       z     vdW  Elec       q    Type
REMARK                         _______ _______ _______ _____ _____    ______ ____
ROOT
ATOM      1  C   UNL     1       8.667   2.252  23.422  0.00  0.00    +0.181 A 
ATOM      2  O   UNL     1      10.006   2.569  23.191  0.00  0.00    -0.451 OA
ATOM      3  C   UNL     1      10.478   3.809  23.537  0.00  0.00    +0.147 A 
ATOM      4  C   UNL     1       9.670   4.795  24.086  0.00  0.00    +0.109 A 
ATOM      5  C   UNL     1      10.213   6.046  24.407  0.00  0.00    +0.135 A 
ATOM      6  C   UNL     1      11.563   6.303  24.193  0.00  0.00    +0.091 A 
ATOM      7  C   UNL     1      12.363   5.305  23.648  0.00  0.00    +0.124 A 
ATOM      8  C   UNL     1       8.256   4.491  24.309  0.00  0.00    +0.238 A 
ATOM      9  O   UNL     1       7.507   5.360  24.748  0.00  0.00    -0.283 OA
ATOM     10  C   UNL     1      11.832   4.062  23.313  0.00  0.00    +0.092 A 
ATOM     11  C   UNL     1       7.782   3.125  23.950  0.00  0.00    +0.208 A 
ENDROOT
BRANCH   1  15
ATOM     12  C   UNL     1       7.916  -1.868  22.363  0.00  0.00    +0.173 A 
ATOM     13  C   UNL     1       6.924  -1.139  23.019  0.00  0.00    +0.051 A 
ATOM     14  C   UNL     1       7.142   0.208  23.347  0.00  0.00    +0.015 A 
ATOM     15  C   UNL     1       8.351   0.850  23.023  0.00  0.00    +0.025 A 
ATOM     16  C   UNL     1       9.332   0.100  22.357  0.00  0.00    +0.061 A 
ATOM     17  C   UNL     1       9.119  -1.241  22.035  0.00  0.00    +0.160 A 
BRANCH  17  18
ATOM     18  O   UNL     1      10.159  -1.881  21.419  0.00  0.00    -0.503 OA
ATOM     19  H   UNL     1      10.814  -2.081  22.119  0.00  0.00    +0.292 HD
ENDBRANCH  17  18
BRANCH  12  20
ATOM     20  O   UNL     1       7.701  -3.259  22.249  0.00  0.00    -0.422 OA
BRANCH  20  21
ATOM     21  C   UNL     1       7.912  -4.063  23.364  0.00  0.00    +0.315 C 
ATOM     22  O   UNL     1       8.744  -3.840  24.235  0.00  0.00    -0.250 OA
BRANCH  21  24
ATOM     23  C   UNL     1       5.506  -4.691  23.595  0.00  0.00    +0.019 C 
ATOM     24  C   UNL     1       6.927  -5.223  23.387  0.00  0.00    +0.092 C 
ATOM     25  C   UNL     1       6.988  -5.991  22.067  0.00  0.00    +0.019 C 
ENDBRANCH  21  24
ENDBRANCH  20  21
ENDBRANCH  12  20
ENDBRANCH   1  15
BRANCH   5  26
ATOM     26  O   UNL     1       9.468   7.068  24.932  0.00  0.00    -0.506 OA
ATOM     27  H   UNL     1       8.968   6.715  25.706  0.00  0.00    +0.292 HD
ENDBRANCH   5  26
BRANCH   7  28
ATOM     28  O   UNL     1      13.690   5.507  23.424  0.00  0.00    -0.507 OA
ATOM     29  H   UNL     1      14.196   4.793  23.852  0.00  0.00    +0.292 HD
ENDBRANCH   7  28
BRANCH  11  30
ATOM     30  O   UNL     1       6.444   2.863  24.168  0.00  0.00    -0.501 OA
ATOM     31  H   UNL     1       6.260   1.973  23.817  0.00  0.00    +0.292 HD
ENDBRANCH  11  30
TORSDOF 8
ENDMDL
MODEL 8
REMARK VINA RESULT:      -6.9      2.133      8.347
REMARK  Name = 
REMARK  10 active torsions:
REMARK  status: ('A' for Active; 'I' for Inactive)
REMARK    1  A    between atoms: C_1  and  C_2
REMARK    2  A    between atoms: C_2  and  C_3
REMARK    3  A    between atoms: C_2  and  C_4
REMARK    4  A    between atoms: C_4  and  O_6
REMARK    5  A    between atoms: O_6  and  C_7
REMARK    6  A    between atoms: C_8  and  O_27
REMARK    7  A    between atoms: C_10  and  C_13
REMARK    8  A    between atoms: C_14  and  O_26
REMARK    9  A    between atoms: C_18  and  O_25
REMARK   10  A    between atoms: C_20  and  O_24
REMARK                            x       y       z     vdW  Elec       q    Type
REMARK                         _______ _______ _______ _____ _____    ______ ____
ROOT
ATOM      1  C   UNL     1       8.258  -0.684  23.001  0.00  0.00    +0.181 A 
ATOM      2  O   UNL     1       7.687  -0.041  24.099  0.00  0.00    -0.451 OA
ATOM      3  C   UNL     1       8.024   1.258  24.375  0.00  0.00    +0.147 A 
ATOM      4  C   UNL     1       8.948   1.972  23.622  0.00  0.00    +0.109 A 
ATOM      5  C   UNL     1       9.256   3.294  23.964  0.00  0.00    +0.135 A 
ATOM      6  C   UNL     1       8.632   3.906  25.046  0.00  0.00    +0.091 A 
ATOM      7  C   UNL     1       7.706   3.183  25.789  0.00  0.00    +0.124 A 
ATOM      8  C   UNL     1       9.579   1.304  22.483  0.00  0.00    +0.238 A 
ATOM      9  O   UNL     1      10.435   1.895  21.828  0.00  0.00    -0.283 OA
ATOM     10  C   UNL     1       7.399   1.863  25.466  0.00  0.00    +0.092 A 
ATOM     11  C   UNL     1       9.168  -0.098  22.192  0.00  0.00    +0.208 A 
ENDROOT
BRANCH   1  15
ATOM     12  C   UNL     1       6.753  -4.724  22.725  0.00  0.00    +0.173 A 
ATOM     13  C   UNL     1       6.053  -3.690  22.104  0.00  0.00    +0.051 A 
ATOM     14  C   UNL     1       6.543  -2.376  22.161  0.00  0.00    +0.015 A 
ATOM     15  C   UNL     1       7.739  -2.072  22.837  0.00  0.00    +0.025 A 
ATOM     16  C   UNL     1       8.430  -3.129  23.450  0.00  0.00    +0.061 A 
ATOM     17  C   UNL     1       7.942  -4.436  23.398  0.00  0.00    +0.160 A 
BRANCH  17  18
ATOM     18  O   UNL     1       8.680  -5.376  24.061  0.00  0.00    -0.503 OA
ATOM     19  H   UNL     1       8.814  -5.034  24.968  0.00  0.00    +0.292 HD
ENDBRANCH  17  18
BRANCH  12  20
ATOM     20  O   UNL     1       6.098  -5.973  22.793  0.00  0.00    -0.422 OA
BRANCH  20  21
ATOM     21  C   UNL     1       4.833  -6.036  23.368  0.00  0.00    +0.315 C 
ATOM     22  O   UNL     1       3.781  -6.010  22.739  0.00  0.00    -0.250 OA
BRANCH  21  24
ATOM     23  C   UNL     1       4.676  -4.859  25.565  0.00  0.00    +0.019 C 
ATOM     24  C   UNL     1       4.933  -6.203  24.878  0.00  0.00    +0.092 C 
ATOM     25  C   UNL     1       3.901  -7.221  25.362  0.00  0.00    +0.019 C 
ENDBRANCH  21  24
ENDBRANCH  20  21
ENDBRANCH  12  20
ENDBRANCH   1  15
BRANCH   5  26
ATOM     26  O   UNL     1      10.171   4.046  23.275  0.00  0.00    -0.506 OA
ATOM     27  H   UNL     1       9.699   4.819  22.885  0.00  0.00    +0.292 HD
ENDBRANCH   5  26
BRANCH   7  28
ATOM     28  O   UNL     1       7.066   3.739  26.854  0.00  0.00    -0.507 OA
ATOM     29  H   UNL     1       7.590   3.574  27.658  0.00  0.00    +0.292 HD
ENDBRANCH   7  28
BRANCH  11  30
ATOM     30  O   UNL     1       9.779  -0.706  21.114  0.00  0.00    -0.501 OA
ATOM     31  H   UNL     1       9.803  -0.057  20.389  0.00  0.00    +0.292 HD
ENDBRANCH  11  30
TORSDOF 8
ENDMDL
MODEL 9
REMARK VINA RESULT:      -6.9      1.988      8.357
REMARK  Name = 
REMARK  10 active torsions:
REMARK  status: ('A' for Active; 'I' for Inactive)
REMARK    1  A    between atoms: C_1  and  C_2
REMARK    2  A    between atoms: C_2  and  C_3
REMARK    3  A    between atoms: C_2  and  C_4
REMARK    4  A    between atoms: C_4  and  O_6
REMARK    5  A    between atoms: O_6  and  C_7
REMARK    6  A    between atoms: C_8  and  O_27
REMARK    7  A    between atoms: C_10  and  C_13
REMARK    8  A    between atoms: C_14  and  O_26
REMARK    9  A    between atoms: C_18  and  O_25
REMARK   10  A    between atoms: C_20  and  O_24
REMARK                            x       y       z     vdW  Elec       q    Type
REMARK                         _______ _______ _______ _____ _____    ______ ____
ROOT
ATOM      1  C   UNL     1       7.858  -1.836  23.947  0.00  0.00    +0.181 A 
ATOM      2  O   UNL     1       7.747  -0.743  24.808  0.00  0.00    -0.451 OA
ATOM      3  C   UNL     1       8.166   0.493  24.390  0.00  0.00    +0.147 A 
ATOM      4  C   UNL     1       8.734   0.713  23.143  0.00  0.00    +0.109 A 
ATOM      5  C   UNL     1       9.151   2.001  22.782  0.00  0.00    +0.135 A 
ATOM      6  C   UNL     1       8.986   3.067  23.660  0.00  0.00    +0.091 A 
ATOM      7  C   UNL     1       8.410   2.835  24.904  0.00  0.00    +0.124 A 
ATOM      8  C   UNL     1       8.885  -0.427  22.237  0.00  0.00    +0.238 A 
ATOM      9  O   UNL     1       9.429  -0.270  21.147  0.00  0.00    -0.283 OA
ATOM     10  C   UNL     1       8.002   1.556  25.280  0.00  0.00    +0.092 A 
ATOM     11  C   UNL     1       8.393  -1.751  22.709  0.00  0.00    +0.208 A 
ENDROOT
BRANCH   1  15
ATOM     12  C   UNL     1       6.379  -5.403  25.885  0.00  0.00    +0.173 A 
ATOM     13  C   UNL     1       5.472  -4.502  25.326  0.00  0.00    +0.051 A 
ATOM     14  C   UNL     1       5.937  -3.352  24.670  0.00  0.00    +0.015 A 
ATOM     15  C   UNL     1       7.313  -3.083  24.558  0.00  0.00    +0.025 A 
ATOM     16  C   UNL     1       8.208  -4.005  25.122  0.00  0.00    +0.061 A 
ATOM     17  C   UNL     1       7.747  -5.147  25.779  0.00  0.00    +0.160 A 
BRANCH  17  18
ATOM     18  O   UNL     1       8.709  -5.955  26.320  0.00  0.00    -0.503 OA
ATOM     19  H   UNL     1       8.341  -6.299  27.160  0.00  0.00    +0.292 HD
ENDBRANCH  17  18
BRANCH  12  20
ATOM     20  O   UNL     1       5.833  -6.422  26.695  0.00  0.00    -0.422 OA
BRANCH  20  21
ATOM     21  C   UNL     1       5.841  -6.256  28.076  0.00  0.00    +0.315 C 
ATOM     22  O   UNL     1       6.852  -6.228  28.768  0.00  0.00    -0.250 OA
BRANCH  21  24
ATOM     23  C   UNL     1       4.163  -4.558  28.808  0.00  0.00    +0.019 C 
ATOM     24  C   UNL     1       4.428  -6.052  28.604  0.00  0.00    +0.092 C 
ATOM     25  C   UNL     1       3.410  -6.612  27.610  0.00  0.00    +0.019 C 
ENDBRANCH  21  24
ENDBRANCH  20  21
ENDBRANCH  12  20
ENDBRANCH   1  15
BRANCH   5  26
ATOM     26  O   UNL     1       9.737   2.282  21.576  0.00  0.00    -0.506 OA
ATOM     27  H   UNL     1       9.795   1.444  21.061  0.00  0.00    +0.292 HD
ENDBRANCH   5  26
BRANCH   7  28
ATOM     28  O   UNL     1       8.223   3.845  25.796  0.00  0.00    -0.507 OA
ATOM     29  H   UNL     1       9.032   4.387  25.833  0.00  0.00    +0.292 HD
ENDBRANCH   7  28
BRANCH  11  30
ATOM     30  O   UNL     1       8.548  -2.809  21.838  0.00  0.00    -0.501 OA
ATOM     31  H   UNL     1       8.899  -2.450  21.003  0.00  0.00    +0.292 HD
ENDBRANCH  11  30
TORSDOF 8
ENDMDL
