MODEL 1
REMARK VINA RESULT:      -7.3      0.000      0.000
REMARK  Name = 
REMARK  18 active torsions:
REMARK  status: ('A' for Active; 'I' for Inactive)
REMARK    1  A    between atoms: C_1  and  C_2
REMARK    2  A    between atoms: C_2  and  C_3
REMARK    3  A    between atoms: C_2  and  C_4
REMARK    4  A    between atoms: C_2  and  O_44
REMARK    5  A    between atoms: C_4  and  C_5
REMARK    6  A    between atoms: C_5  and  C_6
REMARK    7  A    between atoms: C_7  and  O_27
REMARK    8  A    between atoms: C_11  and  O_12
REMARK    9  A    between atoms: C_15  and  O_26
REMARK   10  A    between atoms: C_16  and  C_18
REMARK   11  A    between atoms: C_20  and  O_25
REMARK   12  A    between atoms: C_21  and  O_24
REMARK   13  A    between atoms: O_27  and  C_28
REMARK   14  A    between atoms: C_30  and  O_43
REMARK   15  A    between atoms: C_32  and  O_42
REMARK   16  A    between atoms: C_34  and  O_41
REMARK   17  A    between atoms: C_36  and  C_39
REMARK   18  A    between atoms: C_39  and  O_40
REMARK                            x       y       z     vdW  Elec       q    Type
REMARK                         _______ _______ _______ _____ _____    ______ ____
ROOT
ATOM      1  C   UNL     1       9.489   2.266  23.760  0.00  0.00    +0.037 A 
ATOM      2  C   UNL     1       9.644   0.977  23.183  0.00  0.00    +0.138 A 
ATOM      3  C   UNL     1       9.038  -0.167  23.723  0.00  0.00    +0.109 A 
ATOM      4  C   UNL     1       9.073  -1.446  23.031  0.00  0.00    +0.238 A 
ATOM      5  C   UNL     1       8.300  -2.561  23.602  0.00  0.00    +0.208 A 
ATOM      6  C   UNL     1       7.709  -2.399  24.802  0.00  0.00    +0.181 A 
ATOM      7  O   UNL     1       7.741  -1.191  25.509  0.00  0.00    -0.451 OA
ATOM      8  O   UNL     1       9.693  -1.607  21.987  0.00  0.00    -0.283 OA
ATOM      9  C   UNL     1       8.340  -0.098  24.906  0.00  0.00    +0.147 A 
ATOM     10  C   UNL     1       8.167   1.153  25.484  0.00  0.00    +0.093 A 
ATOM     11  C   UNL     1       8.610   2.361  24.860  0.00  0.00    +0.134 A 
ENDROOT
BRANCH   6  12
ATOM     12  C   UNL     1       6.949  -3.508  25.455  0.00  0.00    +0.025 A 
ATOM     13  C   UNL     1       5.673  -3.907  25.015  0.00  0.00    +0.015 A 
ATOM     14  C   UNL     1       5.046  -5.042  25.560  0.00  0.00    +0.050 A 
ATOM     15  C   UNL     1       5.698  -5.787  26.531  0.00  0.00    +0.158 A 
ATOM     16  C   UNL     1       6.933  -5.385  27.010  0.00  0.00    +0.159 A 
ATOM     17  C   UNL     1       7.530  -4.234  26.515  0.00  0.00    +0.060 A 
BRANCH  15  18
ATOM     18  O   UNL     1       5.134  -6.937  27.007  0.00  0.00    -0.503 OA
ATOM     19  H   UNL     1       5.658  -7.154  27.804  0.00  0.00    +0.292 HD
ENDBRANCH  15  18
BRANCH  16  20
ATOM     20  O   UNL     1       7.558  -6.168  27.940  0.00  0.00    -0.503 OA
ATOM     21  H   UNL     1       7.203  -5.927  28.815  0.00  0.00    +0.292 HD
ENDBRANCH  16  20
ENDBRANCH   6  12
BRANCH   5  22
ATOM     22  O   UNL     1       8.233  -3.704  22.826  0.00  0.00    -0.501 OA
ATOM     23  H   UNL     1       7.629  -3.477  22.091  0.00  0.00    +0.292 HD
ENDBRANCH   5  22
BRANCH   2  24
ATOM     24  O   UNL     1      10.385   0.882  22.023  0.00  0.00    -0.506 OA
ATOM     25  H   UNL     1      10.412  -0.055  21.732  0.00  0.00    +0.292 HD
ENDBRANCH   2  24
BRANCH  11  26
ATOM     26  O   UNL     1       8.080   3.609  25.231  0.00  0.00    -0.460 OA
BRANCH  26  27
ATOM     27  C   UNL     1       6.639   3.686  25.076  0.00  0.00    +0.339 C 
ATOM     28  O   UNL     1       6.210   3.357  23.748  0.00  0.00    -0.331 OA
ATOM     29  C   UNL     1       6.054   4.417  22.801  0.00  0.00    +0.179 C 
ATOM     30  C   UNL     1       5.027   5.422  23.333  0.00  0.00    +0.177 C 
ATOM     31  C   UNL     1       5.499   6.015  24.669  0.00  0.00    +0.180 C 
ATOM     32  C   UNL     1       5.871   4.905  25.671  0.00  0.00    +0.214 C 
BRANCH  32  33
ATOM     33  O   UNL     1       4.593   4.399  26.166  0.00  0.00    -0.383 OA
ATOM     34  H   UNL     1       3.914   4.665  25.494  0.00  0.00    +0.210 HD
ENDBRANCH  32  33
BRANCH  31  35
ATOM     35  O   UNL     1       6.531   6.971  24.453  0.00  0.00    -0.386 OA
ATOM     36  H   UNL     1       7.383   6.516  24.331  0.00  0.00    +0.210 HD
ENDBRANCH  31  35
BRANCH  30  37
ATOM     37  O   UNL     1       3.785   4.716  23.532  0.00  0.00    -0.386 OA
ATOM     38  H   UNL     1       3.101   5.163  23.001  0.00  0.00    +0.210 HD
ENDBRANCH  30  37
BRANCH  29  39
ATOM     39  C   UNL     1       7.364   5.068  22.321  0.00  0.00    +0.190 C 
BRANCH  39  40
ATOM     40  O   UNL     1       7.143   6.209  21.497  0.00  0.00    -0.392 OA
ATOM     41  H   UNL     1       7.158   5.919  20.567  0.00  0.00    +0.210 HD
ENDBRANCH  39  40
ENDBRANCH  29  39
ENDBRANCH  26  27
ENDBRANCH  11  26
BRANCH   1  42
ATOM     42  C   UNL     1      10.237   3.388  23.047  0.00  0.00    +0.045 C 
BRANCH  42  43
ATOM     43  C   UNL     1      11.617   3.852  23.514  0.00  0.00    +0.039 C 
BRANCH  43  45
ATOM     44  C   UNL     1      12.254   6.146  24.560  0.00  0.00    +0.041 C 
ATOM     45  C   UNL     1      11.889   5.372  23.282  0.00  0.00    +0.061 C 
ATOM     46  C   UNL     1      12.965   5.616  22.219  0.00  0.00    +0.041 C 
BRANCH  45  47
ATOM     47  O   UNL     1      10.661   5.928  22.784  0.00  0.00    -0.389 OA
ATOM     48  H   UNL     1      10.554   6.815  23.171  0.00  0.00    +0.210 HD
ENDBRANCH  45  47
ENDBRANCH  43  45
ENDBRANCH  42  43
ENDBRANCH   1  42
TORSDOF 16
ENDMDL
MODEL 2
REMARK VINA RESULT:      -7.3      1.021      2.054
REMARK  Name = 
REMARK  18 active torsions:
REMARK  status: ('A' for Active; 'I' for Inactive)
REMARK    1  A    between atoms: C_1  and  C_2
REMARK    2  A    between atoms: C_2  and  C_3
REMARK    3  A    between atoms: C_2  and  C_4
REMARK    4  A    between atoms: C_2  and  O_44
REMARK    5  A    between atoms: C_4  and  C_5
REMARK    6  A    between atoms: C_5  and  C_6
REMARK    7  A    between atoms: C_7  and  O_27
REMARK    8  A    between atoms: C_11  and  O_12
REMARK    9  A    between atoms: C_15  and  O_26
REMARK   10  A    between atoms: C_16  and  C_18
REMARK   11  A    between atoms: C_20  and  O_25
REMARK   12  A    between atoms: C_21  and  O_24
REMARK   13  A    between atoms: O_27  and  C_28
REMARK   14  A    between atoms: C_30  and  O_43
REMARK   15  A    between atoms: C_32  and  O_42
REMARK   16  A    between atoms: C_34  and  O_41
REMARK   17  A    between atoms: C_36  and  C_39
REMARK   18  A    between atoms: C_39  and  O_40
REMARK                            x       y       z     vdW  Elec       q    Type
REMARK                         _______ _______ _______ _____ _____    ______ ____
ROOT
ATOM      1  C   UNL     1       9.414   2.031  23.778  0.00  0.00    +0.037 A 
ATOM      2  C   UNL     1       9.660   0.720  23.291  0.00  0.00    +0.138 A 
ATOM      3  C   UNL     1       9.051  -0.416  23.847  0.00  0.00    +0.109 A 
ATOM      4  C   UNL     1       9.187  -1.729  23.235  0.00  0.00    +0.238 A 
ATOM      5  C   UNL     1       8.409  -2.840  23.807  0.00  0.00    +0.208 A 
ATOM      6  C   UNL     1       7.718  -2.635  24.946  0.00  0.00    +0.181 A 
ATOM      7  O   UNL     1       7.651  -1.390  25.582  0.00  0.00    -0.451 OA
ATOM      8  O   UNL     1       9.894  -1.923  22.254  0.00  0.00    -0.283 OA
ATOM      9  C   UNL     1       8.258  -0.309  24.965  0.00  0.00    +0.147 A 
ATOM     10  C   UNL     1       7.996   0.964  25.453  0.00  0.00    +0.093 A 
ATOM     11  C   UNL     1       8.446   2.152  24.797  0.00  0.00    +0.134 A 
ENDROOT
BRANCH   6  12
ATOM     12  C   UNL     1       6.946  -3.735  25.600  0.00  0.00    +0.025 A 
ATOM     13  C   UNL     1       5.690  -4.159  25.127  0.00  0.00    +0.015 A 
ATOM     14  C   UNL     1       5.056  -5.286  25.678  0.00  0.00    +0.050 A 
ATOM     15  C   UNL     1       5.681  -6.000  26.690  0.00  0.00    +0.158 A 
ATOM     16  C   UNL     1       6.895  -5.573  27.200  0.00  0.00    +0.159 A 
ATOM     17  C   UNL     1       7.498  -4.430  26.697  0.00  0.00    +0.060 A 
BRANCH  15  18
ATOM     18  O   UNL     1       5.111  -7.143  27.175  0.00  0.00    -0.503 OA
ATOM     19  H   UNL     1       4.173  -6.905  27.322  0.00  0.00    +0.292 HD
ENDBRANCH  15  18
BRANCH  16  20
ATOM     20  O   UNL     1       7.495  -6.327  28.170  0.00  0.00    -0.503 OA
ATOM     21  H   UNL     1       6.955  -6.253  28.978  0.00  0.00    +0.292 HD
ENDBRANCH  16  20
ENDBRANCH   6  12
BRANCH   5  22
ATOM     22  O   UNL     1       8.445  -4.026  23.097  0.00  0.00    -0.501 OA
ATOM     23  H   UNL     1       8.951  -3.821  22.284  0.00  0.00    +0.292 HD
ENDBRANCH   5  22
BRANCH   2  24
ATOM     24  O   UNL     1      10.495   0.590  22.200  0.00  0.00    -0.506 OA
ATOM     25  H   UNL     1      10.817  -0.337  22.147  0.00  0.00    +0.292 HD
ENDBRANCH   2  24
BRANCH  11  26
ATOM     26  O   UNL     1       7.845   3.397  25.052  0.00  0.00    -0.460 OA
BRANCH  26  27
ATOM     27  C   UNL     1       7.118   3.924  23.911  0.00  0.00    +0.339 C 
ATOM     28  O   UNL     1       6.354   5.093  24.238  0.00  0.00    -0.331 OA
ATOM     29  C   UNL     1       4.990   4.925  24.634  0.00  0.00    +0.179 C 
ATOM     30  C   UNL     1       4.220   4.226  23.508  0.00  0.00    +0.177 C 
ATOM     31  C   UNL     1       4.828   2.844  23.221  0.00  0.00    +0.180 C 
ATOM     32  C   UNL     1       6.346   2.942  22.978  0.00  0.00    +0.214 C 
BRANCH  32  33
ATOM     33  O   UNL     1       6.480   3.459  21.618  0.00  0.00    -0.383 OA
ATOM     34  H   UNL     1       6.386   4.444  21.689  0.00  0.00    +0.210 HD
ENDBRANCH  32  33
BRANCH  31  35
ATOM     35  O   UNL     1       4.460   1.918  24.236  0.00  0.00    -0.386 OA
ATOM     36  H   UNL     1       5.197   1.807  24.865  0.00  0.00    +0.210 HD
ENDBRANCH  31  35
BRANCH  30  37
ATOM     37  O   UNL     1       4.322   5.051  22.329  0.00  0.00    -0.386 OA
ATOM     38  H   UNL     1       5.133   5.585  22.410  0.00  0.00    +0.210 HD
ENDBRANCH  30  37
BRANCH  29  39
ATOM     39  C   UNL     1       4.780   4.282  26.017  0.00  0.00    +0.190 C 
BRANCH  39  40
ATOM     40  O   UNL     1       5.802   4.629  26.947  0.00  0.00    -0.392 OA
ATOM     41  H   UNL     1       5.386   4.763  27.818  0.00  0.00    +0.210 HD
ENDBRANCH  39  40
ENDBRANCH  29  39
ENDBRANCH  26  27
ENDBRANCH  11  26
BRANCH   1  42
ATOM     42  C   UNL     1      10.177   3.140  23.062  0.00  0.00    +0.045 C 
BRANCH  42  43
ATOM     43  C   UNL     1      11.377   3.833  23.710  0.00  0.00    +0.039 C 
BRANCH  43  45
ATOM     44  C   UNL     1      10.040   6.045  23.430  0.00  0.00    +0.041 C 
ATOM     45  C   UNL     1      11.424   5.376  23.475  0.00  0.00    +0.061 C 
ATOM     46  C   UNL     1      12.301   6.095  24.505  0.00  0.00    +0.041 C 
BRANCH  45  47
ATOM     47  O   UNL     1      12.032   5.568  22.188  0.00  0.00    -0.389 OA
ATOM     48  H   UNL     1      11.393   5.287  21.508  0.00  0.00    +0.210 HD
ENDBRANCH  45  47
ENDBRANCH  43  45
ENDBRANCH  42  43
ENDBRANCH   1  42
TORSDOF 16
ENDMDL
MODEL 3
REMARK VINA RESULT:      -7.2      1.968      2.645
REMARK  Name = 
REMARK  18 active torsions:
REMARK  status: ('A' for Active; 'I' for Inactive)
REMARK    1  A    between atoms: C_1  and  C_2
REMARK    2  A    between atoms: C_2  and  C_3
REMARK    3  A    between atoms: C_2  and  C_4
REMARK    4  A    between atoms: C_2  and  O_44
REMARK    5  A    between atoms: C_4  and  C_5
REMARK    6  A    between atoms: C_5  and  C_6
REMARK    7  A    between atoms: C_7  and  O_27
REMARK    8  A    between atoms: C_11  and  O_12
REMARK    9  A    between atoms: C_15  and  O_26
REMARK   10  A    between atoms: C_16  and  C_18
REMARK   11  A    between atoms: C_20  and  O_25
REMARK   12  A    between atoms: C_21  and  O_24
REMARK   13  A    between atoms: O_27  and  C_28
REMARK   14  A    between atoms: C_30  and  O_43
REMARK   15  A    between atoms: C_32  and  O_42
REMARK   16  A    between atoms: C_34  and  O_41
REMARK   17  A    between atoms: C_36  and  C_39
REMARK   18  A    between atoms: C_39  and  O_40
REMARK                            x       y       z     vdW  Elec       q    Type
REMARK                         _______ _______ _______ _____ _____    ______ ____
ROOT
ATOM      1  C   UNL     1       8.709   0.867  24.737  0.00  0.00    +0.037 A 
ATOM      2  C   UNL     1       9.282  -0.404  24.468  0.00  0.00    +0.138 A 
ATOM      3  C   UNL     1       8.568  -1.601  24.633  0.00  0.00    +0.109 A 
ATOM      4  C   UNL     1       9.113  -2.879  24.200  0.00  0.00    +0.238 A 
ATOM      5  C   UNL     1       8.246  -4.064  24.289  0.00  0.00    +0.208 A 
ATOM      6  C   UNL     1       7.045  -3.951  24.889  0.00  0.00    +0.181 A 
ATOM      7  O   UNL     1       6.550  -2.737  25.380  0.00  0.00    -0.451 OA
ATOM      8  O   UNL     1      10.245  -2.984  23.742  0.00  0.00    -0.283 OA
ATOM      9  C   UNL     1       7.300  -1.593  25.163  0.00  0.00    +0.147 A 
ATOM     10  C   UNL     1       6.715  -0.360  25.425  0.00  0.00    +0.093 A 
ATOM     11  C   UNL     1       7.343   0.880  25.091  0.00  0.00    +0.134 A 
ENDROOT
BRANCH   6  12
ATOM     12  C   UNL     1       6.139  -5.129  25.051  0.00  0.00    +0.025 A 
ATOM     13  C   UNL     1       5.957  -5.775  26.288  0.00  0.00    +0.015 A 
ATOM     14  C   UNL     1       4.994  -6.789  26.437  0.00  0.00    +0.050 A 
ATOM     15  C   UNL     1       4.201  -7.147  25.356  0.00  0.00    +0.158 A 
ATOM     16  C   UNL     1       4.395  -6.555  24.120  0.00  0.00    +0.159 A 
ATOM     17  C   UNL     1       5.382  -5.594  23.956  0.00  0.00    +0.060 A 
BRANCH  15  18
ATOM     18  O   UNL     1       3.208  -8.071  25.512  0.00  0.00    -0.503 OA
ATOM     19  H   UNL     1       2.540  -7.621  26.069  0.00  0.00    +0.292 HD
ENDBRANCH  15  18
BRANCH  16  20
ATOM     20  O   UNL     1       3.567  -6.909  23.091  0.00  0.00    -0.503 OA
ATOM     21  H   UNL     1       3.089  -6.108  22.808  0.00  0.00    +0.292 HD
ENDBRANCH  16  20
ENDBRANCH   6  12
BRANCH   5  22
ATOM     22  O   UNL     1       8.749  -5.220  23.718  0.00  0.00    -0.501 OA
ATOM     23  H   UNL     1       9.609  -4.959  23.332  0.00  0.00    +0.292 HD
ENDBRANCH   5  22
BRANCH   2  24
ATOM     24  O   UNL     1      10.573  -0.433  23.983  0.00  0.00    -0.506 OA
ATOM     25  H   UNL     1      10.731  -1.291  23.532  0.00  0.00    +0.292 HD
ENDBRANCH   2  24
BRANCH  11  26
ATOM     26  O   UNL     1       6.598   2.066  24.976  0.00  0.00    -0.460 OA
BRANCH  26  27
ATOM     27  C   UNL     1       5.169   1.834  24.866  0.00  0.00    +0.339 C 
ATOM     28  O   UNL     1       4.682   2.030  23.531  0.00  0.00    -0.331 OA
ATOM     29  C   UNL     1       4.183   3.321  23.172  0.00  0.00    +0.179 C 
ATOM     30  C   UNL     1       3.018   3.688  24.099  0.00  0.00    +0.177 C 
ATOM     31  C   UNL     1       3.488   3.725  25.561  0.00  0.00    +0.180 C 
ATOM     32  C   UNL     1       4.213   2.422  25.947  0.00  0.00    +0.214 C 
BRANCH  32  33
ATOM     33  O   UNL     1       3.149   1.442  26.149  0.00  0.00    -0.383 OA
ATOM     34  H   UNL     1       2.566   1.502  25.348  0.00  0.00    +0.210 HD
ENDBRANCH  32  33
BRANCH  31  35
ATOM     35  O   UNL     1       4.242   4.906  25.811  0.00  0.00    -0.386 OA
ATOM     36  H   UNL     1       5.073   4.677  26.266  0.00  0.00    +0.210 HD
ENDBRANCH  31  35
BRANCH  30  37
ATOM     37  O   UNL     1       2.002   2.676  23.945  0.00  0.00    -0.386 OA
ATOM     38  H   UNL     1       1.135   3.104  24.070  0.00  0.00    +0.210 HD
ENDBRANCH  30  37
BRANCH  29  39
ATOM     39  C   UNL     1       5.246   4.426  23.050  0.00  0.00    +0.190 C 
BRANCH  39  40
ATOM     40  O   UNL     1       6.145   4.211  21.965  0.00  0.00    -0.392 OA
ATOM     41  H   UNL     1       6.665   3.410  22.156  0.00  0.00    +0.210 HD
ENDBRANCH  39  40
ENDBRANCH  29  39
ENDBRANCH  26  27
ENDBRANCH  11  26
BRANCH   1  42
ATOM     42  C   UNL     1       9.640   2.055  24.518  0.00  0.00    +0.045 C 
BRANCH  42  43
ATOM     43  C   UNL     1       9.442   3.022  23.349  0.00  0.00    +0.039 C 
BRANCH  43  45
ATOM     44  C   UNL     1       8.712   4.794  25.105  0.00  0.00    +0.041 C 
ATOM     45  C   UNL     1       9.417   4.526  23.765  0.00  0.00    +0.061 C 
ATOM     46  C   UNL     1      10.818   5.145  23.798  0.00  0.00    +0.041 C 
BRANCH  45  47
ATOM     47  O   UNL     1       8.671   5.212  22.746  0.00  0.00    -0.389 OA
ATOM     48  H   UNL     1       7.832   4.735  22.615  0.00  0.00    +0.210 HD
ENDBRANCH  45  47
ENDBRANCH  43  45
ENDBRANCH  42  43
ENDBRANCH   1  42
TORSDOF 16
ENDMDL
MODEL 4
REMARK VINA RESULT:      -6.8      2.702      4.524
REMARK  Name = 
REMARK  18 active torsions:
REMARK  status: ('A' for Active; 'I' for Inactive)
REMARK    1  A    between atoms: C_1  and  C_2
REMARK    2  A    between atoms: C_2  and  C_3
REMARK    3  A    between atoms: C_2  and  C_4
REMARK    4  A    between atoms: C_2  and  O_44
REMARK    5  A    between atoms: C_4  and  C_5
REMARK    6  A    between atoms: C_5  and  C_6
REMARK    7  A    between atoms: C_7  and  O_27
REMARK    8  A    between atoms: C_11  and  O_12
REMARK    9  A    between atoms: C_15  and  O_26
REMARK   10  A    between atoms: C_16  and  C_18
REMARK   11  A    between atoms: C_20  and  O_25
REMARK   12  A    between atoms: C_21  and  O_24
REMARK   13  A    between atoms: O_27  and  C_28
REMARK   14  A    between atoms: C_30  and  O_43
REMARK   15  A    between atoms: C_32  and  O_42
REMARK   16  A    between atoms: C_34  and  O_41
REMARK   17  A    between atoms: C_36  and  C_39
REMARK   18  A    between atoms: C_39  and  O_40
REMARK                            x       y       z     vdW  Elec       q    Type
REMARK                         _______ _______ _______ _____ _____    ______ ____
ROOT
ATOM      1  C   UNL     1       8.221  -1.695  25.115  0.00  0.00    +0.037 A 
ATOM      2  C   UNL     1       8.293  -2.913  24.390  0.00  0.00    +0.138 A 
ATOM      3  C   UNL     1       7.205  -3.793  24.286  0.00  0.00    +0.109 A 
ATOM      4  C   UNL     1       7.244  -4.953  23.409  0.00  0.00    +0.238 A 
ATOM      5  C   UNL     1       6.015  -5.747  23.260  0.00  0.00    +0.208 A 
ATOM      6  C   UNL     1       4.952  -5.458  24.037  0.00  0.00    +0.181 A 
ATOM      7  O   UNL     1       4.939  -4.389  24.942  0.00  0.00    -0.451 OA
ATOM      8  O   UNL     1       8.248  -5.261  22.778  0.00  0.00    -0.283 OA
ATOM      9  C   UNL     1       6.041  -3.551  24.976  0.00  0.00    +0.147 A 
ATOM     10  C   UNL     1       5.943  -2.360  25.684  0.00  0.00    +0.093 A 
ATOM     11  C   UNL     1       6.961  -1.357  25.654  0.00  0.00    +0.134 A 
ENDROOT
BRANCH   6  12
ATOM     12  C   UNL     1       3.691  -6.256  23.965  0.00  0.00    +0.025 A 
ATOM     13  C   UNL     1       2.662  -5.959  23.052  0.00  0.00    +0.015 A 
ATOM     14  C   UNL     1       1.552  -6.811  22.915  0.00  0.00    +0.050 A 
ATOM     15  C   UNL     1       1.476  -7.968  23.676  0.00  0.00    +0.158 A 
ATOM     16  C   UNL     1       2.454  -8.255  24.611  0.00  0.00    +0.159 A 
ATOM     17  C   UNL     1       3.523  -7.389  24.789  0.00  0.00    +0.060 A 
BRANCH  15  18
ATOM     18  O   UNL     1       0.444  -8.844  23.490  0.00  0.00    -0.503 OA
ATOM     19  H   UNL     1      -0.011  -8.518  22.686  0.00  0.00    +0.292 HD
ENDBRANCH  15  18
BRANCH  16  20
ATOM     20  O   UNL     1       2.361  -9.425  25.313  0.00  0.00    -0.503 OA
ATOM     21  H   UNL     1       1.969 -10.093  24.723  0.00  0.00    +0.292 HD
ENDBRANCH  16  20
ENDBRANCH   6  12
BRANCH   5  22
ATOM     22  O   UNL     1       6.053  -6.739  22.297  0.00  0.00    -0.501 OA
ATOM     23  H   UNL     1       6.733  -6.445  21.657  0.00  0.00    +0.292 HD
ENDBRANCH   5  22
BRANCH   2  24
ATOM     24  O   UNL     1       9.474  -3.196  23.734  0.00  0.00    -0.506 OA
ATOM     25  H   UNL     1      10.104  -3.609  24.364  0.00  0.00    +0.292 HD
ENDBRANCH   2  24
BRANCH  11  26
ATOM     26  O   UNL     1       6.685  -0.028  26.018  0.00  0.00    -0.460 OA
BRANCH  26  27
ATOM     27  C   UNL     1       5.353   0.404  25.633  0.00  0.00    +0.339 C 
ATOM     28  O   UNL     1       5.319   0.973  24.317  0.00  0.00    -0.331 OA
ATOM     29  C   UNL     1       5.477   2.388  24.183  0.00  0.00    +0.179 C 
ATOM     30  C   UNL     1       4.370   3.096  24.972  0.00  0.00    +0.177 C 
ATOM     31  C   UNL     1       4.452   2.726  26.461  0.00  0.00    +0.180 C 
ATOM     32  C   UNL     1       4.483   1.198  26.655  0.00  0.00    +0.214 C 
BRANCH  32  33
ATOM     33  O   UNL     1       3.102   0.764  26.460  0.00  0.00    -0.383 OA
ATOM     34  H   UNL     1       2.790   1.208  25.630  0.00  0.00    +0.210 HD
ENDBRANCH  32  33
BRANCH  31  35
ATOM     35  O   UNL     1       5.531   3.413  27.086  0.00  0.00    -0.386 OA
ATOM     36  H   UNL     1       5.632   4.297  26.691  0.00  0.00    +0.210 HD
ENDBRANCH  31  35
BRANCH  30  37
ATOM     37  O   UNL     1       3.103   2.661  24.437  0.00  0.00    -0.386 OA
ATOM     38  H   UNL     1       3.198   1.728  24.171  0.00  0.00    +0.210 HD
ENDBRANCH  30  37
BRANCH  29  39
ATOM     39  C   UNL     1       6.888   2.923  24.482  0.00  0.00    +0.190 C 
BRANCH  39  40
ATOM     40  O   UNL     1       7.459   3.620  23.378  0.00  0.00    -0.392 OA
ATOM     41  H   UNL     1       8.049   3.006  22.904  0.00  0.00    +0.210 HD
ENDBRANCH  39  40
ENDBRANCH  29  39
ENDBRANCH  26  27
ENDBRANCH  11  26
BRANCH   1  42
ATOM     42  C   UNL     1       9.507  -0.875  25.133  0.00  0.00    +0.045 C 
BRANCH  42  43
ATOM     43  C   UNL     1       9.598   0.487  24.442  0.00  0.00    +0.039 C 
BRANCH  43  45
ATOM     44  C   UNL     1       8.180   0.147  22.289  0.00  0.00    +0.041 C 
ATOM     45  C   UNL     1       9.574   0.411  22.883  0.00  0.00    +0.061 C 
ATOM     46  C   UNL     1      10.172   1.662  22.230  0.00  0.00    +0.041 C 
BRANCH  45  47
ATOM     47  O   UNL     1      10.409  -0.701  22.522  0.00  0.00    -0.389 OA
ATOM     48  H   UNL     1      11.260  -0.600  22.983  0.00  0.00    +0.210 HD
ENDBRANCH  45  47
ENDBRANCH  43  45
ENDBRANCH  42  43
ENDBRANCH   1  42
TORSDOF 16
ENDMDL
MODEL 5
REMARK VINA RESULT:      -6.8      3.505     10.308
REMARK  Name = 
REMARK  18 active torsions:
REMARK  status: ('A' for Active; 'I' for Inactive)
REMARK    1  A    between atoms: C_1  and  C_2
REMARK    2  A    between atoms: C_2  and  C_3
REMARK    3  A    between atoms: C_2  and  C_4
REMARK    4  A    between atoms: C_2  and  O_44
REMARK    5  A    between atoms: C_4  and  C_5
REMARK    6  A    between atoms: C_5  and  C_6
REMARK    7  A    between atoms: C_7  and  O_27
REMARK    8  A    between atoms: C_11  and  O_12
REMARK    9  A    between atoms: C_15  and  O_26
REMARK   10  A    between atoms: C_16  and  C_18
REMARK   11  A    between atoms: C_20  and  O_25
REMARK   12  A    between atoms: C_21  and  O_24
REMARK   13  A    between atoms: O_27  and  C_28
REMARK   14  A    between atoms: C_30  and  O_43
REMARK   15  A    between atoms: C_32  and  O_42
REMARK   16  A    between atoms: C_34  and  O_41
REMARK   17  A    between atoms: C_36  and  C_39
REMARK   18  A    between atoms: C_39  and  O_40
REMARK                            x       y       z     vdW  Elec       q    Type
REMARK                         _______ _______ _______ _____ _____    ______ ____
ROOT
ATOM      1  C   UNL     1       3.562  -5.211  24.008  0.00  0.00    +0.037 A 
ATOM      2  C   UNL     1       4.619  -5.037  23.075  0.00  0.00    +0.138 A 
ATOM      3  C   UNL     1       5.487  -3.934  23.119  0.00  0.00    +0.109 A 
ATOM      4  C   UNL     1       6.659  -3.853  22.261  0.00  0.00    +0.238 A 
ATOM      5  C   UNL     1       7.586  -2.730  22.464  0.00  0.00    +0.208 A 
ATOM      6  C   UNL     1       7.249  -1.753  23.331  0.00  0.00    +0.181 A 
ATOM      7  O   UNL     1       6.080  -1.789  24.101  0.00  0.00    -0.451 OA
ATOM      8  O   UNL     1       6.905  -4.700  21.411  0.00  0.00    -0.283 OA
ATOM      9  C   UNL     1       5.281  -2.917  24.021  0.00  0.00    +0.147 A 
ATOM     10  C   UNL     1       4.260  -3.070  24.949  0.00  0.00    +0.093 A 
ATOM     11  C   UNL     1       3.481  -4.265  25.052  0.00  0.00    +0.134 A 
ENDROOT
BRANCH   6  12
ATOM     12  C   UNL     1       8.127  -0.563  23.547  0.00  0.00    +0.025 A 
ATOM     13  C   UNL     1       8.916  -0.409  24.702  0.00  0.00    +0.015 A 
ATOM     14  C   UNL     1       9.834   0.651  24.810  0.00  0.00    +0.050 A 
ATOM     15  C   UNL     1       9.977   1.547  23.761  0.00  0.00    +0.158 A 
ATOM     16  C   UNL     1       9.177   1.440  22.636  0.00  0.00    +0.159 A 
ATOM     17  C   UNL     1       8.231   0.428  22.549  0.00  0.00    +0.060 A 
BRANCH  15  18
ATOM     18  O   UNL     1      10.923   2.530  23.823  0.00  0.00    -0.503 OA
ATOM     19  H   UNL     1      11.482   2.380  23.034  0.00  0.00    +0.292 HD
ENDBRANCH  15  18
BRANCH  16  20
ATOM     20  O   UNL     1       9.376   2.320  21.610  0.00  0.00    -0.503 OA
ATOM     21  H   UNL     1       8.656   2.976  21.640  0.00  0.00    +0.292 HD
ENDBRANCH  16  20
ENDBRANCH   6  12
BRANCH   5  22
ATOM     22  O   UNL     1       8.763  -2.783  21.739  0.00  0.00    -0.501 OA
ATOM     23  H   UNL     1       8.815  -1.922  21.278  0.00  0.00    +0.292 HD
ENDBRANCH   5  22
BRANCH   2  24
ATOM     24  O   UNL     1       4.807  -6.025  22.131  0.00  0.00    -0.506 OA
ATOM     25  H   UNL     1       5.761  -6.081  21.907  0.00  0.00    +0.292 HD
ENDBRANCH   2  24
BRANCH  11  26
ATOM     26  O   UNL     1       2.760  -4.566  26.220  0.00  0.00    -0.460 OA
BRANCH  26  27
ATOM     27  C   UNL     1       3.449  -5.502  27.091  0.00  0.00    +0.339 C 
ATOM     28  O   UNL     1       3.100  -5.328  28.470  0.00  0.00    -0.331 OA
ATOM     29  C   UNL     1       3.910  -4.466  29.274  0.00  0.00    +0.179 C 
ATOM     30  C   UNL     1       5.353  -4.983  29.272  0.00  0.00    +0.177 C 
ATOM     31  C   UNL     1       5.913  -5.001  27.841  0.00  0.00    +0.180 C 
ATOM     32  C   UNL     1       4.973  -5.757  26.883  0.00  0.00    +0.214 C 
BRANCH  32  33
ATOM     33  O   UNL     1       5.206  -7.172  27.162  0.00  0.00    -0.383 OA
ATOM     34  H   UNL     1       5.313  -7.243  28.146  0.00  0.00    +0.210 HD
ENDBRANCH  32  33
BRANCH  31  35
ATOM     35  O   UNL     1       6.238  -3.682  27.417  0.00  0.00    -0.386 OA
ATOM     36  H   UNL     1       6.507  -3.693  26.480  0.00  0.00    +0.210 HD
ENDBRANCH  31  35
BRANCH  30  37
ATOM     37  O   UNL     1       5.338  -6.325  29.800  0.00  0.00    -0.386 OA
ATOM     38  H   UNL     1       4.411  -6.624  29.826  0.00  0.00    +0.210 HD
ENDBRANCH  30  37
BRANCH  29  39
ATOM     39  C   UNL     1       3.791  -2.965  28.955  0.00  0.00    +0.190 C 
BRANCH  39  40
ATOM     40  O   UNL     1       2.495  -2.600  28.490  0.00  0.00    -0.392 OA
ATOM     41  H   UNL     1       2.370  -1.648  28.656  0.00  0.00    +0.210 HD
ENDBRANCH  39  40
ENDBRANCH  29  39
ENDBRANCH  26  27
ENDBRANCH  11  26
BRANCH   1  42
ATOM     42  C   UNL     1       2.711  -6.459  23.794  0.00  0.00    +0.045 C 
BRANCH  42  43
ATOM     43  C   UNL     1       3.026  -7.774  24.509  0.00  0.00    +0.039 C 
BRANCH  43  45
ATOM     44  C   UNL     1       0.958  -8.091  26.053  0.00  0.00    +0.041 C 
ATOM     45  C   UNL     1       1.765  -8.626  24.858  0.00  0.00    +0.061 C 
ATOM     46  C   UNL     1       0.830  -8.802  23.656  0.00  0.00    +0.041 C 
BRANCH  45  47
ATOM     47  O   UNL     1       2.248  -9.930  25.219  0.00  0.00    -0.389 OA
ATOM     48  H   UNL     1       2.195 -10.012  26.188  0.00  0.00    +0.210 HD
ENDBRANCH  45  47
ENDBRANCH  43  45
ENDBRANCH  42  43
ENDBRANCH   1  42
TORSDOF 16
ENDMDL
MODEL 6
REMARK VINA RESULT:      -6.8      1.810      2.590
REMARK  Name = 
REMARK  18 active torsions:
REMARK  status: ('A' for Active; 'I' for Inactive)
REMARK    1  A    between atoms: C_1  and  C_2
REMARK    2  A    between atoms: C_2  and  C_3
REMARK    3  A    between atoms: C_2  and  C_4
REMARK    4  A    between atoms: C_2  and  O_44
REMARK    5  A    between atoms: C_4  and  C_5
REMARK    6  A    between atoms: C_5  and  C_6
REMARK    7  A    between atoms: C_7  and  O_27
REMARK    8  A    between atoms: C_11  and  O_12
REMARK    9  A    between atoms: C_15  and  O_26
REMARK   10  A    between atoms: C_16  and  C_18
REMARK   11  A    between atoms: C_20  and  O_25
REMARK   12  A    between atoms: C_21  and  O_24
REMARK   13  A    between atoms: O_27  and  C_28
REMARK   14  A    between atoms: C_30  and  O_43
REMARK   15  A    between atoms: C_32  and  O_42
REMARK   16  A    between atoms: C_34  and  O_41
REMARK   17  A    between atoms: C_36  and  C_39
REMARK   18  A    between atoms: C_39  and  O_40
REMARK                            x       y       z     vdW  Elec       q    Type
REMARK                         _______ _______ _______ _____ _____    ______ ____
ROOT
ATOM      1  C   UNL     1       8.030   0.856  22.923  0.00  0.00    +0.037 A 
ATOM      2  C   UNL     1       8.829  -0.302  23.114  0.00  0.00    +0.138 A 
ATOM      3  C   UNL     1       8.393  -1.401  23.871  0.00  0.00    +0.109 A 
ATOM      4  C   UNL     1       9.153  -2.640  23.922  0.00  0.00    +0.238 A 
ATOM      5  C   UNL     1       8.559  -3.784  24.631  0.00  0.00    +0.208 A 
ATOM      6  C   UNL     1       7.413  -3.604  25.318  0.00  0.00    +0.181 A 
ATOM      7  O   UNL     1       6.720  -2.388  25.336  0.00  0.00    -0.451 OA
ATOM      8  O   UNL     1      10.240  -2.763  23.372  0.00  0.00    -0.283 OA
ATOM      9  C   UNL     1       7.198  -1.354  24.549  0.00  0.00    +0.147 A 
ATOM     10  C   UNL     1       6.395  -0.234  24.370  0.00  0.00    +0.093 A 
ATOM     11  C   UNL     1       6.724   0.815  23.457  0.00  0.00    +0.134 A 
ENDROOT
BRANCH   6  12
ATOM     12  C   UNL     1       6.785  -4.715  26.096  0.00  0.00    +0.025 A 
ATOM     13  C   UNL     1       7.029  -4.905  27.469  0.00  0.00    +0.015 A 
ATOM     14  C   UNL     1       6.316  -5.872  28.200  0.00  0.00    +0.050 A 
ATOM     15  C   UNL     1       5.349  -6.638  27.565  0.00  0.00    +0.158 A 
ATOM     16  C   UNL     1       5.127  -6.499  26.206  0.00  0.00    +0.159 A 
ATOM     17  C   UNL     1       5.867  -5.585  25.470  0.00  0.00    +0.060 A 
BRANCH  15  18
ATOM     18  O   UNL     1       4.595  -7.521  28.284  0.00  0.00    -0.503 OA
ATOM     19  H   UNL     1       4.531  -8.312  27.709  0.00  0.00    +0.292 HD
ENDBRANCH  15  18
BRANCH  16  20
ATOM     20  O   UNL     1       4.140  -7.247  25.627  0.00  0.00    -0.503 OA
ATOM     21  H   UNL     1       4.562  -8.012  25.198  0.00  0.00    +0.292 HD
ENDBRANCH  16  20
ENDBRANCH   6  12
BRANCH   5  22
ATOM     22  O   UNL     1       9.241  -4.982  24.515  0.00  0.00    -0.501 OA
ATOM     23  H   UNL     1      10.184  -4.749  24.626  0.00  0.00    +0.292 HD
ENDBRANCH   5  22
BRANCH   2  24
ATOM     24  O   UNL     1      10.055  -0.344  22.482  0.00  0.00    -0.506 OA
ATOM     25  H   UNL     1      10.207   0.506  22.014  0.00  0.00    +0.292 HD
ENDBRANCH   2  24
BRANCH  11  26
ATOM     26  O   UNL     1       5.744   1.705  22.985  0.00  0.00    -0.460 OA
BRANCH  26  27
ATOM     27  C   UNL     1       5.199   2.558  24.027  0.00  0.00    +0.339 C 
ATOM     28  O   UNL     1       3.765   2.550  24.050  0.00  0.00    -0.331 OA
ATOM     29  C   UNL     1       3.068   3.549  23.301  0.00  0.00    +0.179 C 
ATOM     30  C   UNL     1       3.485   4.937  23.801  0.00  0.00    +0.177 C 
ATOM     31  C   UNL     1       4.996   5.141  23.615  0.00  0.00    +0.180 C 
ATOM     32  C   UNL     1       5.797   3.982  24.238  0.00  0.00    +0.214 C 
BRANCH  32  33
ATOM     33  O   UNL     1       5.778   4.239  25.676  0.00  0.00    -0.383 OA
ATOM     34  H   UNL     1       4.913   3.885  26.007  0.00  0.00    +0.210 HD
ENDBRANCH  32  33
BRANCH  31  35
ATOM     35  O   UNL     1       5.301   5.389  22.247  0.00  0.00    -0.386 OA
ATOM     36  H   UNL     1       6.219   5.704  22.165  0.00  0.00    +0.210 HD
ENDBRANCH  31  35
BRANCH  30  37
ATOM     37  O   UNL     1       3.157   5.014  25.203  0.00  0.00    -0.386 OA
ATOM     38  H   UNL     1       3.195   5.952  25.466  0.00  0.00    +0.210 HD
ENDBRANCH  30  37
BRANCH  29  39
ATOM     39  C   UNL     1       3.141   3.396  21.772  0.00  0.00    +0.190 C 
BRANCH  39  40
ATOM     40  O   UNL     1       2.747   4.577  21.079  0.00  0.00    -0.392 OA
ATOM     41  H   UNL     1       1.891   4.869  21.440  0.00  0.00    +0.210 HD
ENDBRANCH  39  40
ENDBRANCH  29  39
ENDBRANCH  26  27
ENDBRANCH  11  26
BRANCH   1  42
ATOM     42  C   UNL     1       8.676   1.956  22.086  0.00  0.00    +0.045 C 
BRANCH  42  43
ATOM     43  C   UNL     1       8.650   3.419  22.530  0.00  0.00    +0.039 C 
BRANCH  43  45
ATOM     44  C   UNL     1      10.919   2.925  23.699  0.00  0.00    +0.041 C 
ATOM     45  C   UNL     1       9.616   3.741  23.714  0.00  0.00    +0.061 C 
ATOM     46  C   UNL     1       9.955   5.233  23.799  0.00  0.00    +0.041 C 
BRANCH  45  47
ATOM     47  O   UNL     1       8.910   3.393  24.915  0.00  0.00    -0.389 OA
ATOM     48  H   UNL     1       7.956   3.409  24.719  0.00  0.00    +0.210 HD
ENDBRANCH  45  47
ENDBRANCH  43  45
ENDBRANCH  42  43
ENDBRANCH   1  42
TORSDOF 16
ENDMDL
MODEL 7
REMARK VINA RESULT:      -6.6      2.409      9.336
REMARK  Name = 
REMARK  18 active torsions:
REMARK  status: ('A' for Active; 'I' for Inactive)
REMARK    1  A    between atoms: C_1  and  C_2
REMARK    2  A    between atoms: C_2  and  C_3
REMARK    3  A    between atoms: C_2  and  C_4
REMARK    4  A    between atoms: C_2  and  O_44
REMARK    5  A    between atoms: C_4  and  C_5
REMARK    6  A    between atoms: C_5  and  C_6
REMARK    7  A    between atoms: C_7  and  O_27
REMARK    8  A    between atoms: C_11  and  O_12
REMARK    9  A    between atoms: C_15  and  O_26
REMARK   10  A    between atoms: C_16  and  C_18
REMARK   11  A    between atoms: C_20  and  O_25
REMARK   12  A    between atoms: C_21  and  O_24
REMARK   13  A    between atoms: O_27  and  C_28
REMARK   14  A    between atoms: C_30  and  O_43
REMARK   15  A    between atoms: C_32  and  O_42
REMARK   16  A    between atoms: C_34  and  O_41
REMARK   17  A    between atoms: C_36  and  C_39
REMARK   18  A    between atoms: C_39  and  O_40
REMARK                            x       y       z     vdW  Elec       q    Type
REMARK                         _______ _______ _______ _____ _____    ______ ____
ROOT
ATOM      1  C   UNL     1       7.212  -3.401  24.389  0.00  0.00    +0.037 A 
ATOM      2  C   UNL     1       8.391  -2.675  24.072  0.00  0.00    +0.138 A 
ATOM      3  C   UNL     1       8.457  -1.275  24.155  0.00  0.00    +0.109 A 
ATOM      4  C   UNL     1       9.713  -0.561  23.985  0.00  0.00    +0.238 A 
ATOM      5  C   UNL     1       9.717   0.892  24.218  0.00  0.00    +0.208 A 
ATOM      6  C   UNL     1       8.546   1.521  24.442  0.00  0.00    +0.181 A 
ATOM      7  O   UNL     1       7.323   0.845  24.527  0.00  0.00    -0.451 OA
ATOM      8  O   UNL     1      10.755  -1.133  23.688  0.00  0.00    -0.283 OA
ATOM      9  C   UNL     1       7.337  -0.538  24.456  0.00  0.00    +0.147 A 
ATOM     10  C   UNL     1       6.175  -1.227  24.779  0.00  0.00    +0.093 A 
ATOM     11  C   UNL     1       6.126  -2.652  24.888  0.00  0.00    +0.134 A 
ENDROOT
BRANCH   6  12
ATOM     12  C   UNL     1       8.480   3.001  24.640  0.00  0.00    +0.025 A 
ATOM     13  C   UNL     1       7.903   3.582  25.785  0.00  0.00    +0.015 A 
ATOM     14  C   UNL     1       7.982   4.969  26.006  0.00  0.00    +0.050 A 
ATOM     15  C   UNL     1       8.649   5.773  25.094  0.00  0.00    +0.158 A 
ATOM     16  C   UNL     1       9.183   5.227  23.940  0.00  0.00    +0.159 A 
ATOM     17  C   UNL     1       9.059   3.868  23.691  0.00  0.00    +0.060 A 
BRANCH  15  18
ATOM     18  O   UNL     1       8.802   7.108  25.341  0.00  0.00    -0.503 OA
ATOM     19  H   UNL     1       9.210   7.462  24.525  0.00  0.00    +0.292 HD
ENDBRANCH  15  18
BRANCH  16  20
ATOM     20  O   UNL     1       9.865   6.049  23.086  0.00  0.00    -0.503 OA
ATOM     21  H   UNL     1      10.775   6.136  23.424  0.00  0.00    +0.292 HD
ENDBRANCH  16  20
ENDBRANCH   6  12
BRANCH   5  22
ATOM     22  O   UNL     1      10.960   1.499  24.203  0.00  0.00    -0.501 OA
ATOM     23  H   UNL     1      11.352   1.296  25.077  0.00  0.00    +0.292 HD
ENDBRANCH   5  22
BRANCH   2  24
ATOM     24  O   UNL     1       9.511  -3.398  23.718  0.00  0.00    -0.506 OA
ATOM     25  H   UNL     1       9.883  -3.032  22.886  0.00  0.00    +0.292 HD
ENDBRANCH   2  24
BRANCH  11  26
ATOM     26  O   UNL     1       5.096  -3.293  25.599  0.00  0.00    -0.460 OA
BRANCH  26  27
ATOM     27  C   UNL     1       5.232  -3.167  27.039  0.00  0.00    +0.339 C 
ATOM     28  O   UNL     1       6.251  -4.025  27.572  0.00  0.00    -0.331 OA
ATOM     29  C   UNL     1       5.872  -5.323  28.035  0.00  0.00    +0.179 C 
ATOM     30  C   UNL     1       4.826  -5.178  29.147  0.00  0.00    +0.177 C 
ATOM     31  C   UNL     1       3.578  -4.455  28.617  0.00  0.00    +0.180 C 
ATOM     32  C   UNL     1       3.952  -3.129  27.927  0.00  0.00    +0.214 C 
BRANCH  32  33
ATOM     33  O   UNL     1       4.222  -2.197  29.018  0.00  0.00    -0.383 OA
ATOM     34  H   UNL     1       3.727  -2.546  29.804  0.00  0.00    +0.210 HD
ENDBRANCH  32  33
BRANCH  31  35
ATOM     35  O   UNL     1       2.801  -5.332  27.809  0.00  0.00    -0.386 OA
ATOM     36  H   UNL     1       2.565  -6.128  28.318  0.00  0.00    +0.210 HD
ENDBRANCH  31  35
BRANCH  30  37
ATOM     37  O   UNL     1       5.419  -4.399  30.206  0.00  0.00    -0.386 OA
ATOM     38  H   UNL     1       4.721  -3.837  30.588  0.00  0.00    +0.210 HD
ENDBRANCH  30  37
BRANCH  29  39
ATOM     39  C   UNL     1       5.470  -6.323  26.936  0.00  0.00    +0.190 C 
BRANCH  39  40
ATOM     40  O   UNL     1       4.878  -7.509  27.459  0.00  0.00    -0.392 OA
ATOM     41  H   UNL     1       4.707  -7.371  28.408  0.00  0.00    +0.210 HD
ENDBRANCH  39  40
ENDBRANCH  29  39
ENDBRANCH  26  27
ENDBRANCH  11  26
BRANCH   1  42
ATOM     42  C   UNL     1       7.321  -4.914  24.224  0.00  0.00    +0.045 C 
BRANCH  42  43
ATOM     43  C   UNL     1       7.257  -5.574  22.846  0.00  0.00    +0.039 C 
BRANCH  43  45
ATOM     44  C   UNL     1       4.660  -5.526  22.960  0.00  0.00    +0.041 C 
ATOM     45  C   UNL     1       5.912  -5.337  22.088  0.00  0.00    +0.061 C 
ATOM     46  C   UNL     1       5.858  -3.960  21.418  0.00  0.00    +0.041 C 
BRANCH  45  47
ATOM     47  O   UNL     1       5.859  -6.323  21.045  0.00  0.00    -0.389 OA
ATOM     48  H   UNL     1       4.954  -6.683  21.018  0.00  0.00    +0.210 HD
ENDBRANCH  45  47
ENDBRANCH  43  45
ENDBRANCH  42  43
ENDBRANCH   1  42
TORSDOF 16
ENDMDL
MODEL 8
REMARK VINA RESULT:      -6.6      2.400      3.418
REMARK  Name = 
REMARK  18 active torsions:
REMARK  status: ('A' for Active; 'I' for Inactive)
REMARK    1  A    between atoms: C_1  and  C_2
REMARK    2  A    between atoms: C_2  and  C_3
REMARK    3  A    between atoms: C_2  and  C_4
REMARK    4  A    between atoms: C_2  and  O_44
REMARK    5  A    between atoms: C_4  and  C_5
REMARK    6  A    between atoms: C_5  and  C_6
REMARK    7  A    between atoms: C_7  and  O_27
REMARK    8  A    between atoms: C_11  and  O_12
REMARK    9  A    between atoms: C_15  and  O_26
REMARK   10  A    between atoms: C_16  and  C_18
REMARK   11  A    between atoms: C_20  and  O_25
REMARK   12  A    between atoms: C_21  and  O_24
REMARK   13  A    between atoms: O_27  and  C_28
REMARK   14  A    between atoms: C_30  and  O_43
REMARK   15  A    between atoms: C_32  and  O_42
REMARK   16  A    between atoms: C_34  and  O_41
REMARK   17  A    between atoms: C_36  and  C_39
REMARK   18  A    between atoms: C_39  and  O_40
REMARK                            x       y       z     vdW  Elec       q    Type
REMARK                         _______ _______ _______ _____ _____    ______ ____
ROOT
ATOM      1  C   UNL     1       7.188   1.206  23.374  0.00  0.00    +0.037 A 
ATOM      2  C   UNL     1       7.719   0.006  22.833  0.00  0.00    +0.138 A 
ATOM      3  C   UNL     1       7.233  -1.261  23.191  0.00  0.00    +0.109 A 
ATOM      4  C   UNL     1       7.676  -2.468  22.510  0.00  0.00    +0.238 A 
ATOM      5  C   UNL     1       7.018  -3.737  22.857  0.00  0.00    +0.208 A 
ATOM      6  C   UNL     1       6.140  -3.759  23.879  0.00  0.00    +0.181 A 
ATOM      7  O   UNL     1       5.770  -2.611  24.591  0.00  0.00    -0.451 OA
ATOM      8  O   UNL     1       8.545  -2.448  21.646  0.00  0.00    -0.283 OA
ATOM      9  C   UNL     1       6.275  -1.393  24.168  0.00  0.00    +0.147 A 
ATOM     10  C   UNL     1       5.733  -0.232  24.705  0.00  0.00    +0.093 A 
ATOM     11  C   UNL     1       6.071   1.072  24.226  0.00  0.00    +0.134 A 
ENDROOT
BRANCH   6  12
ATOM     12  C   UNL     1       5.473  -5.026  24.310  0.00  0.00    +0.025 A 
ATOM     13  C   UNL     1       5.733  -5.628  25.555  0.00  0.00    +0.015 A 
ATOM     14  C   UNL     1       4.988  -6.740  25.987  0.00  0.00    +0.050 A 
ATOM     15  C   UNL     1       3.974  -7.242  25.184  0.00  0.00    +0.158 A 
ATOM     16  C   UNL     1       3.734  -6.692  23.937  0.00  0.00    +0.159 A 
ATOM     17  C   UNL     1       4.503  -5.630  23.484  0.00  0.00    +0.060 A 
BRANCH  15  18
ATOM     18  O   UNL     1       3.192  -8.268  25.631  0.00  0.00    -0.503 OA
ATOM     19  H   UNL     1       2.762  -7.915  26.437  0.00  0.00    +0.292 HD
ENDBRANCH  15  18
BRANCH  16  20
ATOM     20  O   UNL     1       2.701  -7.192  23.194  0.00  0.00    -0.503 OA
ATOM     21  H   UNL     1       1.970  -7.399  23.805  0.00  0.00    +0.292 HD
ENDBRANCH  16  20
ENDBRANCH   6  12
BRANCH   5  22
ATOM     22  O   UNL     1       7.358  -4.824  22.072  0.00  0.00    -0.501 OA
ATOM     23  H   UNL     1       7.387  -5.583  22.689  0.00  0.00    +0.292 HD
ENDBRANCH   5  22
BRANCH   2  24
ATOM     24  O   UNL     1       8.718   0.119  21.888  0.00  0.00    -0.506 OA
ATOM     25  H   UNL     1       9.579  -0.117  22.296  0.00  0.00    +0.292 HD
ENDBRANCH   2  24
BRANCH  11  26
ATOM     26  O   UNL     1       5.239   2.178  24.475  0.00  0.00    -0.460 OA
BRANCH  26  27
ATOM     27  C   UNL     1       4.634   2.151  25.795  0.00  0.00    +0.339 C 
ATOM     28  O   UNL     1       3.243   1.804  25.755  0.00  0.00    -0.331 OA
ATOM     29  C   UNL     1       2.281   2.859  25.678  0.00  0.00    +0.179 C 
ATOM     30  C   UNL     1       2.445   3.781  26.891  0.00  0.00    +0.177 C 
ATOM     31  C   UNL     1       3.854   4.394  26.911  0.00  0.00    +0.180 C 
ATOM     32  C   UNL     1       4.938   3.305  26.798  0.00  0.00    +0.214 C 
BRANCH  32  33
ATOM     33  O   UNL     1       5.009   2.702  28.127  0.00  0.00    -0.383 OA
ATOM     34  H   UNL     1       4.091   2.389  28.335  0.00  0.00    +0.210 HD
ENDBRANCH  32  33
BRANCH  31  35
ATOM     35  O   UNL     1       3.963   5.425  25.936  0.00  0.00    -0.386 OA
ATOM     36  H   UNL     1       3.826   6.293  26.357  0.00  0.00    +0.210 HD
ENDBRANCH  31  35
BRANCH  30  37
ATOM     37  O   UNL     1       2.250   2.984  28.077  0.00  0.00    -0.386 OA
ATOM     38  H   UNL     1       3.099   2.947  28.553  0.00  0.00    +0.210 HD
ENDBRANCH  30  37
BRANCH  29  39
ATOM     39  C   UNL     1       2.232   3.608  24.334  0.00  0.00    +0.190 C 
BRANCH  39  40
ATOM     40  O   UNL     1       2.575   2.779  23.227  0.00  0.00    -0.392 OA
ATOM     41  H   UNL     1       1.773   2.643  22.691  0.00  0.00    +0.210 HD
ENDBRANCH  39  40
ENDBRANCH  29  39
ENDBRANCH  26  27
ENDBRANCH  11  26
BRANCH   1  42
ATOM     42  C   UNL     1       7.853   2.487  22.882  0.00  0.00    +0.045 C 
BRANCH  42  43
ATOM     43  C   UNL     1       8.944   3.186  23.696  0.00  0.00    +0.039 C 
BRANCH  43  45
ATOM     44  C   UNL     1      11.411   3.946  23.388  0.00  0.00    +0.041 C 
ATOM     45  C   UNL     1      10.397   2.796  23.278  0.00  0.00    +0.061 C 
ATOM     46  C   UNL     1      10.921   1.584  24.056  0.00  0.00    +0.041 C 
BRANCH  45  47
ATOM     47  O   UNL     1      10.329   2.418  21.893  0.00  0.00    -0.389 OA
ATOM     48  H   UNL     1      10.888   1.631  21.768  0.00  0.00    +0.210 HD
ENDBRANCH  45  47
ENDBRANCH  43  45
ENDBRANCH  42  43
ENDBRANCH   1  42
TORSDOF 16
ENDMDL
MODEL 9
REMARK VINA RESULT:      -6.6      1.878      2.485
REMARK  Name = 
REMARK  18 active torsions:
REMARK  status: ('A' for Active; 'I' for Inactive)
REMARK    1  A    between atoms: C_1  and  C_2
REMARK    2  A    between atoms: C_2  and  C_3
REMARK    3  A    between atoms: C_2  and  C_4
REMARK    4  A    between atoms: C_2  and  O_44
REMARK    5  A    between atoms: C_4  and  C_5
REMARK    6  A    between atoms: C_5  and  C_6
REMARK    7  A    between atoms: C_7  and  O_27
REMARK    8  A    between atoms: C_11  and  O_12
REMARK    9  A    between atoms: C_15  and  O_26
REMARK   10  A    between atoms: C_16  and  C_18
REMARK   11  A    between atoms: C_20  and  O_25
REMARK   12  A    between atoms: C_21  and  O_24
REMARK   13  A    between atoms: O_27  and  C_28
REMARK   14  A    between atoms: C_30  and  O_43
REMARK   15  A    between atoms: C_32  and  O_42
REMARK   16  A    between atoms: C_34  and  O_41
REMARK   17  A    between atoms: C_36  and  C_39
REMARK   18  A    between atoms: C_39  and  O_40
REMARK                            x       y       z     vdW  Elec       q    Type
REMARK                         _______ _______ _______ _____ _____    ______ ____
ROOT
ATOM      1  C   UNL     1       8.245   1.674  24.121  0.00  0.00    +0.037 A 
ATOM      2  C   UNL     1       8.884   0.406  24.155  0.00  0.00    +0.138 A 
ATOM      3  C   UNL     1       8.166  -0.797  24.227  0.00  0.00    +0.109 A 
ATOM      4  C   UNL     1       8.826  -2.087  24.099  0.00  0.00    +0.238 A 
ATOM      5  C   UNL     1       7.984  -3.292  24.053  0.00  0.00    +0.208 A 
ATOM      6  C   UNL     1       6.659  -3.171  24.269  0.00  0.00    +0.181 A 
ATOM      7  O   UNL     1       6.030  -1.937  24.473  0.00  0.00    -0.451 OA
ATOM      8  O   UNL     1      10.043  -2.191  23.998  0.00  0.00    -0.283 OA
ATOM      9  C   UNL     1       6.798  -0.789  24.368  0.00  0.00    +0.147 A 
ATOM     10  C   UNL     1       6.150   0.438  24.327  0.00  0.00    +0.093 A 
ATOM     11  C   UNL     1       6.834   1.666  24.064  0.00  0.00    +0.134 A 
ENDROOT
BRANCH   6  12
ATOM     12  C   UNL     1       5.757  -4.363  24.281  0.00  0.00    +0.025 A 
ATOM     13  C   UNL     1       5.036  -4.773  23.143  0.00  0.00    +0.015 A 
ATOM     14  C   UNL     1       4.307  -5.976  23.148  0.00  0.00    +0.050 A 
ATOM     15  C   UNL     1       4.310  -6.777  24.280  0.00  0.00    +0.158 A 
ATOM     16  C   UNL     1       4.975  -6.369  25.424  0.00  0.00    +0.159 A 
ATOM     17  C   UNL     1       5.649  -5.156  25.442  0.00  0.00    +0.060 A 
BRANCH  15  18
ATOM     18  O   UNL     1       3.674  -7.985  24.266  0.00  0.00    -0.503 OA
ATOM     19  H   UNL     1       3.975  -8.429  25.086  0.00  0.00    +0.292 HD
ENDBRANCH  15  18
BRANCH  16  20
ATOM     20  O   UNL     1       4.985  -7.205  26.505  0.00  0.00    -0.503 OA
ATOM     21  H   UNL     1       5.786  -7.757  26.444  0.00  0.00    +0.292 HD
ENDBRANCH  16  20
ENDBRANCH   6  12
BRANCH   5  22
ATOM     22  O   UNL     1       8.642  -4.475  23.769  0.00  0.00    -0.501 OA
ATOM     23  H   UNL     1       9.593  -4.266  23.868  0.00  0.00    +0.292 HD
ENDBRANCH   5  22
BRANCH   2  24
ATOM     24  O   UNL     1      10.261   0.383  24.067  0.00  0.00    -0.506 OA
ATOM     25  H   UNL     1      10.531  -0.279  23.393  0.00  0.00    +0.292 HD
ENDBRANCH   2  24
BRANCH  11  26
ATOM     26  O   UNL     1       6.142   2.806  23.623  0.00  0.00    -0.460 OA
BRANCH  26  27
ATOM     27  C   UNL     1       5.071   3.206  24.519  0.00  0.00    +0.339 C 
ATOM     28  O   UNL     1       3.802   2.659  24.136  0.00  0.00    -0.331 OA
ATOM     29  C   UNL     1       2.956   3.436  23.284  0.00  0.00    +0.179 C 
ATOM     30  C   UNL     1       2.645   4.774  23.964  0.00  0.00    +0.177 C 
ATOM     31  C   UNL     1       3.941   5.556  24.224  0.00  0.00    +0.180 C 
ATOM     32  C   UNL     1       4.973   4.693  24.976  0.00  0.00    +0.214 C 
BRANCH  32  33
ATOM     33  O   UNL     1       4.516   4.680  26.363  0.00  0.00    -0.383 OA
ATOM     34  H   UNL     1       5.217   5.147  26.887  0.00  0.00    +0.210 HD
ENDBRANCH  32  33
BRANCH  31  35
ATOM     35  O   UNL     1       4.431   6.125  23.015  0.00  0.00    -0.386 OA
ATOM     36  H   UNL     1       3.684   6.402  22.454  0.00  0.00    +0.210 HD
ENDBRANCH  31  35
BRANCH  30  37
ATOM     37  O   UNL     1       1.996   4.487  25.220  0.00  0.00    -0.386 OA
ATOM     38  H   UNL     1       1.440   3.696  25.093  0.00  0.00    +0.210 HD
ENDBRANCH  30  37
BRANCH  29  39
ATOM     39  C   UNL     1       3.440   3.579  21.830  0.00  0.00    +0.190 C 
BRANCH  39  40
ATOM     40  O   UNL     1       2.758   4.609  21.120  0.00  0.00    -0.392 OA
ATOM     41  H   UNL     1       3.425   5.175  20.691  0.00  0.00    +0.210 HD
ENDBRANCH  39  40
ENDBRANCH  29  39
ENDBRANCH  26  27
ENDBRANCH  11  26
BRANCH   1  42
ATOM     42  C   UNL     1       9.187   2.872  24.060  0.00  0.00    +0.045 C 
BRANCH  42  43
ATOM     43  C   UNL     1       8.896   4.158  24.836  0.00  0.00    +0.039 C 
BRANCH  43  45
ATOM     44  C   UNL     1       8.088   6.615  24.571  0.00  0.00    +0.041 C 
ATOM     45  C   UNL     1       8.864   5.442  23.949  0.00  0.00    +0.061 C 
ATOM     46  C   UNL     1      10.268   5.915  23.559  0.00  0.00    +0.041 C 
BRANCH  45  47
ATOM     47  O   UNL     1       8.184   5.077  22.737  0.00  0.00    -0.389 OA
ATOM     48  H   UNL     1       7.603   5.815  22.484  0.00  0.00    +0.210 HD
ENDBRANCH  45  47
ENDBRANCH  43  45
ENDBRANCH  42  43
ENDBRANCH   1  42
TORSDOF 16
ENDMDL
