MODEL 1
REMARK VINA RESULT:      -8.0      0.000      0.000
REMARK  Name = 
REMARK  17 active torsions:
REMARK  status: ('A' for Active; 'I' for Inactive)
REMARK    1  A    between atoms: C_3  and  O_50
REMARK    2  A    between atoms: C_4  and  O_49
REMARK    3  A    between atoms: C_6  and  C_7
REMARK    4  A    between atoms: C_8  and  C_9
REMARK    5  A    between atoms: C_9  and  O_11
REMARK    6  A    between atoms: O_11  and  C_12
REMARK    7  A    between atoms: C_12  and  C_13
REMARK    8  A    between atoms: C_15  and  O_48
REMARK    9  A    between atoms: C_17  and  O_47
REMARK   10  A    between atoms: C_19  and  O_46
REMARK   11  A    between atoms: C_21  and  O_24
REMARK   12  A    between atoms: O_24  and  C_25
REMARK   13  A    between atoms: C_26  and  C_38
REMARK   14  A    between atoms: C_30  and  O_37
REMARK   15  A    between atoms: C_32  and  O_36
REMARK   16  A    between atoms: C_40  and  O_45
REMARK   17  A    between atoms: C_41  and  O_44
REMARK                            x       y       z     vdW  Elec       q    Type
REMARK                         _______ _______ _______ _____ _____    ______ ____
ROOT
ATOM      1  C   UNL     1       6.054  -5.341  27.695  0.00  0.00    +0.191 C 
ATOM      2  O   UNL     1       5.593  -4.424  26.675  0.00  0.00    -0.330 OA
ATOM      3  C   UNL     1       4.193  -4.031  26.806  0.00  0.00    +0.340 C 
ATOM      4  C   UNL     1       3.284  -5.296  26.801  0.00  0.00    +0.214 C 
ATOM      5  C   UNL     1       3.765  -6.292  27.847  0.00  0.00    +0.180 C 
ATOM      6  C   UNL     1       5.229  -6.633  27.613  0.00  0.00    +0.178 C 
ENDROOT
BRANCH   6   7
ATOM      7  O   UNL     1       5.592  -7.626  28.575  0.00  0.00    -0.386 OA
ATOM      8  H   UNL     1       6.124  -7.171  29.256  0.00  0.00    +0.210 HD
ENDBRANCH   6   7
BRANCH   5   9
ATOM      9  O   UNL     1       2.998  -7.503  27.782  0.00  0.00    -0.386 OA
ATOM     10  H   UNL     1       3.387  -8.081  28.467  0.00  0.00    +0.210 HD
ENDBRANCH   5   9
BRANCH   4  11
ATOM     11  O   UNL     1       1.894  -5.029  27.040  0.00  0.00    -0.383 OA
ATOM     12  H   UNL     1       1.675  -4.181  26.604  0.00  0.00    +0.210 HD
ENDBRANCH   4  11
BRANCH   3  13
ATOM     13  O   UNL     1       3.866  -3.163  25.692  0.00  0.00    -0.453 OA
BRANCH  13  14
ATOM     14  C   UNL     1       4.709  -2.083  25.419  0.00  0.00    +0.214 A 
ATOM     15  C   UNL     1       4.684  -0.817  26.230  0.00  0.00    +0.238 A 
ATOM     16  O   UNL     1       4.085  -0.758  27.298  0.00  0.00    -0.283 OA
ATOM     17  C   UNL     1       5.352   0.374  25.650  0.00  0.00    +0.109 A 
ATOM     18  C   UNL     1       6.243   0.161  24.603  0.00  0.00    +0.147 A 
ATOM     19  C   UNL     1       6.983   1.218  24.061  0.00  0.00    +0.092 A 
ATOM     20  C   UNL     1       6.794   2.502  24.556  0.00  0.00    +0.124 A 
ATOM     21  C   UNL     1       5.860   2.750  25.555  0.00  0.00    +0.091 A 
ATOM     22  O   UNL     1       6.435  -1.072  24.040  0.00  0.00    -0.451 OA
ATOM     23  C   UNL     1       5.130   1.687  26.095  0.00  0.00    +0.135 A 
ATOM     24  C   UNL     1       5.570  -2.100  24.380  0.00  0.00    +0.181 A 
BRANCH  24  25
ATOM     25  C   UNL     1       5.677  -3.217  23.425  0.00  0.00    +0.025 A 
ATOM     26  C   UNL     1       6.069  -4.487  23.862  0.00  0.00    +0.015 A 
ATOM     27  C   UNL     1       6.341  -5.501  22.941  0.00  0.00    +0.050 A 
ATOM     28  C   UNL     1       6.228  -5.233  21.585  0.00  0.00    +0.158 A 
ATOM     29  C   UNL     1       5.815  -3.980  21.138  0.00  0.00    +0.159 A 
ATOM     30  C   UNL     1       5.537  -2.964  22.048  0.00  0.00    +0.060 A 
BRANCH  29  31
ATOM     31  O   UNL     1       5.727  -3.786  19.786  0.00  0.00    -0.503 OA
ATOM     32  H   UNL     1       6.619  -3.876  19.408  0.00  0.00    +0.292 HD
ENDBRANCH  29  31
BRANCH  28  33
ATOM     33  O   UNL     1       6.555  -6.206  20.684  0.00  0.00    -0.503 OA
ATOM     34  H   UNL     1       6.650  -5.731  19.834  0.00  0.00    +0.292 HD
ENDBRANCH  28  33
ENDBRANCH  24  25
BRANCH  23  35
ATOM     35  O   UNL     1       4.173   1.957  27.033  0.00  0.00    -0.506 OA
ATOM     36  H   UNL     1       4.436   2.733  27.557  0.00  0.00    +0.292 HD
ENDBRANCH  23  35
BRANCH  20  37
ATOM     37  O   UNL     1       7.504   3.565  24.081  0.00  0.00    -0.507 OA
ATOM     38  H   UNL     1       7.383   3.627  23.118  0.00  0.00    +0.292 HD
ENDBRANCH  20  37
ENDBRANCH  13  14
ENDBRANCH   3  13
BRANCH   1  39
ATOM     39  C   UNL     1       7.558  -5.643  27.494  0.00  0.00    +0.266 C 
BRANCH  39  40
ATOM     40  O   UNL     1       8.327  -4.484  27.087  0.00  0.00    -0.459 OA
BRANCH  40  41
ATOM     41  C   UNL     1       8.972  -4.568  25.891  0.00  0.00    +0.332 C 
ATOM     42  O   UNL     1       9.396  -5.590  25.378  0.00  0.00    -0.246 OA
BRANCH  41  44
ATOM     43  C   UNL     1       9.597  -3.010  24.086  0.00  0.00    +0.015 C 
ATOM     44  C   UNL     1       9.064  -3.210  25.305  0.00  0.00    +0.092 C 
BRANCH  43  46
ATOM     45  C   UNL     1       9.303  -1.536  22.104  0.00  0.00    +0.012 A 
ATOM     46  C   UNL     1       9.735  -1.691  23.433  0.00  0.00    -0.021 A 
ATOM     47  C   UNL     1      10.241  -0.570  24.105  0.00  0.00    +0.057 A 
ATOM     48  C   UNL     1      10.345   0.650  23.442  0.00  0.00    +0.159 A 
ATOM     49  C   UNL     1       9.941   0.786  22.120  0.00  0.00    +0.158 A 
ATOM     50  C   UNL     1       9.409  -0.301  21.440  0.00  0.00    +0.050 A 
BRANCH  49  51
ATOM     51  O   UNL     1      10.085   2.013  21.532  0.00  0.00    -0.503 OA
ATOM     52  H   UNL     1      10.870   1.989  20.958  0.00  0.00    +0.292 HD
ENDBRANCH  49  51
BRANCH  48  53
ATOM     53  O   UNL     1      10.857   1.728  24.110  0.00  0.00    -0.503 OA
ATOM     54  H   UNL     1      10.221   2.450  23.932  0.00  0.00    +0.292 HD
ENDBRANCH  48  53
ENDBRANCH  43  46
ENDBRANCH  41  44
ENDBRANCH  40  41
ENDBRANCH  39  40
ENDBRANCH   1  39
TORSDOF 17
ENDMDL
MODEL 2
REMARK VINA RESULT:      -7.3      2.033      7.885
REMARK  Name = 
REMARK  17 active torsions:
REMARK  status: ('A' for Active; 'I' for Inactive)
REMARK    1  A    between atoms: C_3  and  O_50
REMARK    2  A    between atoms: C_4  and  O_49
REMARK    3  A    between atoms: C_6  and  C_7
REMARK    4  A    between atoms: C_8  and  C_9
REMARK    5  A    between atoms: C_9  and  O_11
REMARK    6  A    between atoms: O_11  and  C_12
REMARK    7  A    between atoms: C_12  and  C_13
REMARK    8  A    between atoms: C_15  and  O_48
REMARK    9  A    between atoms: C_17  and  O_47
REMARK   10  A    between atoms: C_19  and  O_46
REMARK   11  A    between atoms: C_21  and  O_24
REMARK   12  A    between atoms: O_24  and  C_25
REMARK   13  A    between atoms: C_26  and  C_38
REMARK   14  A    between atoms: C_30  and  O_37
REMARK   15  A    between atoms: C_32  and  O_36
REMARK   16  A    between atoms: C_40  and  O_45
REMARK   17  A    between atoms: C_41  and  O_44
REMARK                            x       y       z     vdW  Elec       q    Type
REMARK                         _______ _______ _______ _____ _____    ______ ____
ROOT
ATOM      1  C   UNL     1       8.066   1.791  22.929  0.00  0.00    +0.191 C 
ATOM      2  O   UNL     1       8.323   1.167  24.208  0.00  0.00    -0.330 OA
ATOM      3  C   UNL     1       7.311   1.439  25.225  0.00  0.00    +0.340 C 
ATOM      4  C   UNL     1       7.163   2.976  25.430  0.00  0.00    +0.214 C 
ATOM      5  C   UNL     1       6.920   3.663  24.093  0.00  0.00    +0.180 C 
ATOM      6  C   UNL     1       8.033   3.315  23.115  0.00  0.00    +0.178 C 
ENDROOT
BRANCH   6   7
ATOM      7  O   UNL     1       7.786   4.050  21.914  0.00  0.00    -0.386 OA
ATOM      8  H   UNL     1       8.655   4.195  21.493  0.00  0.00    +0.210 HD
ENDBRANCH   6   7
BRANCH   5   9
ATOM      9  O   UNL     1       6.885   5.088  24.256  0.00  0.00    -0.386 OA
ATOM     10  H   UNL     1       7.759   5.395  23.947  0.00  0.00    +0.210 HD
ENDBRANCH   5   9
BRANCH   4  11
ATOM     11  O   UNL     1       6.110   3.357  26.329  0.00  0.00    -0.383 OA
ATOM     12  H   UNL     1       5.724   4.192  25.998  0.00  0.00    +0.210 HD
ENDBRANCH   4  11
BRANCH   3  13
ATOM     13  O   UNL     1       7.731   0.798  26.456  0.00  0.00    -0.453 OA
BRANCH  13  14
ATOM     14  C   UNL     1       7.305  -0.509  26.706  0.00  0.00    +0.214 A 
ATOM     15  C   UNL     1       8.152  -1.708  26.381  0.00  0.00    +0.238 A 
ATOM     16  O   UNL     1       9.337  -1.589  26.091  0.00  0.00    -0.283 OA
ATOM     17  C   UNL     1       7.477  -3.029  26.357  0.00  0.00    +0.109 A 
ATOM     18  C   UNL     1       6.233  -3.122  26.972  0.00  0.00    +0.147 A 
ATOM     19  C   UNL     1       5.572  -4.352  27.073  0.00  0.00    +0.092 A 
ATOM     20  C   UNL     1       6.154  -5.484  26.518  0.00  0.00    +0.124 A 
ATOM     21  C   UNL     1       7.365  -5.402  25.840  0.00  0.00    +0.091 A 
ATOM     22  O   UNL     1       5.586  -2.035  27.492  0.00  0.00    -0.451 OA
ATOM     23  C   UNL     1       8.022  -4.171  25.749  0.00  0.00    +0.135 A 
ATOM     24  C   UNL     1       6.084  -0.770  27.218  0.00  0.00    +0.181 A 
BRANCH  24  25
ATOM     25  C   UNL     1       5.084   0.268  27.521  0.00  0.00    +0.025 A 
ATOM     26  C   UNL     1       5.118   0.948  28.743  0.00  0.00    +0.015 A 
ATOM     27  C   UNL     1       4.076   1.804  29.107  0.00  0.00    +0.050 A 
ATOM     28  C   UNL     1       3.000   1.965  28.247  0.00  0.00    +0.158 A 
ATOM     29  C   UNL     1       2.966   1.312  27.017  0.00  0.00    +0.159 A 
ATOM     30  C   UNL     1       4.002   0.461  26.643  0.00  0.00    +0.060 A 
BRANCH  29  31
ATOM     31  O   UNL     1       1.873   1.517  26.220  0.00  0.00    -0.503 OA
ATOM     32  H   UNL     1       2.023   1.059  25.376  0.00  0.00    +0.292 HD
ENDBRANCH  29  31
BRANCH  28  33
ATOM     33  O   UNL     1       1.952   2.752  28.632  0.00  0.00    -0.503 OA
ATOM     34  H   UNL     1       1.982   3.516  28.021  0.00  0.00    +0.292 HD
ENDBRANCH  28  33
ENDBRANCH  24  25
BRANCH  23  35
ATOM     35  O   UNL     1       9.179  -4.098  25.026  0.00  0.00    -0.506 OA
ATOM     36  H   UNL     1       9.762  -3.419  25.407  0.00  0.00    +0.292 HD
ENDBRANCH  23  35
BRANCH  20  37
ATOM     37  O   UNL     1       5.565  -6.711  26.608  0.00  0.00    -0.507 OA
ATOM     38  H   UNL     1       4.650  -6.652  26.283  0.00  0.00    +0.292 HD
ENDBRANCH  20  37
ENDBRANCH  13  14
ENDBRANCH   3  13
BRANCH   1  39
ATOM     39  C   UNL     1       9.164   1.391  21.915  0.00  0.00    +0.266 C 
BRANCH  39  40
ATOM     40  O   UNL     1       9.044   0.026  21.447  0.00  0.00    -0.459 OA
BRANCH  40  41
ATOM     41  C   UNL     1       9.650  -0.934  22.200  0.00  0.00    +0.332 C 
ATOM     42  O   UNL     1      10.724  -0.824  22.767  0.00  0.00    -0.246 OA
BRANCH  41  44
ATOM     43  C   UNL     1       7.512  -2.070  22.664  0.00  0.00    +0.015 C 
ATOM     44  C   UNL     1       8.783  -2.135  22.226  0.00  0.00    +0.092 C 
BRANCH  43  46
ATOM     45  C   UNL     1       5.331  -3.054  23.346  0.00  0.00    +0.012 A 
ATOM     46  C   UNL     1       6.585  -3.220  22.730  0.00  0.00    -0.021 A 
ATOM     47  C   UNL     1       6.889  -4.464  22.161  0.00  0.00    +0.057 A 
ATOM     48  C   UNL     1       5.976  -5.511  22.251  0.00  0.00    +0.159 A 
ATOM     49  C   UNL     1       4.751  -5.345  22.886  0.00  0.00    +0.158 A 
ATOM     50  C   UNL     1       4.413  -4.115  23.432  0.00  0.00    +0.050 A 
BRANCH  49  51
ATOM     51  O   UNL     1       3.912  -6.423  22.944  0.00  0.00    -0.503 OA
ATOM     52  H   UNL     1       4.434  -7.229  22.789  0.00  0.00    +0.292 HD
ENDBRANCH  49  51
BRANCH  48  53
ATOM     53  O   UNL     1       6.298  -6.722  21.703  0.00  0.00    -0.503 OA
ATOM     54  H   UNL     1       5.602  -7.329  22.025  0.00  0.00    +0.292 HD
ENDBRANCH  48  53
ENDBRANCH  43  46
ENDBRANCH  41  44
ENDBRANCH  40  41
ENDBRANCH  39  40
ENDBRANCH   1  39
TORSDOF 17
ENDMDL
MODEL 3
REMARK VINA RESULT:      -7.1      1.995      7.733
REMARK  Name = 
REMARK  17 active torsions:
REMARK  status: ('A' for Active; 'I' for Inactive)
REMARK    1  A    between atoms: C_3  and  O_50
REMARK    2  A    between atoms: C_4  and  O_49
REMARK    3  A    between atoms: C_6  and  C_7
REMARK    4  A    between atoms: C_8  and  C_9
REMARK    5  A    between atoms: C_9  and  O_11
REMARK    6  A    between atoms: O_11  and  C_12
REMARK    7  A    between atoms: C_12  and  C_13
REMARK    8  A    between atoms: C_15  and  O_48
REMARK    9  A    between atoms: C_17  and  O_47
REMARK   10  A    between atoms: C_19  and  O_46
REMARK   11  A    between atoms: C_21  and  O_24
REMARK   12  A    between atoms: O_24  and  C_25
REMARK   13  A    between atoms: C_26  and  C_38
REMARK   14  A    between atoms: C_30  and  O_37
REMARK   15  A    between atoms: C_32  and  O_36
REMARK   16  A    between atoms: C_40  and  O_45
REMARK   17  A    between atoms: C_41  and  O_44
REMARK                            x       y       z     vdW  Elec       q    Type
REMARK                         _______ _______ _______ _____ _____    ______ ____
ROOT
ATOM      1  C   UNL     1       8.181   2.315  23.407  0.00  0.00    +0.191 C 
ATOM      2  O   UNL     1       7.386   1.565  24.355  0.00  0.00    -0.330 OA
ATOM      3  C   UNL     1       6.027   1.277  23.906  0.00  0.00    +0.340 C 
ATOM      4  C   UNL     1       5.289   2.604  23.561  0.00  0.00    +0.214 C 
ATOM      5  C   UNL     1       6.118   3.428  22.586  0.00  0.00    +0.180 C 
ATOM      6  C   UNL     1       7.507   3.671  23.155  0.00  0.00    +0.178 C 
ENDROOT
BRANCH   6   7
ATOM      7  O   UNL     1       8.203   4.512  22.230  0.00  0.00    -0.386 OA
ATOM      8  H   UNL     1       8.975   4.871  22.708  0.00  0.00    +0.210 HD
ENDBRANCH   6   7
BRANCH   5   9
ATOM      9  O   UNL     1       5.495   4.697  22.341  0.00  0.00    -0.386 OA
ATOM     10  H   UNL     1       4.540   4.535  22.469  0.00  0.00    +0.210 HD
ENDBRANCH   5   9
BRANCH   4  11
ATOM     11  O   UNL     1       3.979   2.426  22.999  0.00  0.00    -0.383 OA
ATOM     12  H   UNL     1       3.675   3.296  22.673  0.00  0.00    +0.210 HD
ENDBRANCH   4  11
BRANCH   3  13
ATOM     13  O   UNL     1       5.343   0.575  24.974  0.00  0.00    -0.453 OA
BRANCH  13  14
ATOM     14  C   UNL     1       5.369  -0.823  24.977  0.00  0.00    +0.214 A 
ATOM     15  C   UNL     1       5.807  -1.623  23.782  0.00  0.00    +0.238 A 
ATOM     16  O   UNL     1       6.370  -1.089  22.833  0.00  0.00    -0.283 OA
ATOM     17  C   UNL     1       5.465  -3.066  23.770  0.00  0.00    +0.109 A 
ATOM     18  C   UNL     1       5.100  -3.647  24.979  0.00  0.00    +0.147 A 
ATOM     19  C   UNL     1       4.852  -5.022  25.071  0.00  0.00    +0.092 A 
ATOM     20  C   UNL     1       4.937  -5.805  23.927  0.00  0.00    +0.124 A 
ATOM     21  C   UNL     1       5.234  -5.235  22.695  0.00  0.00    +0.091 A 
ATOM     22  O   UNL     1       4.950  -2.920  26.129  0.00  0.00    -0.451 OA
ATOM     23  C   UNL     1       5.488  -3.862  22.613  0.00  0.00    +0.135 A 
ATOM     24  C   UNL     1       4.959  -1.536  26.047  0.00  0.00    +0.181 A 
BRANCH  24  25
ATOM     25  C   UNL     1       4.417  -0.931  27.276  0.00  0.00    +0.025 A 
ATOM     26  C   UNL     1       3.036  -0.786  27.444  0.00  0.00    +0.015 A 
ATOM     27  C   UNL     1       2.525  -0.060  28.522  0.00  0.00    +0.050 A 
ATOM     28  C   UNL     1       3.404   0.528  29.420  0.00  0.00    +0.158 A 
ATOM     29  C   UNL     1       4.781   0.371  29.276  0.00  0.00    +0.159 A 
ATOM     30  C   UNL     1       5.299  -0.356  28.209  0.00  0.00    +0.060 A 
BRANCH  29  31
ATOM     31  O   UNL     1       5.588   0.980  30.199  0.00  0.00    -0.503 OA
ATOM     32  H   UNL     1       5.571   1.938  30.031  0.00  0.00    +0.292 HD
ENDBRANCH  29  31
BRANCH  28  33
ATOM     33  O   UNL     1       2.905   1.292  30.436  0.00  0.00    -0.503 OA
ATOM     34  H   UNL     1       3.504   2.065  30.479  0.00  0.00    +0.292 HD
ENDBRANCH  28  33
ENDBRANCH  24  25
BRANCH  23  35
ATOM     35  O   UNL     1       5.717  -3.309  21.385  0.00  0.00    -0.506 OA
ATOM     36  H   UNL     1       4.944  -3.451  20.812  0.00  0.00    +0.292 HD
ENDBRANCH  23  35
BRANCH  20  37
ATOM     37  O   UNL     1       4.728  -7.152  23.964  0.00  0.00    -0.507 OA
ATOM     38  H   UNL     1       4.790  -7.462  24.883  0.00  0.00    +0.292 HD
ENDBRANCH  20  37
ENDBRANCH  13  14
ENDBRANCH   3  13
BRANCH   1  39
ATOM     39  C   UNL     1       9.613   2.513  23.958  0.00  0.00    +0.266 C 
BRANCH  39  40
ATOM     40  O   UNL     1      10.445   1.334  23.832  0.00  0.00    -0.459 OA
BRANCH  40  41
ATOM     41  C   UNL     1      10.193   0.519  22.770  0.00  0.00    +0.332 C 
ATOM     42  O   UNL     1      10.204   0.851  21.597  0.00  0.00    -0.246 OA
BRANCH  41  44
ATOM     43  C   UNL     1       9.439  -1.047  24.518  0.00  0.00    +0.015 C 
ATOM     44  C   UNL     1       9.914  -0.846  23.276  0.00  0.00    +0.092 C 
BRANCH  43  46
ATOM     45  C   UNL     1       8.433  -2.445  26.314  0.00  0.00    +0.012 A 
ATOM     46  C   UNL     1       9.142  -2.373  25.102  0.00  0.00    -0.021 A 
ATOM     47  C   UNL     1       9.503  -3.570  24.468  0.00  0.00    +0.057 A 
ATOM     48  C   UNL     1       9.195  -4.791  25.061  0.00  0.00    +0.159 A 
ATOM     49  C   UNL     1       8.518  -4.851  26.273  0.00  0.00    +0.158 A 
ATOM     50  C   UNL     1       8.123  -3.681  26.908  0.00  0.00    +0.050 A 
BRANCH  49  51
ATOM     51  O   UNL     1       8.261  -6.087  26.800  0.00  0.00    -0.503 OA
ATOM     52  H   UNL     1       7.834  -6.631  26.116  0.00  0.00    +0.292 HD
ENDBRANCH  49  51
BRANCH  48  53
ATOM     53  O   UNL     1       9.569  -5.948  24.435  0.00  0.00    -0.503 OA
ATOM     54  H   UNL     1       9.365  -5.791  23.491  0.00  0.00    +0.292 HD
ENDBRANCH  48  53
ENDBRANCH  43  46
ENDBRANCH  41  44
ENDBRANCH  40  41
ENDBRANCH  39  40
ENDBRANCH   1  39
TORSDOF 17
ENDMDL
MODEL 4
REMARK VINA RESULT:      -7.1      3.188      8.227
REMARK  Name = 
REMARK  17 active torsions:
REMARK  status: ('A' for Active; 'I' for Inactive)
REMARK    1  A    between atoms: C_3  and  O_50
REMARK    2  A    between atoms: C_4  and  O_49
REMARK    3  A    between atoms: C_6  and  C_7
REMARK    4  A    between atoms: C_8  and  C_9
REMARK    5  A    between atoms: C_9  and  O_11
REMARK    6  A    between atoms: O_11  and  C_12
REMARK    7  A    between atoms: C_12  and  C_13
REMARK    8  A    between atoms: C_15  and  O_48
REMARK    9  A    between atoms: C_17  and  O_47
REMARK   10  A    between atoms: C_19  and  O_46
REMARK   11  A    between atoms: C_21  and  O_24
REMARK   12  A    between atoms: O_24  and  C_25
REMARK   13  A    between atoms: C_26  and  C_38
REMARK   14  A    between atoms: C_30  and  O_37
REMARK   15  A    between atoms: C_32  and  O_36
REMARK   16  A    between atoms: C_40  and  O_45
REMARK   17  A    between atoms: C_41  and  O_44
REMARK                            x       y       z     vdW  Elec       q    Type
REMARK                         _______ _______ _______ _____ _____    ______ ____
ROOT
ATOM      1  C   UNL     1       8.602  -1.503  25.064  0.00  0.00    +0.191 C 
ATOM      2  O   UNL     1       8.860  -0.106  25.340  0.00  0.00    -0.330 OA
ATOM      3  C   UNL     1       8.802   0.760  24.166  0.00  0.00    +0.340 C 
ATOM      4  C   UNL     1       9.808   0.260  23.087  0.00  0.00    +0.214 C 
ATOM      5  C   UNL     1       9.578  -1.216  22.798  0.00  0.00    +0.180 C 
ATOM      6  C   UNL     1       9.665  -2.022  24.086  0.00  0.00    +0.178 C 
ENDROOT
BRANCH   6   7
ATOM      7  O   UNL     1       9.519  -3.400  23.734  0.00  0.00    -0.386 OA
ATOM      8  H   UNL     1       9.054  -3.420  22.876  0.00  0.00    +0.210 HD
ENDBRANCH   6   7
BRANCH   5   9
ATOM      9  O   UNL     1      10.564  -1.712  21.882  0.00  0.00    -0.386 OA
ATOM     10  H   UNL     1      10.190  -1.540  20.996  0.00  0.00    +0.210 HD
ENDBRANCH   5   9
BRANCH   4  11
ATOM     11  O   UNL     1       9.749   0.976  21.844  0.00  0.00    -0.383 OA
ATOM     12  H   UNL     1       8.932   0.702  21.381  0.00  0.00    +0.210 HD
ENDBRANCH   4  11
BRANCH   3  13
ATOM     13  O   UNL     1       9.133   2.107  24.588  0.00  0.00    -0.453 OA
BRANCH  13  14
ATOM     14  C   UNL     1       8.232   3.136  24.300  0.00  0.00    +0.214 A 
ATOM     15  C   UNL     1       6.743   2.957  24.411  0.00  0.00    +0.238 A 
ATOM     16  O   UNL     1       6.261   1.977  24.968  0.00  0.00    -0.283 OA
ATOM     17  C   UNL     1       5.887   3.976  23.756  0.00  0.00    +0.109 A 
ATOM     18  C   UNL     1       6.482   5.184  23.409  0.00  0.00    +0.147 A 
ATOM     19  C   UNL     1       5.725   6.231  22.871  0.00  0.00    +0.092 A 
ATOM     20  C   UNL     1       4.367   6.043  22.649  0.00  0.00    +0.124 A 
ATOM     21  C   UNL     1       3.763   4.821  22.925  0.00  0.00    +0.091 A 
ATOM     22  O   UNL     1       7.824   5.412  23.556  0.00  0.00    -0.451 OA
ATOM     23  C   UNL     1       4.526   3.782  23.468  0.00  0.00    +0.135 A 
ATOM     24  C   UNL     1       8.650   4.343  23.865  0.00  0.00    +0.181 A 
BRANCH  24  25
ATOM     25  C   UNL     1      10.063   4.678  23.615  0.00  0.00    +0.025 A 
ATOM     26  C   UNL     1      10.865   3.832  22.843  0.00  0.00    +0.015 A 
ATOM     27  C   UNL     1      12.241   4.051  22.747  0.00  0.00    +0.050 A 
ATOM     28  C   UNL     1      12.807   5.114  23.437  0.00  0.00    +0.158 A 
ATOM     29  C   UNL     1      12.015   5.977  24.190  0.00  0.00    +0.159 A 
ATOM     30  C   UNL     1      10.642   5.770  24.287  0.00  0.00    +0.060 A 
BRANCH  29  31
ATOM     31  O   UNL     1      12.642   7.003  24.845  0.00  0.00    -0.503 OA
ATOM     32  H   UNL     1      12.267   7.841  24.524  0.00  0.00    +0.292 HD
ENDBRANCH  29  31
BRANCH  28  33
ATOM     33  O   UNL     1      14.161   5.289  23.395  0.00  0.00    -0.503 OA
ATOM     34  H   UNL     1      14.527   4.383  23.451  0.00  0.00    +0.292 HD
ENDBRANCH  28  33
ENDBRANCH  24  25
BRANCH  23  35
ATOM     35  O   UNL     1       3.931   2.569  23.675  0.00  0.00    -0.506 OA
ATOM     36  H   UNL     1       3.299   2.388  22.959  0.00  0.00    +0.292 HD
ENDBRANCH  23  35
BRANCH  20  37
ATOM     37  O   UNL     1       3.577   7.035  22.149  0.00  0.00    -0.507 OA
ATOM     38  H   UNL     1       3.217   6.757  21.290  0.00  0.00    +0.292 HD
ENDBRANCH  20  37
ENDBRANCH  13  14
ENDBRANCH   3  13
BRANCH   1  39
ATOM     39  C   UNL     1       8.632  -2.315  26.381  0.00  0.00    +0.266 C 
BRANCH  39  40
ATOM     40  O   UNL     1       7.463  -3.150  26.567  0.00  0.00    -0.459 OA
BRANCH  40  41
ATOM     41  C   UNL     1       7.663  -4.496  26.546  0.00  0.00    +0.332 C 
ATOM     42  O   UNL     1       8.720  -5.065  26.768  0.00  0.00    -0.246 OA
BRANCH  41  44
ATOM     43  C   UNL     1       5.981  -5.323  24.945  0.00  0.00    +0.015 C 
ATOM     44  C   UNL     1       6.381  -5.163  26.220  0.00  0.00    +0.092 C 
BRANCH  43  46
ATOM     45  C   UNL     1       3.958  -5.390  23.499  0.00  0.00    +0.012 A 
ATOM     46  C   UNL     1       4.716  -5.967  24.534  0.00  0.00    -0.021 A 
ATOM     47  C   UNL     1       4.260  -7.162  25.107  0.00  0.00    +0.057 A 
ATOM     48  C   UNL     1       3.062  -7.727  24.679  0.00  0.00    +0.159 A 
ATOM     49  C   UNL     1       2.307  -7.134  23.674  0.00  0.00    +0.158 A 
ATOM     50  C   UNL     1       2.750  -5.966  23.069  0.00  0.00    +0.050 A 
BRANCH  49  51
ATOM     51  O   UNL     1       1.135  -7.742  23.315  0.00  0.00    -0.503 OA
ATOM     52  H   UNL     1       1.304  -8.301  22.537  0.00  0.00    +0.292 HD
ENDBRANCH  49  51
BRANCH  48  53
ATOM     53  O   UNL     1       2.627  -8.885  25.262  0.00  0.00    -0.503 OA
ATOM     54  H   UNL     1       3.316  -9.100  25.923  0.00  0.00    +0.292 HD
ENDBRANCH  48  53
ENDBRANCH  43  46
ENDBRANCH  41  44
ENDBRANCH  40  41
ENDBRANCH  39  40
ENDBRANCH   1  39
TORSDOF 17
ENDMDL
MODEL 5
REMARK VINA RESULT:      -7.0      2.273      7.648
REMARK  Name = 
REMARK  17 active torsions:
REMARK  status: ('A' for Active; 'I' for Inactive)
REMARK    1  A    between atoms: C_3  and  O_50
REMARK    2  A    between atoms: C_4  and  O_49
REMARK    3  A    between atoms: C_6  and  C_7
REMARK    4  A    between atoms: C_8  and  C_9
REMARK    5  A    between atoms: C_9  and  O_11
REMARK    6  A    between atoms: O_11  and  C_12
REMARK    7  A    between atoms: C_12  and  C_13
REMARK    8  A    between atoms: C_15  and  O_48
REMARK    9  A    between atoms: C_17  and  O_47
REMARK   10  A    between atoms: C_19  and  O_46
REMARK   11  A    between atoms: C_21  and  O_24
REMARK   12  A    between atoms: O_24  and  C_25
REMARK   13  A    between atoms: C_26  and  C_38
REMARK   14  A    between atoms: C_30  and  O_37
REMARK   15  A    between atoms: C_32  and  O_36
REMARK   16  A    between atoms: C_40  and  O_45
REMARK   17  A    between atoms: C_41  and  O_44
REMARK                            x       y       z     vdW  Elec       q    Type
REMARK                         _______ _______ _______ _____ _____    ______ ____
ROOT
ATOM      1  C   UNL     1       4.331   0.630  27.796  0.00  0.00    +0.191 C 
ATOM      2  O   UNL     1       5.311   0.275  26.793  0.00  0.00    -0.330 OA
ATOM      3  C   UNL     1       6.593  -0.169  27.334  0.00  0.00    +0.340 C 
ATOM      4  C   UNL     1       7.188   0.931  28.261  0.00  0.00    +0.214 C 
ATOM      5  C   UNL     1       6.165   1.344  29.310  0.00  0.00    +0.180 C 
ATOM      6  C   UNL     1       4.876   1.792  28.638  0.00  0.00    +0.178 C 
ENDROOT
BRANCH   6   7
ATOM      7  O   UNL     1       3.992   2.238  29.670  0.00  0.00    -0.386 OA
ATOM      8  H   UNL     1       4.540   2.726  30.313  0.00  0.00    +0.210 HD
ENDBRANCH   6   7
BRANCH   5   9
ATOM      9  O   UNL     1       6.666   2.429  30.105  0.00  0.00    -0.386 OA
ATOM     10  H   UNL     1       7.547   2.625  29.730  0.00  0.00    +0.210 HD
ENDBRANCH   5   9
BRANCH   4  11
ATOM     11  O   UNL     1       8.396   0.548  28.937  0.00  0.00    -0.383 OA
ATOM     12  H   UNL     1       8.909  -0.021  28.329  0.00  0.00    +0.210 HD
ENDBRANCH   4  11
BRANCH   3  13
ATOM     13  O   UNL     1       7.481  -0.433  26.219  0.00  0.00    -0.453 OA
BRANCH  13  14
ATOM     14  C   UNL     1       7.020  -1.242  25.176  0.00  0.00    +0.214 A 
ATOM     15  C   UNL     1       6.729  -2.705  25.360  0.00  0.00    +0.238 A 
ATOM     16  O   UNL     1       6.669  -3.205  26.479  0.00  0.00    -0.283 OA
ATOM     17  C   UNL     1       6.590  -3.529  24.135  0.00  0.00    +0.109 A 
ATOM     18  C   UNL     1       6.379  -2.858  22.935  0.00  0.00    +0.147 A 
ATOM     19  C   UNL     1       6.146  -3.564  21.748  0.00  0.00    +0.092 A 
ATOM     20  C   UNL     1       6.163  -4.952  21.769  0.00  0.00    +0.124 A 
ATOM     21  C   UNL     1       6.439  -5.643  22.943  0.00  0.00    +0.091 A 
ATOM     22  O   UNL     1       6.401  -1.493  22.841  0.00  0.00    -0.451 OA
ATOM     23  C   UNL     1       6.663  -4.931  24.125  0.00  0.00    +0.135 A 
ATOM     24  C   UNL     1       6.849  -0.759  23.928  0.00  0.00    +0.181 A 
BRANCH  24  25
ATOM     25  C   UNL     1       7.163   0.626  23.536  0.00  0.00    +0.025 A 
ATOM     26  C   UNL     1       6.220   1.643  23.716  0.00  0.00    +0.015 A 
ATOM     27  C   UNL     1       6.441   2.918  23.190  0.00  0.00    +0.050 A 
ATOM     28  C   UNL     1       7.605   3.162  22.475  0.00  0.00    +0.158 A 
ATOM     29  C   UNL     1       8.562   2.164  22.308  0.00  0.00    +0.159 A 
ATOM     30  C   UNL     1       8.353   0.892  22.834  0.00  0.00    +0.060 A 
BRANCH  29  31
ATOM     31  O   UNL     1       9.685   2.476  21.591  0.00  0.00    -0.503 OA
ATOM     32  H   UNL     1       9.416   3.019  20.829  0.00  0.00    +0.292 HD
ENDBRANCH  29  31
BRANCH  28  33
ATOM     33  O   UNL     1       7.791   4.390  21.906  0.00  0.00    -0.503 OA
ATOM     34  H   UNL     1       8.620   4.300  21.395  0.00  0.00    +0.292 HD
ENDBRANCH  28  33
ENDBRANCH  24  25
BRANCH  23  35
ATOM     35  O   UNL     1       6.994  -5.624  25.256  0.00  0.00    -0.506 OA
ATOM     36  H   UNL     1       6.472  -5.295  26.007  0.00  0.00    +0.292 HD
ENDBRANCH  23  35
BRANCH  20  37
ATOM     37  O   UNL     1       5.920  -5.689  20.647  0.00  0.00    -0.507 OA
ATOM     38  H   UNL     1       5.549  -6.551  20.904  0.00  0.00    +0.292 HD
ENDBRANCH  20  37
ENDBRANCH  13  14
ENDBRANCH   3  13
BRANCH   1  39
ATOM     39  C   UNL     1       3.000   1.029  27.116  0.00  0.00    +0.266 C 
BRANCH  39  40
ATOM     40  O   UNL     1       2.198  -0.108  26.712  0.00  0.00    -0.459 OA
BRANCH  40  41
ATOM     41  C   UNL     1       1.842  -0.984  27.692  0.00  0.00    +0.332 C 
ATOM     42  O   UNL     1       1.491  -0.688  28.822  0.00  0.00    -0.246 OA
BRANCH  41  44
ATOM     43  C   UNL     1       2.969  -2.733  26.369  0.00  0.00    +0.015 C 
ATOM     44  C   UNL     1       1.943  -2.362  27.156  0.00  0.00    +0.092 C 
BRANCH  43  46
ATOM     45  C   UNL     1       3.536  -5.141  26.622  0.00  0.00    +0.012 A 
ATOM     46  C   UNL     1       3.140  -4.081  25.787  0.00  0.00    -0.021 A 
ATOM     47  C   UNL     1       2.878  -4.356  24.438  0.00  0.00    +0.057 A 
ATOM     48  C   UNL     1       3.053  -5.645  23.944  0.00  0.00    +0.159 A 
ATOM     49  C   UNL     1       3.472  -6.681  24.771  0.00  0.00    +0.158 A 
ATOM     50  C   UNL     1       3.710  -6.443  26.118  0.00  0.00    +0.050 A 
BRANCH  49  51
ATOM     51  O   UNL     1       3.632  -7.918  24.211  0.00  0.00    -0.503 OA
ATOM     52  H   UNL     1       4.560  -8.014  23.936  0.00  0.00    +0.292 HD
ENDBRANCH  49  51
BRANCH  48  53
ATOM     53  O   UNL     1       2.808  -5.890  22.621  0.00  0.00    -0.503 OA
ATOM     54  H   UNL     1       3.687  -5.840  22.196  0.00  0.00    +0.292 HD
ENDBRANCH  48  53
ENDBRANCH  43  46
ENDBRANCH  41  44
ENDBRANCH  40  41
ENDBRANCH  39  40
ENDBRANCH   1  39
TORSDOF 17
ENDMDL
MODEL 6
REMARK VINA RESULT:      -6.9      2.311      7.872
REMARK  Name = 
REMARK  17 active torsions:
REMARK  status: ('A' for Active; 'I' for Inactive)
REMARK    1  A    between atoms: C_3  and  O_50
REMARK    2  A    between atoms: C_4  and  O_49
REMARK    3  A    between atoms: C_6  and  C_7
REMARK    4  A    between atoms: C_8  and  C_9
REMARK    5  A    between atoms: C_9  and  O_11
REMARK    6  A    between atoms: O_11  and  C_12
REMARK    7  A    between atoms: C_12  and  C_13
REMARK    8  A    between atoms: C_15  and  O_48
REMARK    9  A    between atoms: C_17  and  O_47
REMARK   10  A    between atoms: C_19  and  O_46
REMARK   11  A    between atoms: C_21  and  O_24
REMARK   12  A    between atoms: O_24  and  C_25
REMARK   13  A    between atoms: C_26  and  C_38
REMARK   14  A    between atoms: C_30  and  O_37
REMARK   15  A    between atoms: C_32  and  O_36
REMARK   16  A    between atoms: C_40  and  O_45
REMARK   17  A    between atoms: C_41  and  O_44
REMARK                            x       y       z     vdW  Elec       q    Type
REMARK                         _______ _______ _______ _____ _____    ______ ____
ROOT
ATOM      1  C   UNL     1       6.878   0.845  27.483  0.00  0.00    +0.191 C 
ATOM      2  O   UNL     1       7.473   0.133  26.373  0.00  0.00    -0.330 OA
ATOM      3  C   UNL     1       8.611   0.812  25.761  0.00  0.00    +0.340 C 
ATOM      4  C   UNL     1       8.187   2.233  25.285  0.00  0.00    +0.214 C 
ATOM      5  C   UNL     1       7.532   2.997  26.428  0.00  0.00    +0.180 C 
ATOM      6  C   UNL     1       6.360   2.201  26.985  0.00  0.00    +0.178 C 
ENDROOT
BRANCH   6   7
ATOM      7  O   UNL     1       5.745   3.005  27.995  0.00  0.00    -0.386 OA
ATOM      8  H   UNL     1       4.845   2.648  28.124  0.00  0.00    +0.210 HD
ENDBRANCH   6   7
BRANCH   5   9
ATOM      9  O   UNL     1       7.046   4.268  25.974  0.00  0.00    -0.386 OA
ATOM     10  H   UNL     1       6.425   4.053  25.250  0.00  0.00    +0.210 HD
ENDBRANCH   5   9
BRANCH   4  11
ATOM     11  O   UNL     1       9.264   3.032  24.771  0.00  0.00    -0.383 OA
ATOM     12  H   UNL     1       9.059   3.969  24.966  0.00  0.00    +0.210 HD
ENDBRANCH   4  11
BRANCH   3  13
ATOM     13  O   UNL     1       9.060   0.011  24.640  0.00  0.00    -0.453 OA
BRANCH  13  14
ATOM     14  C   UNL     1       8.201  -0.969  24.134  0.00  0.00    +0.214 A 
ATOM     15  C   UNL     1       8.343  -2.424  24.486  0.00  0.00    +0.238 A 
ATOM     16  O   UNL     1       9.075  -2.788  25.400  0.00  0.00    -0.283 OA
ATOM     17  C   UNL     1       7.620  -3.401  23.636  0.00  0.00    +0.109 A 
ATOM     18  C   UNL     1       6.602  -2.913  22.825  0.00  0.00    +0.147 A 
ATOM     19  C   UNL     1       5.810  -3.780  22.063  0.00  0.00    +0.092 A 
ATOM     20  C   UNL     1       6.076  -5.143  22.092  0.00  0.00    +0.124 A 
ATOM     21  C   UNL     1       7.132  -5.647  22.842  0.00  0.00    +0.091 A 
ATOM     22  O   UNL     1       6.326  -1.577  22.715  0.00  0.00    -0.451 OA
ATOM     23  C   UNL     1       7.913  -4.774  23.606  0.00  0.00    +0.135 A 
ATOM     24  C   UNL     1       7.215  -0.666  23.264  0.00  0.00    +0.181 A 
BRANCH  24  25
ATOM     25  C   UNL     1       6.975   0.689  22.739  0.00  0.00    +0.025 A 
ATOM     26  C   UNL     1       7.912   1.298  21.898  0.00  0.00    +0.015 A 
ATOM     27  C   UNL     1       7.775   2.641  21.539  0.00  0.00    +0.050 A 
ATOM     28  C   UNL     1       6.703   3.369  22.035  0.00  0.00    +0.158 A 
ATOM     29  C   UNL     1       5.751   2.767  22.854  0.00  0.00    +0.159 A 
ATOM     30  C   UNL     1       5.876   1.428  23.213  0.00  0.00    +0.060 A 
BRANCH  29  31
ATOM     31  O   UNL     1       4.722   3.546  23.308  0.00  0.00    -0.503 OA
ATOM     32  H   UNL     1       4.997   3.954  24.147  0.00  0.00    +0.292 HD
ENDBRANCH  29  31
BRANCH  28  33
ATOM     33  O   UNL     1       6.606   4.698  21.736  0.00  0.00    -0.503 OA
ATOM     34  H   UNL     1       6.858   5.155  22.564  0.00  0.00    +0.292 HD
ENDBRANCH  28  33
ENDBRANCH  24  25
BRANCH  23  35
ATOM     35  O   UNL     1       8.985  -5.279  24.287  0.00  0.00    -0.506 OA
ATOM     36  H   UNL     1       9.810  -4.976  23.873  0.00  0.00    +0.292 HD
ENDBRANCH  23  35
BRANCH  20  37
ATOM     37  O   UNL     1       5.323  -6.035  21.386  0.00  0.00    -0.507 OA
ATOM     38  H   UNL     1       4.653  -6.425  21.974  0.00  0.00    +0.292 HD
ENDBRANCH  20  37
ENDBRANCH  13  14
ENDBRANCH   3  13
BRANCH   1  39
ATOM     39  C   UNL     1       5.724   0.012  28.088  0.00  0.00    +0.266 C 
BRANCH  39  40
ATOM     40  O   UNL     1       5.251  -1.038  27.209  0.00  0.00    -0.459 OA
BRANCH  40  41
ATOM     41  C   UNL     1       3.967  -0.933  26.768  0.00  0.00    +0.332 C 
ATOM     42  O   UNL     1       3.296   0.086  26.757  0.00  0.00    -0.246 OA
BRANCH  41  44
ATOM     43  C   UNL     1       4.361  -3.098  25.657  0.00  0.00    +0.015 C 
ATOM     44  C   UNL     1       3.518  -2.263  26.292  0.00  0.00    +0.092 C 
BRANCH  43  46
ATOM     45  C   UNL     1       4.654  -5.569  25.651  0.00  0.00    +0.012 A 
ATOM     46  C   UNL     1       3.993  -4.435  25.144  0.00  0.00    -0.021 A 
ATOM     47  C   UNL     1       2.976  -4.623  24.198  0.00  0.00    +0.057 A 
ATOM     48  C   UNL     1       2.670  -5.905  23.752  0.00  0.00    +0.159 A 
ATOM     49  C   UNL     1       3.346  -7.016  24.239  0.00  0.00    +0.158 A 
ATOM     50  C   UNL     1       4.339  -6.862  25.197  0.00  0.00    +0.050 A 
BRANCH  49  51
ATOM     51  O   UNL     1       2.997  -8.243  23.744  0.00  0.00    -0.503 OA
ATOM     52  H   UNL     1       3.811  -8.744  23.561  0.00  0.00    +0.292 HD
ENDBRANCH  49  51
BRANCH  48  53
ATOM     53  O   UNL     1       1.684  -6.066  22.817  0.00  0.00    -0.503 OA
ATOM     54  H   UNL     1       1.971  -6.838  22.290  0.00  0.00    +0.292 HD
ENDBRANCH  48  53
ENDBRANCH  43  46
ENDBRANCH  41  44
ENDBRANCH  40  41
ENDBRANCH  39  40
ENDBRANCH   1  39
TORSDOF 17
ENDMDL
MODEL 7
REMARK VINA RESULT:      -6.8      2.707      7.909
REMARK  Name = 
REMARK  17 active torsions:
REMARK  status: ('A' for Active; 'I' for Inactive)
REMARK    1  A    between atoms: C_3  and  O_50
REMARK    2  A    between atoms: C_4  and  O_49
REMARK    3  A    between atoms: C_6  and  C_7
REMARK    4  A    between atoms: C_8  and  C_9
REMARK    5  A    between atoms: C_9  and  O_11
REMARK    6  A    between atoms: O_11  and  C_12
REMARK    7  A    between atoms: C_12  and  C_13
REMARK    8  A    between atoms: C_15  and  O_48
REMARK    9  A    between atoms: C_17  and  O_47
REMARK   10  A    between atoms: C_19  and  O_46
REMARK   11  A    between atoms: C_21  and  O_24
REMARK   12  A    between atoms: O_24  and  C_25
REMARK   13  A    between atoms: C_26  and  C_38
REMARK   14  A    between atoms: C_30  and  O_37
REMARK   15  A    between atoms: C_32  and  O_36
REMARK   16  A    between atoms: C_40  and  O_45
REMARK   17  A    between atoms: C_41  and  O_44
REMARK                            x       y       z     vdW  Elec       q    Type
REMARK                         _______ _______ _______ _____ _____    ______ ____
ROOT
ATOM      1  C   UNL     1       8.622   3.406  23.197  0.00  0.00    +0.191 C 
ATOM      2  O   UNL     1       7.603   3.179  24.199  0.00  0.00    -0.330 OA
ATOM      3  C   UNL     1       7.062   4.397  24.795  0.00  0.00    +0.340 C 
ATOM      4  C   UNL     1       8.214   5.237  25.422  0.00  0.00    +0.214 C 
ATOM      5  C   UNL     1       9.315   5.468  24.396  0.00  0.00    +0.180 C 
ATOM      6  C   UNL     1       9.806   4.137  23.846  0.00  0.00    +0.178 C 
ENDROOT
BRANCH   6   7
ATOM      7  O   UNL     1      10.885   4.420  22.953  0.00  0.00    -0.386 OA
ATOM      8  H   UNL     1      11.564   4.887  23.477  0.00  0.00    +0.210 HD
ENDBRANCH   6   7
BRANCH   5   9
ATOM      9  O   UNL     1      10.425   6.153  24.992  0.00  0.00    -0.386 OA
ATOM     10  H   UNL     1      10.810   6.683  24.266  0.00  0.00    +0.210 HD
ENDBRANCH   5   9
BRANCH   4  11
ATOM     11  O   UNL     1       7.804   6.514  25.936  0.00  0.00    -0.383 OA
ATOM     12  H   UNL     1       7.668   6.417  26.900  0.00  0.00    +0.210 HD
ENDBRANCH   4  11
BRANCH   3  13
ATOM     13  O   UNL     1       6.102   4.009  25.810  0.00  0.00    -0.453 OA
BRANCH  13  14
ATOM     14  C   UNL     1       5.803   2.652  25.961  0.00  0.00    +0.214 A 
ATOM     15  C   UNL     1       6.703   1.707  26.707  0.00  0.00    +0.238 A 
ATOM     16  O   UNL     1       7.622   2.123  27.405  0.00  0.00    -0.283 OA
ATOM     17  C   UNL     1       6.477   0.255  26.508  0.00  0.00    +0.109 A 
ATOM     18  C   UNL     1       5.262  -0.133  25.955  0.00  0.00    +0.147 A 
ATOM     19  C   UNL     1       4.932  -1.487  25.819  0.00  0.00    +0.092 A 
ATOM     20  C   UNL     1       5.852  -2.452  26.209  0.00  0.00    +0.124 A 
ATOM     21  C   UNL     1       7.100  -2.088  26.702  0.00  0.00    +0.091 A 
ATOM     22  O   UNL     1       4.337   0.770  25.505  0.00  0.00    -0.451 OA
ATOM     23  C   UNL     1       7.417  -0.733  26.841  0.00  0.00    +0.135 A 
ATOM     24  C   UNL     1       4.703   2.103  25.405  0.00  0.00    +0.181 A 
BRANCH  24  25
ATOM     25  C   UNL     1       3.749   2.851  24.569  0.00  0.00    +0.025 A 
ATOM     26  C   UNL     1       2.496   3.213  25.075  0.00  0.00    +0.015 A 
ATOM     27  C   UNL     1       1.524   3.765  24.237  0.00  0.00    +0.050 A 
ATOM     28  C   UNL     1       1.812   3.942  22.891  0.00  0.00    +0.158 A 
ATOM     29  C   UNL     1       3.064   3.607  22.380  0.00  0.00    +0.159 A 
ATOM     30  C   UNL     1       4.040   3.062  23.208  0.00  0.00    +0.060 A 
BRANCH  29  31
ATOM     31  O   UNL     1       3.276   3.807  21.043  0.00  0.00    -0.503 OA
ATOM     32  H   UNL     1       2.647   3.254  20.550  0.00  0.00    +0.292 HD
ENDBRANCH  29  31
BRANCH  28  33
ATOM     33  O   UNL     1       0.840   4.421  22.060  0.00  0.00    -0.503 OA
ATOM     34  H   UNL     1       0.001   4.221  22.523  0.00  0.00    +0.292 HD
ENDBRANCH  28  33
ENDBRANCH  24  25
BRANCH  23  35
ATOM     35  O   UNL     1       8.671  -0.394  27.269  0.00  0.00    -0.506 OA
ATOM     36  H   UNL     1       9.173  -1.198  27.483  0.00  0.00    +0.292 HD
ENDBRANCH  23  35
BRANCH  20  37
ATOM     37  O   UNL     1       5.575  -3.784  26.120  0.00  0.00    -0.507 OA
ATOM     38  H   UNL     1       4.612  -3.908  26.064  0.00  0.00    +0.292 HD
ENDBRANCH  20  37
ENDBRANCH  13  14
ENDBRANCH   3  13
BRANCH   1  39
ATOM     39  C   UNL     1       9.081   2.058  22.594  0.00  0.00    +0.266 C 
BRANCH  39  40
ATOM     40  O   UNL     1      10.326   1.572  23.153  0.00  0.00    -0.459 OA
BRANCH  40  41
ATOM     41  C   UNL     1      10.233   0.592  24.094  0.00  0.00    +0.332 C 
ATOM     42  O   UNL     1      10.862   0.542  25.137  0.00  0.00    -0.246 OA
BRANCH  41  44
ATOM     43  C   UNL     1       9.388  -1.715  23.893  0.00  0.00    +0.015 C 
ATOM     44  C   UNL     1       9.229  -0.402  23.645  0.00  0.00    +0.092 C 
BRANCH  43  46
ATOM     45  C   UNL     1       8.593  -4.070  23.991  0.00  0.00    +0.012 A 
ATOM     46  C   UNL     1       8.441  -2.771  23.475  0.00  0.00    -0.021 A 
ATOM     47  C   UNL     1       7.365  -2.516  22.614  0.00  0.00    +0.057 A 
ATOM     48  C   UNL     1       6.502  -3.548  22.256  0.00  0.00    +0.159 A 
ATOM     49  C   UNL     1       6.677  -4.835  22.749  0.00  0.00    +0.158 A 
ATOM     50  C   UNL     1       7.717  -5.108  23.627  0.00  0.00    +0.050 A 
BRANCH  49  51
ATOM     51  O   UNL     1       5.795  -5.799  22.343  0.00  0.00    -0.503 OA
ATOM     52  H   UNL     1       5.538  -5.613  21.424  0.00  0.00    +0.292 HD
ENDBRANCH  49  51
BRANCH  48  53
ATOM     53  O   UNL     1       5.467  -3.283  21.402  0.00  0.00    -0.503 OA
ATOM     54  H   UNL     1       5.190  -2.373  21.628  0.00  0.00    +0.292 HD
ENDBRANCH  48  53
ENDBRANCH  43  46
ENDBRANCH  41  44
ENDBRANCH  40  41
ENDBRANCH  39  40
ENDBRANCH   1  39
TORSDOF 17
ENDMDL
MODEL 8
REMARK VINA RESULT:      -6.8      2.155      4.514
REMARK  Name = 
REMARK  17 active torsions:
REMARK  status: ('A' for Active; 'I' for Inactive)
REMARK    1  A    between atoms: C_3  and  O_50
REMARK    2  A    between atoms: C_4  and  O_49
REMARK    3  A    between atoms: C_6  and  C_7
REMARK    4  A    between atoms: C_8  and  C_9
REMARK    5  A    between atoms: C_9  and  O_11
REMARK    6  A    between atoms: O_11  and  C_12
REMARK    7  A    between atoms: C_12  and  C_13
REMARK    8  A    between atoms: C_15  and  O_48
REMARK    9  A    between atoms: C_17  and  O_47
REMARK   10  A    between atoms: C_19  and  O_46
REMARK   11  A    between atoms: C_21  and  O_24
REMARK   12  A    between atoms: O_24  and  C_25
REMARK   13  A    between atoms: C_26  and  C_38
REMARK   14  A    between atoms: C_30  and  O_37
REMARK   15  A    between atoms: C_32  and  O_36
REMARK   16  A    between atoms: C_40  and  O_45
REMARK   17  A    between atoms: C_41  and  O_44
REMARK                            x       y       z     vdW  Elec       q    Type
REMARK                         _______ _______ _______ _____ _____    ______ ____
ROOT
ATOM      1  C   UNL     1       4.692  -4.494  23.682  0.00  0.00    +0.191 C 
ATOM      2  O   UNL     1       3.778  -3.871  24.615  0.00  0.00    -0.330 OA
ATOM      3  C   UNL     1       3.310  -4.755  25.679  0.00  0.00    +0.340 C 
ATOM      4  C   UNL     1       2.629  -6.013  25.064  0.00  0.00    +0.214 C 
ATOM      5  C   UNL     1       3.559  -6.673  24.055  0.00  0.00    +0.180 C 
ATOM      6  C   UNL     1       3.979  -5.667  22.994  0.00  0.00    +0.178 C 
ENDROOT
BRANCH   6   7
ATOM      7  O   UNL     1       4.783  -6.367  22.041  0.00  0.00    -0.386 OA
ATOM      8  H   UNL     1       4.170  -6.900  21.499  0.00  0.00    +0.210 HD
ENDBRANCH   6   7
BRANCH   5   9
ATOM      9  O   UNL     1       2.904  -7.773  23.408  0.00  0.00    -0.386 OA
ATOM     10  H   UNL     1       2.306  -8.141  24.088  0.00  0.00    +0.210 HD
ENDBRANCH   5   9
BRANCH   4  11
ATOM     11  O   UNL     1       2.234  -7.003  26.025  0.00  0.00    -0.383 OA
ATOM     12  H   UNL     1       2.883  -6.985  26.757  0.00  0.00    +0.210 HD
ENDBRANCH   4  11
BRANCH   3  13
ATOM     13  O   UNL     1       2.368  -4.012  26.494  0.00  0.00    -0.453 OA
BRANCH  13  14
ATOM     14  C   UNL     1       2.841  -2.928  27.240  0.00  0.00    +0.214 A 
ATOM     15  C   UNL     1       2.302  -1.536  27.068  0.00  0.00    +0.238 A 
ATOM     16  O   UNL     1       1.275  -1.327  26.432  0.00  0.00    -0.283 OA
ATOM     17  C   UNL     1       3.100  -0.424  27.639  0.00  0.00    +0.109 A 
ATOM     18  C   UNL     1       4.071  -0.751  28.579  0.00  0.00    +0.147 A 
ATOM     19  C   UNL     1       4.804   0.247  29.233  0.00  0.00    +0.092 A 
ATOM     20  C   UNL     1       4.580   1.578  28.907  0.00  0.00    +0.124 A 
ATOM     21  C   UNL     1       3.663   1.925  27.921  0.00  0.00    +0.091 A 
ATOM     22  O   UNL     1       4.373  -2.045  28.905  0.00  0.00    -0.451 OA
ATOM     23  C   UNL     1       2.930   0.923  27.279  0.00  0.00    +0.135 A 
ATOM     24  C   UNL     1       3.845  -3.067  28.131  0.00  0.00    +0.181 A 
BRANCH  24  25
ATOM     25  C   UNL     1       4.555  -4.334  28.374  0.00  0.00    +0.025 A 
ATOM     26  C   UNL     1       4.055  -5.260  29.296  0.00  0.00    +0.015 A 
ATOM     27  C   UNL     1       4.809  -6.378  29.659  0.00  0.00    +0.050 A 
ATOM     28  C   UNL     1       6.068  -6.555  29.103  0.00  0.00    +0.158 A 
ATOM     29  C   UNL     1       6.567  -5.653  28.167  0.00  0.00    +0.159 A 
ATOM     30  C   UNL     1       5.820  -4.539  27.794  0.00  0.00    +0.060 A 
BRANCH  29  31
ATOM     31  O   UNL     1       7.816  -5.891  27.661  0.00  0.00    -0.503 OA
ATOM     32  H   UNL     1       8.468  -5.667  28.347  0.00  0.00    +0.292 HD
ENDBRANCH  29  31
BRANCH  28  33
ATOM     33  O   UNL     1       6.830  -7.614  29.507  0.00  0.00    -0.503 OA
ATOM     34  H   UNL     1       6.193  -8.349  29.611  0.00  0.00    +0.292 HD
ENDBRANCH  28  33
ENDBRANCH  24  25
BRANCH  23  35
ATOM     35  O   UNL     1       2.078   1.278  26.270  0.00  0.00    -0.506 OA
ATOM     36  H   UNL     1       1.210   1.509  26.640  0.00  0.00    +0.292 HD
ENDBRANCH  23  35
BRANCH  20  37
ATOM     37  O   UNL     1       5.250   2.591  29.528  0.00  0.00    -0.507 OA
ATOM     38  H   UNL     1       4.641   3.059  30.125  0.00  0.00    +0.292 HD
ENDBRANCH  20  37
ENDBRANCH  13  14
ENDBRANCH   3  13
BRANCH   1  39
ATOM     39  C   UNL     1       5.167  -3.457  22.636  0.00  0.00    +0.266 C 
BRANCH  39  40
ATOM     40  O   UNL     1       6.284  -3.918  21.838  0.00  0.00    -0.459 OA
BRANCH  40  41
ATOM     41  C   UNL     1       7.504  -3.928  22.442  0.00  0.00    +0.332 C 
ATOM     42  O   UNL     1       8.050  -4.902  22.932  0.00  0.00    -0.246 OA
BRANCH  41  44
ATOM     43  C   UNL     1       8.861  -2.097  23.382  0.00  0.00    +0.015 C 
ATOM     44  C   UNL     1       8.067  -2.558  22.398  0.00  0.00    +0.092 C 
BRANCH  43  46
ATOM     45  C   UNL     1      10.197  -0.353  24.549  0.00  0.00    +0.012 A 
ATOM     46  C   UNL     1       9.456  -0.744  23.419  0.00  0.00    -0.021 A 
ATOM     47  C   UNL     1       9.347   0.154  22.349  0.00  0.00    +0.057 A 
ATOM     48  C   UNL     1       9.930   1.415  22.437  0.00  0.00    +0.159 A 
ATOM     49  C   UNL     1      10.638   1.802  23.569  0.00  0.00    +0.158 A 
ATOM     50  C   UNL     1      10.785   0.922  24.632  0.00  0.00    +0.050 A 
BRANCH  49  51
ATOM     51  O   UNL     1      11.172   3.061  23.587  0.00  0.00    -0.503 OA
ATOM     52  H   UNL     1      10.451   3.704  23.472  0.00  0.00    +0.292 HD
ENDBRANCH  49  51
BRANCH  48  53
ATOM     53  O   UNL     1       9.800   2.283  21.388  0.00  0.00    -0.503 OA
ATOM     54  H   UNL     1      10.623   2.168  20.873  0.00  0.00    +0.292 HD
ENDBRANCH  48  53
ENDBRANCH  43  46
ENDBRANCH  41  44
ENDBRANCH  40  41
ENDBRANCH  39  40
ENDBRANCH   1  39
TORSDOF 17
ENDMDL
MODEL 9
REMARK VINA RESULT:      -6.7      2.792      6.402
REMARK  Name = 
REMARK  17 active torsions:
REMARK  status: ('A' for Active; 'I' for Inactive)
REMARK    1  A    between atoms: C_3  and  O_50
REMARK    2  A    between atoms: C_4  and  O_49
REMARK    3  A    between atoms: C_6  and  C_7
REMARK    4  A    between atoms: C_8  and  C_9
REMARK    5  A    between atoms: C_9  and  O_11
REMARK    6  A    between atoms: O_11  and  C_12
REMARK    7  A    between atoms: C_12  and  C_13
REMARK    8  A    between atoms: C_15  and  O_48
REMARK    9  A    between atoms: C_17  and  O_47
REMARK   10  A    between atoms: C_19  and  O_46
REMARK   11  A    between atoms: C_21  and  O_24
REMARK   12  A    between atoms: O_24  and  C_25
REMARK   13  A    between atoms: C_26  and  C_38
REMARK   14  A    between atoms: C_30  and  O_37
REMARK   15  A    between atoms: C_32  and  O_36
REMARK   16  A    between atoms: C_40  and  O_45
REMARK   17  A    between atoms: C_41  and  O_44
REMARK                            x       y       z     vdW  Elec       q    Type
REMARK                         _______ _______ _______ _____ _____    ______ ____
ROOT
ATOM      1  C   UNL     1       7.829   0.695  23.236  0.00  0.00    +0.191 C 
ATOM      2  O   UNL     1       7.299  -0.306  24.135  0.00  0.00    -0.330 OA
ATOM      3  C   UNL     1       8.306  -1.195  24.708  0.00  0.00    +0.340 C 
ATOM      4  C   UNL     1       9.099  -1.902  23.570  0.00  0.00    +0.214 C 
ATOM      5  C   UNL     1       9.645  -0.871  22.592  0.00  0.00    +0.180 C 
ATOM      6  C   UNL     1       8.514  -0.007  22.055  0.00  0.00    +0.178 C 
ENDROOT
BRANCH   6   7
ATOM      7  O   UNL     1       9.081   0.882  21.090  0.00  0.00    -0.386 OA
ATOM      8  H   UNL     1       8.749   0.594  20.218  0.00  0.00    +0.210 HD
ENDBRANCH   6   7
BRANCH   5   9
ATOM      9  O   UNL     1      10.291  -1.517  21.485  0.00  0.00    -0.386 OA
ATOM     10  H   UNL     1      11.040  -2.002  21.882  0.00  0.00    +0.210 HD
ENDBRANCH   5   9
BRANCH   4  11
ATOM     11  O   UNL     1      10.193  -2.713  24.025  0.00  0.00    -0.383 OA
ATOM     12  H   UNL     1      10.288  -2.572  24.988  0.00  0.00    +0.210 HD
ENDBRANCH   4  11
BRANCH   3  13
ATOM     13  O   UNL     1       7.622  -2.169  25.536  0.00  0.00    -0.453 OA
BRANCH  13  14
ATOM     14  C   UNL     1       6.292  -1.928  25.891  0.00  0.00    +0.214 A 
ATOM     15  C   UNL     1       5.913  -0.985  26.999  0.00  0.00    +0.238 A 
ATOM     16  O   UNL     1       6.735  -0.220  27.492  0.00  0.00    -0.283 OA
ATOM     17  C   UNL     1       4.526  -1.071  27.517  0.00  0.00    +0.109 A 
ATOM     18  C   UNL     1       3.590  -1.734  26.731  0.00  0.00    +0.147 A 
ATOM     19  C   UNL     1       2.241  -1.779  27.104  0.00  0.00    +0.092 A 
ATOM     20  C   UNL     1       1.844  -1.184  28.294  0.00  0.00    +0.124 A 
ATOM     21  C   UNL     1       2.774  -0.574  29.129  0.00  0.00    +0.091 A 
ATOM     22  O   UNL     1       3.927  -2.383  25.575  0.00  0.00    -0.451 OA
ATOM     23  C   UNL     1       4.118  -0.527  28.746  0.00  0.00    +0.135 A 
ATOM     24  C   UNL     1       5.270  -2.563  25.281  0.00  0.00    +0.181 A 
BRANCH  24  25
ATOM     25  C   UNL     1       5.448  -3.582  24.233  0.00  0.00    +0.025 A 
ATOM     26  C   UNL     1       5.700  -3.201  22.910  0.00  0.00    +0.015 A 
ATOM     27  C   UNL     1       5.696  -4.149  21.885  0.00  0.00    +0.050 A 
ATOM     28  C   UNL     1       5.429  -5.476  22.191  0.00  0.00    +0.158 A 
ATOM     29  C   UNL     1       5.201  -5.872  23.507  0.00  0.00    +0.159 A 
ATOM     30  C   UNL     1       5.208  -4.934  24.536  0.00  0.00    +0.060 A 
BRANCH  29  31
ATOM     31  O   UNL     1       4.943  -7.196  23.735  0.00  0.00    -0.503 OA
ATOM     32  H   UNL     1       5.189  -7.399  24.654  0.00  0.00    +0.292 HD
ENDBRANCH  29  31
BRANCH  28  33
ATOM     33  O   UNL     1       5.362  -6.392  21.181  0.00  0.00    -0.503 OA
ATOM     34  H   UNL     1       5.739  -7.209  21.565  0.00  0.00    +0.292 HD
ENDBRANCH  28  33
ENDBRANCH  24  25
BRANCH  23  35
ATOM     35  O   UNL     1       5.027   0.021  29.607  0.00  0.00    -0.506 OA
ATOM     36  H   UNL     1       5.909   0.019  29.199  0.00  0.00    +0.292 HD
ENDBRANCH  23  35
BRANCH  20  37
ATOM     37  O   UNL     1       0.541  -1.179  28.694  0.00  0.00    -0.507 OA
ATOM     38  H   UNL     1       0.126  -2.023  28.447  0.00  0.00    +0.292 HD
ENDBRANCH  20  37
ENDBRANCH  13  14
ENDBRANCH   3  13
BRANCH   1  39
ATOM     39  C   UNL     1       6.688   1.613  22.736  0.00  0.00    +0.266 C 
BRANCH  39  40
ATOM     40  O   UNL     1       5.862   2.138  23.804  0.00  0.00    -0.459 OA
BRANCH  40  41
ATOM     41  C   UNL     1       5.674   3.486  23.825  0.00  0.00    +0.332 C 
ATOM     42  O   UNL     1       4.604   4.056  23.964  0.00  0.00    -0.246 OA
BRANCH  41  44
ATOM     43  C   UNL     1       7.789   4.387  24.714  0.00  0.00    +0.015 C 
ATOM     44  C   UNL     1       6.988   4.152  23.660  0.00  0.00    +0.092 C 
BRANCH  43  46
ATOM     45  C   UNL     1       9.400   6.097  25.532  0.00  0.00    +0.012 A 
ATOM     46  C   UNL     1       9.108   5.051  24.638  0.00  0.00    -0.021 A 
ATOM     47  C   UNL     1      10.101   4.648  23.735  0.00  0.00    +0.057 A 
ATOM     48  C   UNL     1      11.326   5.308  23.709  0.00  0.00    +0.159 A 
ATOM     49  C   UNL     1      11.596   6.358  24.578  0.00  0.00    +0.158 A 
ATOM     50  C   UNL     1      10.641   6.758  25.503  0.00  0.00    +0.050 A 
BRANCH  49  51
ATOM     51  O   UNL     1      12.818   6.965  24.485  0.00  0.00    -0.503 OA
ATOM     52  H   UNL     1      13.443   6.489  25.059  0.00  0.00    +0.292 HD
ENDBRANCH  49  51
BRANCH  48  53
ATOM     53  O   UNL     1      12.277   4.910  22.810  0.00  0.00    -0.503 OA
ATOM     54  H   UNL     1      12.887   5.671  22.746  0.00  0.00    +0.292 HD
ENDBRANCH  48  53
ENDBRANCH  43  46
ENDBRANCH  41  44
ENDBRANCH  40  41
ENDBRANCH  39  40
ENDBRANCH   1  39
TORSDOF 17
ENDMDL
