MODEL 1
REMARK VINA RESULT:      -8.3      0.000      0.000
REMARK  Name = 
REMARK  10 active torsions:
REMARK  status: ('A' for Active; 'I' for Inactive)
REMARK    1  A    between atoms: C_1  and  O_2
REMARK    2  A    between atoms: O_2  and  C_3
REMARK    3  A    between atoms: C_4  and  O_35
REMARK    4  A    between atoms: C_7  and  C_9
REMARK    5  A    between atoms: C_10  and  C_33
REMARK    6  A    between atoms: C_16  and  C_19
REMARK    7  A    between atoms: C_20  and  O_32
REMARK    8  A    between atoms: C_24  and  O_31
REMARK    9  A    between atoms: C_26  and  O_30
REMARK   10  A    between atoms: C_33  and  O_34
REMARK                            x       y       z     vdW  Elec       q    Type
REMARK                         _______ _______ _______ _____ _____    ______ ____
ROOT
ATOM      1  C   UNL     1       6.875  -3.759  24.349  0.00  0.00    +0.246 C 
ATOM      2  O   UNL     1       7.404  -2.502  24.877  0.00  0.00    -0.477 OA
ATOM      3  C   UNL     1       7.933  -1.703  23.883  0.00  0.00    +0.164 A 
ATOM      4  C   UNL     1       8.206  -0.350  24.172  0.00  0.00    +0.061 A 
ATOM      5  C   UNL     1       8.694   0.530  23.175  0.00  0.00    +0.025 A 
ATOM      6  C   UNL     1       8.807   0.011  21.870  0.00  0.00    +0.015 A 
ATOM      7  C   UNL     1       8.596  -1.343  21.595  0.00  0.00    +0.050 A 
ATOM      8  C   UNL     1       8.203  -2.201  22.609  0.00  0.00    +0.163 A 
ATOM      9  O   UNL     1       8.091  -3.519  22.265  0.00  0.00    -0.479 OA
ATOM     10  C   UNL     1       7.939  -4.379  23.421  0.00  0.00    +0.244 C 
ENDROOT
BRANCH   5  11
ATOM     11  C   UNL     1       9.063   1.962  23.451  0.00  0.00    +0.181 A 
ATOM     12  O   UNL     1      10.403   2.269  23.193  0.00  0.00    -0.451 OA
ATOM     13  C   UNL     1      10.863   3.541  23.463  0.00  0.00    +0.147 A 
ATOM     14  C   UNL     1      10.051   4.550  23.974  0.00  0.00    +0.109 A 
ATOM     15  C   UNL     1      10.570   5.830  24.233  0.00  0.00    +0.135 A 
ATOM     16  C   UNL     1      11.909   6.107  23.982  0.00  0.00    +0.091 A 
ATOM     17  C   UNL     1      12.716   5.098  23.470  0.00  0.00    +0.124 A 
ATOM     18  C   UNL     1       8.642   4.253  24.212  0.00  0.00    +0.238 A 
ATOM     19  O   UNL     1       7.892   5.132  24.629  0.00  0.00    -0.283 OA
ATOM     20  C   UNL     1      12.208   3.821  23.208  0.00  0.00    +0.092 A 
ATOM     21  C   UNL     1       8.177   2.877  23.911  0.00  0.00    +0.208 A 
BRANCH  15  22
ATOM     22  O   UNL     1       9.816   6.861  24.729  0.00  0.00    -0.506 OA
ATOM     23  H   UNL     1      10.423   7.608  24.944  0.00  0.00    +0.292 HD
ENDBRANCH  15  22
BRANCH  17  24
ATOM     24  O   UNL     1      14.041   5.325  23.204  0.00  0.00    -0.507 OA
ATOM     25  H   UNL     1      14.103   5.937  22.451  0.00  0.00    +0.292 HD
ENDBRANCH  17  24
BRANCH  21  26
ATOM     26  O   UNL     1       6.833   2.645  24.135  0.00  0.00    -0.501 OA
ATOM     27  H   UNL     1       6.343   3.366  23.705  0.00  0.00    +0.292 HD
ENDBRANCH  21  26
ENDBRANCH   5  11
BRANCH   1  30
ATOM     28  C   UNL     1       4.832  -6.245  26.501  0.00  0.00    +0.162 A 
ATOM     29  C   UNL     1       5.224  -5.375  25.462  0.00  0.00    +0.056 A 
ATOM     30  C   UNL     1       6.431  -4.660  25.495  0.00  0.00    -0.000 A 
ATOM     31  C   UNL     1       7.239  -4.798  26.634  0.00  0.00    +0.011 A 
ATOM     32  C   UNL     1       6.867  -5.656  27.672  0.00  0.00    +0.049 A 
ATOM     33  C   UNL     1       5.675  -6.383  27.604  0.00  0.00    +0.158 A 
BRANCH  28  35
ATOM     34  C   UNL     1       3.376  -7.455  24.991  0.00  0.00    +0.277 C 
ATOM     35  O   UNL     1       3.629  -6.840  26.241  0.00  0.00    -0.491 OA
ENDBRANCH  28  35
BRANCH  33  36
ATOM     36  O   UNL     1       5.449  -7.187  28.685  0.00  0.00    -0.503 OA
ATOM     37  H   UNL     1       4.625  -7.670  28.540  0.00  0.00    +0.292 HD
ENDBRANCH  33  36
ENDBRANCH   1  30
BRANCH  10  38
ATOM     38  C   UNL     1       7.595  -5.753  22.840  0.00  0.00    +0.204 C 
BRANCH  38  39
ATOM     39  O   UNL     1       7.176  -5.641  21.479  0.00  0.00    -0.391 OA
ATOM     40  H   UNL     1       6.323  -6.113  21.420  0.00  0.00    +0.210 HD
ENDBRANCH  38  39
ENDBRANCH  10  38
TORSDOF 9
ENDMDL
MODEL 2
REMARK VINA RESULT:      -8.0      2.751      3.355
REMARK  Name = 
REMARK  10 active torsions:
REMARK  status: ('A' for Active; 'I' for Inactive)
REMARK    1  A    between atoms: C_1  and  O_2
REMARK    2  A    between atoms: O_2  and  C_3
REMARK    3  A    between atoms: C_4  and  O_35
REMARK    4  A    between atoms: C_7  and  C_9
REMARK    5  A    between atoms: C_10  and  C_33
REMARK    6  A    between atoms: C_16  and  C_19
REMARK    7  A    between atoms: C_20  and  O_32
REMARK    8  A    between atoms: C_24  and  O_31
REMARK    9  A    between atoms: C_26  and  O_30
REMARK   10  A    between atoms: C_33  and  O_34
REMARK                            x       y       z     vdW  Elec       q    Type
REMARK                         _______ _______ _______ _____ _____    ______ ____
ROOT
ATOM      1  C   UNL     1       7.273  -3.972  24.534  0.00  0.00    +0.246 C 
ATOM      2  O   UNL     1       6.732  -2.675  24.938  0.00  0.00    -0.477 OA
ATOM      3  C   UNL     1       7.663  -1.663  24.816  0.00  0.00    +0.164 A 
ATOM      4  C   UNL     1       7.224  -0.324  24.874  0.00  0.00    +0.061 A 
ATOM      5  C   UNL     1       8.127   0.753  24.696  0.00  0.00    +0.025 A 
ATOM      6  C   UNL     1       9.457   0.420  24.372  0.00  0.00    +0.015 A 
ATOM      7  C   UNL     1       9.907  -0.903  24.376  0.00  0.00    +0.050 A 
ATOM      8  C   UNL     1       9.020  -1.933  24.639  0.00  0.00    +0.163 A 
ATOM      9  O   UNL     1       9.561  -3.188  24.693  0.00  0.00    -0.479 OA
ATOM     10  C   UNL     1       8.635  -4.164  25.228  0.00  0.00    +0.244 C 
ENDROOT
BRANCH   5  11
ATOM     11  C   UNL     1       7.720   2.196  24.816  0.00  0.00    +0.181 A 
ATOM     12  O   UNL     1       7.645   2.875  23.595  0.00  0.00    -0.451 OA
ATOM     13  C   UNL     1       7.333   4.219  23.594  0.00  0.00    +0.147 A 
ATOM     14  C   UNL     1       7.075   4.940  24.757  0.00  0.00    +0.109 A 
ATOM     15  C   UNL     1       6.763   6.309  24.699  0.00  0.00    +0.135 A 
ATOM     16  C   UNL     1       6.709   6.965  23.475  0.00  0.00    +0.091 A 
ATOM     17  C   UNL     1       6.964   6.241  22.317  0.00  0.00    +0.124 A 
ATOM     18  C   UNL     1       7.113   4.235  26.033  0.00  0.00    +0.238 A 
ATOM     19  O   UNL     1       6.855   4.835  27.074  0.00  0.00    -0.283 OA
ATOM     20  C   UNL     1       7.275   4.878  22.363  0.00  0.00    +0.092 A 
ATOM     21  C   UNL     1       7.450   2.790  26.003  0.00  0.00    +0.208 A 
BRANCH  15  22
ATOM     22  O   UNL     1       6.494   7.066  25.810  0.00  0.00    -0.506 OA
ATOM     23  H   UNL     1       6.500   8.015  25.542  0.00  0.00    +0.292 HD
ENDBRANCH  15  22
BRANCH  17  24
ATOM     24  O   UNL     1       6.920   6.845  21.087  0.00  0.00    -0.507 OA
ATOM     25  H   UNL     1       6.703   7.784  21.214  0.00  0.00    +0.292 HD
ENDBRANCH  17  24
BRANCH  21  26
ATOM     26  O   UNL     1       7.458   2.159  27.232  0.00  0.00    -0.501 OA
ATOM     27  H   UNL     1       8.345   1.780  27.353  0.00  0.00    +0.292 HD
ENDBRANCH  21  26
ENDBRANCH   5  11
BRANCH   1  30
ATOM     28  C   UNL     1       5.045  -6.540  26.385  0.00  0.00    +0.162 A 
ATOM     29  C   UNL     1       6.017  -5.555  26.113  0.00  0.00    +0.056 A 
ATOM     30  C   UNL     1       6.256  -5.071  24.817  0.00  0.00    -0.000 A 
ATOM     31  C   UNL     1       5.519  -5.635  23.766  0.00  0.00    +0.011 A 
ATOM     32  C   UNL     1       4.550  -6.611  24.016  0.00  0.00    +0.049 A 
ATOM     33  C   UNL     1       4.307  -7.056  25.318  0.00  0.00    +0.158 A 
BRANCH  28  35
ATOM     34  C   UNL     1       5.891  -6.265  28.637  0.00  0.00    +0.277 C 
ATOM     35  O   UNL     1       4.982  -6.841  27.716  0.00  0.00    -0.491 OA
ENDBRANCH  28  35
BRANCH  33  36
ATOM     36  O   UNL     1       3.327  -8.003  25.411  0.00  0.00    -0.503 OA
ATOM     37  H   UNL     1       3.299  -8.498  24.582  0.00  0.00    +0.292 HD
ENDBRANCH  33  36
ENDBRANCH   1  30
BRANCH  10  38
ATOM     38  C   UNL     1       9.317  -5.515  24.991  0.00  0.00    +0.204 C 
BRANCH  38  39
ATOM     39  O   UNL     1      10.645  -5.515  25.515  0.00  0.00    -0.391 OA
ATOM     40  H   UNL     1      10.595  -5.057  26.376  0.00  0.00    +0.210 HD
ENDBRANCH  38  39
ENDBRANCH  10  38
TORSDOF 9
ENDMDL
MODEL 3
REMARK VINA RESULT:      -7.8      1.808      2.225
REMARK  Name = 
REMARK  10 active torsions:
REMARK  status: ('A' for Active; 'I' for Inactive)
REMARK    1  A    between atoms: C_1  and  O_2
REMARK    2  A    between atoms: O_2  and  C_3
REMARK    3  A    between atoms: C_4  and  O_35
REMARK    4  A    between atoms: C_7  and  C_9
REMARK    5  A    between atoms: C_10  and  C_33
REMARK    6  A    between atoms: C_16  and  C_19
REMARK    7  A    between atoms: C_20  and  O_32
REMARK    8  A    between atoms: C_24  and  O_31
REMARK    9  A    between atoms: C_26  and  O_30
REMARK   10  A    between atoms: C_33  and  O_34
REMARK                            x       y       z     vdW  Elec       q    Type
REMARK                         _______ _______ _______ _____ _____    ______ ____
ROOT
ATOM      1  C   UNL     1       7.255  -3.991  24.734  0.00  0.00    +0.246 C 
ATOM      2  O   UNL     1       6.918  -2.579  24.905  0.00  0.00    -0.477 OA
ATOM      3  C   UNL     1       7.868  -1.747  24.347  0.00  0.00    +0.164 A 
ATOM      4  C   UNL     1       7.553  -0.384  24.159  0.00  0.00    +0.061 A 
ATOM      5  C   UNL     1       8.468   0.502  23.539  0.00  0.00    +0.025 A 
ATOM      6  C   UNL     1       9.661  -0.061  23.044  0.00  0.00    +0.015 A 
ATOM      7  C   UNL     1      10.002  -1.395  23.284  0.00  0.00    +0.050 A 
ATOM      8  C   UNL     1       9.125  -2.219  23.971  0.00  0.00    +0.163 A 
ATOM      9  O   UNL     1       9.571  -3.486  24.223  0.00  0.00    -0.479 OA
ATOM     10  C   UNL     1       8.723  -4.192  25.161  0.00  0.00    +0.244 C 
ENDROOT
BRANCH   5  11
ATOM     11  C   UNL     1       8.206   1.974  23.377  0.00  0.00    +0.181 A 
ATOM     12  O   UNL     1       9.223   2.796  23.873  0.00  0.00    -0.451 OA
ATOM     13  C   UNL     1       9.061   4.165  23.825  0.00  0.00    +0.147 A 
ATOM     14  C   UNL     1       7.930   4.779  23.293  0.00  0.00    +0.109 A 
ATOM     15  C   UNL     1       7.815   6.179  23.270  0.00  0.00    +0.135 A 
ATOM     16  C   UNL     1       8.832   6.974  23.782  0.00  0.00    +0.091 A 
ATOM     17  C   UNL     1       9.961   6.359  24.310  0.00  0.00    +0.124 A 
ATOM     18  C   UNL     1       6.878   3.932  22.739  0.00  0.00    +0.238 A 
ATOM     19  O   UNL     1       5.883   4.444  22.230  0.00  0.00    -0.283 OA
ATOM     20  C   UNL     1      10.086   4.965  24.337  0.00  0.00    +0.092 A 
ATOM     21  C   UNL     1       7.081   2.464  22.804  0.00  0.00    +0.208 A 
BRANCH  15  22
ATOM     22  O   UNL     1       6.728   6.835  22.754  0.00  0.00    -0.506 OA
ATOM     23  H   UNL     1       6.104   6.159  22.396  0.00  0.00    +0.292 HD
ENDBRANCH  15  22
BRANCH  17  24
ATOM     24  O   UNL     1      10.991   7.103  24.823  0.00  0.00    -0.507 OA
ATOM     25  H   UNL     1      10.809   7.272  25.763  0.00  0.00    +0.292 HD
ENDBRANCH  17  24
BRANCH  21  26
ATOM     26  O   UNL     1       6.069   1.702  22.252  0.00  0.00    -0.501 OA
ATOM     27  H   UNL     1       5.954   2.001  21.334  0.00  0.00    +0.292 HD
ENDBRANCH  21  26
ENDBRANCH   5  11
BRANCH   1  30
ATOM     28  C   UNL     1       4.577  -6.669  25.532  0.00  0.00    +0.162 A 
ATOM     29  C   UNL     1       5.473  -5.832  24.835  0.00  0.00    +0.056 A 
ATOM     30  C   UNL     1       6.252  -4.860  25.482  0.00  0.00    -0.000 A 
ATOM     31  C   UNL     1       6.083  -4.705  26.866  0.00  0.00    +0.011 A 
ATOM     32  C   UNL     1       5.201  -5.527  27.573  0.00  0.00    +0.049 A 
ATOM     33  C   UNL     1       4.457  -6.510  26.913  0.00  0.00    +0.158 A 
BRANCH  28  35
ATOM     34  C   UNL     1       2.729  -7.190  24.056  0.00  0.00    +0.277 C 
ATOM     35  O   UNL     1       3.942  -7.544  24.696  0.00  0.00    -0.491 OA
ENDBRANCH  28  35
BRANCH  33  36
ATOM     36  O   UNL     1       3.647  -7.242  27.733  0.00  0.00    -0.503 OA
ATOM     37  H   UNL     1       3.032  -6.640  28.173  0.00  0.00    +0.292 HD
ENDBRANCH  33  36
ENDBRANCH   1  30
BRANCH  10  38
ATOM     38  C   UNL     1       9.231  -5.636  25.133  0.00  0.00    +0.204 C 
BRANCH  38  39
ATOM     39  O   UNL     1      10.574  -5.713  25.611  0.00  0.00    -0.391 OA
ATOM     40  H   UNL     1      10.890  -4.791  25.676  0.00  0.00    +0.210 HD
ENDBRANCH  38  39
ENDBRANCH  10  38
TORSDOF 9
ENDMDL
MODEL 4
REMARK VINA RESULT:      -7.3      2.644      3.296
REMARK  Name = 
REMARK  10 active torsions:
REMARK  status: ('A' for Active; 'I' for Inactive)
REMARK    1  A    between atoms: C_1  and  O_2
REMARK    2  A    between atoms: O_2  and  C_3
REMARK    3  A    between atoms: C_4  and  O_35
REMARK    4  A    between atoms: C_7  and  C_9
REMARK    5  A    between atoms: C_10  and  C_33
REMARK    6  A    between atoms: C_16  and  C_19
REMARK    7  A    between atoms: C_20  and  O_32
REMARK    8  A    between atoms: C_24  and  O_31
REMARK    9  A    between atoms: C_26  and  O_30
REMARK   10  A    between atoms: C_33  and  O_34
REMARK                            x       y       z     vdW  Elec       q    Type
REMARK                         _______ _______ _______ _____ _____    ______ ____
ROOT
ATOM      1  C   UNL     1       7.292  -3.922  24.307  0.00  0.00    +0.246 C 
ATOM      2  O   UNL     1       6.819  -2.559  24.543  0.00  0.00    -0.477 OA
ATOM      3  C   UNL     1       7.817  -1.623  24.357  0.00  0.00    +0.164 A 
ATOM      4  C   UNL     1       7.461  -0.263  24.249  0.00  0.00    +0.061 A 
ATOM      5  C   UNL     1       8.437   0.734  24.000  0.00  0.00    +0.025 A 
ATOM      6  C   UNL     1       9.755   0.290  23.777  0.00  0.00    +0.015 A 
ATOM      7  C   UNL     1      10.120  -1.049  23.944  0.00  0.00    +0.050 A 
ATOM      8  C   UNL     1       9.159  -1.990  24.275  0.00  0.00    +0.163 A 
ATOM      9  O   UNL     1       9.618  -3.261  24.489  0.00  0.00    -0.479 OA
ATOM     10  C   UNL     1       8.611  -4.117  25.081  0.00  0.00    +0.244 C 
ENDROOT
BRANCH   5  11
ATOM     11  C   UNL     1       8.117   2.202  23.945  0.00  0.00    +0.181 A 
ATOM     12  O   UNL     1       7.937   2.798  25.197  0.00  0.00    -0.451 OA
ATOM     13  C   UNL     1       7.587   4.131  25.261  0.00  0.00    +0.147 A 
ATOM     14  C   UNL     1       7.411   4.926  24.131  0.00  0.00    +0.109 A 
ATOM     15  C   UNL     1       7.052   6.279  24.252  0.00  0.00    +0.135 A 
ATOM     16  C   UNL     1       6.865   6.845  25.507  0.00  0.00    +0.091 A 
ATOM     17  C   UNL     1       7.044   6.049  26.633  0.00  0.00    +0.124 A 
ATOM     18  C   UNL     1       7.632   4.325  22.820  0.00  0.00    +0.238 A 
ATOM     19  O   UNL     1       7.520   5.009  21.805  0.00  0.00    -0.283 OA
ATOM     20  C   UNL     1       7.402   4.701  26.523  0.00  0.00    +0.092 A 
ATOM     21  C   UNL     1       8.009   2.891  22.783  0.00  0.00    +0.208 A 
BRANCH  15  22
ATOM     22  O   UNL     1       6.872   7.107  23.176  0.00  0.00    -0.506 OA
ATOM     23  H   UNL     1       7.709   7.117  22.654  0.00  0.00    +0.292 HD
ENDBRANCH  15  22
BRANCH  17  24
ATOM     24  O   UNL     1       6.873   6.565  27.891  0.00  0.00    -0.507 OA
ATOM     25  H   UNL     1       6.124   6.108  28.311  0.00  0.00    +0.292 HD
ENDBRANCH  17  24
BRANCH  21  26
ATOM     26  O   UNL     1       8.225   2.368  21.522  0.00  0.00    -0.501 OA
ATOM     27  H   UNL     1       7.510   1.732  21.350  0.00  0.00    +0.292 HD
ENDBRANCH  21  26
ENDBRANCH   5  11
BRANCH   1  30
ATOM     28  C   UNL     1       4.231  -6.276  24.041  0.00  0.00    +0.162 A 
ATOM     29  C   UNL     1       5.218  -5.317  23.733  0.00  0.00    +0.056 A 
ATOM     30  C   UNL     1       6.197  -4.922  24.658  0.00  0.00    -0.000 A 
ATOM     31  C   UNL     1       6.143  -5.483  25.943  0.00  0.00    +0.011 A 
ATOM     32  C   UNL     1       5.173  -6.436  26.265  0.00  0.00    +0.049 A 
ATOM     33  C   UNL     1       4.227  -6.838  25.319  0.00  0.00    +0.158 A 
BRANCH  28  35
ATOM     34  C   UNL     1       2.050  -6.084  23.007  0.00  0.00    +0.277 C 
ATOM     35  O   UNL     1       3.400  -6.510  22.981  0.00  0.00    -0.491 OA
ENDBRANCH  28  35
BRANCH  33  36
ATOM     36  O   UNL     1       3.349  -7.782  25.771  0.00  0.00    -0.503 OA
ATOM     37  H   UNL     1       3.832  -8.408  26.326  0.00  0.00    +0.292 HD
ENDBRANCH  33  36
ENDBRANCH   1  30
BRANCH  10  38
ATOM     38  C   UNL     1       9.215  -5.523  25.023  0.00  0.00    +0.204 C 
BRANCH  38  39
ATOM     39  O   UNL     1      10.570  -5.515  25.471  0.00  0.00    -0.391 OA
ATOM     40  H   UNL     1      10.969  -6.342  25.137  0.00  0.00    +0.210 HD
ENDBRANCH  38  39
ENDBRANCH  10  38
TORSDOF 9
ENDMDL
MODEL 5
REMARK VINA RESULT:      -7.3      2.130     10.602
REMARK  Name = 
REMARK  10 active torsions:
REMARK  status: ('A' for Active; 'I' for Inactive)
REMARK    1  A    between atoms: C_1  and  O_2
REMARK    2  A    between atoms: O_2  and  C_3
REMARK    3  A    between atoms: C_4  and  O_35
REMARK    4  A    between atoms: C_7  and  C_9
REMARK    5  A    between atoms: C_10  and  C_33
REMARK    6  A    between atoms: C_16  and  C_19
REMARK    7  A    between atoms: C_20  and  O_32
REMARK    8  A    between atoms: C_24  and  O_31
REMARK    9  A    between atoms: C_26  and  O_30
REMARK   10  A    between atoms: C_33  and  O_34
REMARK                            x       y       z     vdW  Elec       q    Type
REMARK                         _______ _______ _______ _____ _____    ______ ____
ROOT
ATOM      1  C   UNL     1       8.388   1.035  24.051  0.00  0.00    +0.246 C 
ATOM      2  O   UNL     1       7.233   0.140  24.099  0.00  0.00    -0.477 OA
ATOM      3  C   UNL     1       7.603  -1.189  24.042  0.00  0.00    +0.164 A 
ATOM      4  C   UNL     1       6.651  -2.175  24.377  0.00  0.00    +0.061 A 
ATOM      5  C   UNL     1       6.993  -3.550  24.392  0.00  0.00    +0.025 A 
ATOM      6  C   UNL     1       8.342  -3.872  24.145  0.00  0.00    +0.015 A 
ATOM      7  C   UNL     1       9.271  -2.904  23.752  0.00  0.00    +0.050 A 
ATOM      8  C   UNL     1       8.887  -1.576  23.661  0.00  0.00    +0.163 A 
ATOM      9  O   UNL     1       9.840  -0.710  23.201  0.00  0.00    -0.479 OA
ATOM     10  C   UNL     1       9.293   0.593  22.884  0.00  0.00    +0.244 C 
ENDROOT
BRANCH   5  11
ATOM     11  C   UNL     1       5.998  -4.641  24.676  0.00  0.00    +0.181 A 
ATOM     12  O   UNL     1       4.993  -4.768  23.710  0.00  0.00    -0.451 OA
ATOM     13  C   UNL     1       3.997  -5.703  23.899  0.00  0.00    +0.147 A 
ATOM     14  C   UNL     1       3.944  -6.544  25.008  0.00  0.00    +0.109 A 
ATOM     15  C   UNL     1       2.904  -7.478  25.152  0.00  0.00    +0.135 A 
ATOM     16  C   UNL     1       1.910  -7.576  24.186  0.00  0.00    +0.091 A 
ATOM     17  C   UNL     1       1.968  -6.737  23.080  0.00  0.00    +0.124 A 
ATOM     18  C   UNL     1       5.005  -6.446  26.004  0.00  0.00    +0.238 A 
ATOM     19  O   UNL     1       5.006  -7.199  26.975  0.00  0.00    -0.283 OA
ATOM     20  C   UNL     1       2.999  -5.803  22.926  0.00  0.00    +0.092 A 
ATOM     21  C   UNL     1       6.064  -5.433  25.772  0.00  0.00    +0.208 A 
BRANCH  15  22
ATOM     22  O   UNL     1       2.806  -8.333  26.218  0.00  0.00    -0.506 OA
ATOM     23  H   UNL     1       2.589  -9.231  25.871  0.00  0.00    +0.292 HD
ENDBRANCH  15  22
BRANCH  17  24
ATOM     24  O   UNL     1       1.011  -6.799  22.101  0.00  0.00    -0.507 OA
ATOM     25  H   UNL     1       1.406  -7.204  21.310  0.00  0.00    +0.292 HD
ENDBRANCH  17  24
BRANCH  21  26
ATOM     26  O   UNL     1       7.059  -5.388  26.731  0.00  0.00    -0.501 OA
ATOM     27  H   UNL     1       7.323  -4.457  26.825  0.00  0.00    +0.292 HD
ENDBRANCH  21  26
ENDBRANCH   5  11
BRANCH   1  30
ATOM     28  C   UNL     1       7.889   4.789  24.853  0.00  0.00    +0.162 A 
ATOM     29  C   UNL     1       8.281   3.437  24.943  0.00  0.00    +0.056 A 
ATOM     30  C   UNL     1       7.921   2.484  23.977  0.00  0.00    -0.000 A 
ATOM     31  C   UNL     1       7.104   2.906  22.918  0.00  0.00    +0.011 A 
ATOM     32  C   UNL     1       6.707   4.242  22.813  0.00  0.00    +0.049 A 
ATOM     33  C   UNL     1       7.102   5.181  23.769  0.00  0.00    +0.158 A 
BRANCH  28  35
ATOM     34  C   UNL     1       9.494   6.372  25.734  0.00  0.00    +0.277 C 
ATOM     35  O   UNL     1       8.369   5.529  25.897  0.00  0.00    -0.491 OA
ENDBRANCH  28  35
BRANCH  33  36
ATOM     36  O   UNL     1       6.648   6.447  23.530  0.00  0.00    -0.503 OA
ATOM     37  H   UNL     1       6.297   6.807  24.354  0.00  0.00    +0.292 HD
ENDBRANCH  33  36
ENDBRANCH   1  30
BRANCH  10  38
ATOM     38  C   UNL     1      10.518   1.474  22.623  0.00  0.00    +0.204 C 
BRANCH  38  39
ATOM     39  O   UNL     1      10.299   2.334  21.504  0.00  0.00    -0.391 OA
ATOM     40  H   UNL     1       9.525   1.969  21.032  0.00  0.00    +0.210 HD
ENDBRANCH  38  39
ENDBRANCH  10  38
TORSDOF 9
ENDMDL
MODEL 6
REMARK VINA RESULT:      -7.2      2.521      3.281
REMARK  Name = 
REMARK  10 active torsions:
REMARK  status: ('A' for Active; 'I' for Inactive)
REMARK    1  A    between atoms: C_1  and  O_2
REMARK    2  A    between atoms: O_2  and  C_3
REMARK    3  A    between atoms: C_4  and  O_35
REMARK    4  A    between atoms: C_7  and  C_9
REMARK    5  A    between atoms: C_10  and  C_33
REMARK    6  A    between atoms: C_16  and  C_19
REMARK    7  A    between atoms: C_20  and  O_32
REMARK    8  A    between atoms: C_24  and  O_31
REMARK    9  A    between atoms: C_26  and  O_30
REMARK   10  A    between atoms: C_33  and  O_34
REMARK                            x       y       z     vdW  Elec       q    Type
REMARK                         _______ _______ _______ _____ _____    ______ ____
ROOT
ATOM      1  C   UNL     1       7.464  -3.957  24.150  0.00  0.00    +0.246 C 
ATOM      2  O   UNL     1       7.019  -2.603  24.475  0.00  0.00    -0.477 OA
ATOM      3  C   UNL     1       7.986  -1.658  24.197  0.00  0.00    +0.164 A 
ATOM      4  C   UNL     1       7.618  -0.296  24.168  0.00  0.00    +0.061 A 
ATOM      5  C   UNL     1       8.556   0.711  23.831  0.00  0.00    +0.025 A 
ATOM      6  C   UNL     1       9.840   0.279  23.444  0.00  0.00    +0.015 A 
ATOM      7  C   UNL     1      10.224  -1.062  23.532  0.00  0.00    +0.050 A 
ATOM      8  C   UNL     1       9.310  -2.016  23.949  0.00  0.00    +0.163 A 
ATOM      9  O   UNL     1       9.793  -3.289  24.074  0.00  0.00    -0.479 OA
ATOM     10  C   UNL     1       8.865  -4.164  24.758  0.00  0.00    +0.244 C 
ENDROOT
BRANCH   5  11
ATOM     11  C   UNL     1       8.229   2.179  23.852  0.00  0.00    +0.181 A 
ATOM     12  O   UNL     1       8.077   2.715  25.135  0.00  0.00    -0.451 OA
ATOM     13  C   UNL     1       7.724   4.042  25.269  0.00  0.00    +0.147 A 
ATOM     14  C   UNL     1       7.517   4.887  24.182  0.00  0.00    +0.109 A 
ATOM     15  C   UNL     1       7.156   6.231  24.374  0.00  0.00    +0.135 A 
ATOM     16  C   UNL     1       6.998   6.738  25.659  0.00  0.00    +0.091 A 
ATOM     17  C   UNL     1       7.207   5.892  26.741  0.00  0.00    +0.124 A 
ATOM     18  C   UNL     1       7.708   4.349  22.839  0.00  0.00    +0.238 A 
ATOM     19  O   UNL     1       7.568   5.078  21.860  0.00  0.00    -0.283 OA
ATOM     20  C   UNL     1       7.568   4.552  26.561  0.00  0.00    +0.092 A 
ATOM     21  C   UNL     1       8.090   2.920  22.727  0.00  0.00    +0.208 A 
BRANCH  15  22
ATOM     22  O   UNL     1       6.946   7.108  23.342  0.00  0.00    -0.506 OA
ATOM     23  H   UNL     1       7.770   7.146  22.801  0.00  0.00    +0.292 HD
ENDBRANCH  15  22
BRANCH  17  24
ATOM     24  O   UNL     1       7.065   6.348  28.026  0.00  0.00    -0.507 OA
ATOM     25  H   UNL     1       6.329   5.868  28.443  0.00  0.00    +0.292 HD
ENDBRANCH  17  24
BRANCH  21  26
ATOM     26  O   UNL     1       8.277   2.457  21.438  0.00  0.00    -0.501 OA
ATOM     27  H   UNL     1       9.216   2.587  21.221  0.00  0.00    +0.292 HD
ENDBRANCH  21  26
ENDBRANCH   5  11
BRANCH   1  30
ATOM     28  C   UNL     1       5.045  -6.016  26.361  0.00  0.00    +0.162 A 
ATOM     29  C   UNL     1       6.043  -5.111  25.946  0.00  0.00    +0.056 A 
ATOM     30  C   UNL     1       6.420  -4.971  24.601  0.00  0.00    -0.000 A 
ATOM     31  C   UNL     1       5.797  -5.805  23.661  0.00  0.00    +0.011 A 
ATOM     32  C   UNL     1       4.805  -6.707  24.054  0.00  0.00    +0.049 A 
ATOM     33  C   UNL     1       4.423  -6.808  25.395  0.00  0.00    +0.158 A 
BRANCH  28  35
ATOM     34  C   UNL     1       5.152  -7.072  28.538  0.00  0.00    +0.277 C 
ATOM     35  O   UNL     1       4.840  -5.965  27.712  0.00  0.00    -0.491 OA
ENDBRANCH  28  35
BRANCH  33  36
ATOM     36  O   UNL     1       3.436  -7.722  25.628  0.00  0.00    -0.503 OA
ATOM     37  H   UNL     1       2.797  -7.675  24.905  0.00  0.00    +0.292 HD
ENDBRANCH  33  36
ENDBRANCH   1  30
BRANCH  10  38
ATOM     38  C   UNL     1       9.460  -5.566  24.594  0.00  0.00    +0.204 C 
BRANCH  38  39
ATOM     39  O   UNL     1       9.443  -6.276  25.832  0.00  0.00    -0.391 OA
ATOM     40  H   UNL     1      10.082  -7.008  25.731  0.00  0.00    +0.210 HD
ENDBRANCH  38  39
ENDBRANCH  10  38
TORSDOF 9
ENDMDL
MODEL 7
REMARK VINA RESULT:      -7.2      2.193     10.785
REMARK  Name = 
REMARK  10 active torsions:
REMARK  status: ('A' for Active; 'I' for Inactive)
REMARK    1  A    between atoms: C_1  and  O_2
REMARK    2  A    between atoms: O_2  and  C_3
REMARK    3  A    between atoms: C_4  and  O_35
REMARK    4  A    between atoms: C_7  and  C_9
REMARK    5  A    between atoms: C_10  and  C_33
REMARK    6  A    between atoms: C_16  and  C_19
REMARK    7  A    between atoms: C_20  and  O_32
REMARK    8  A    between atoms: C_24  and  O_31
REMARK    9  A    between atoms: C_26  and  O_30
REMARK   10  A    between atoms: C_33  and  O_34
REMARK                            x       y       z     vdW  Elec       q    Type
REMARK                         _______ _______ _______ _____ _____    ______ ____
ROOT
ATOM      1  C   UNL     1       7.902  -0.421  23.521  0.00  0.00    +0.246 C 
ATOM      2  O   UNL     1       6.633  -1.088  23.805  0.00  0.00    -0.477 OA
ATOM      3  C   UNL     1       6.784  -2.451  23.958  0.00  0.00    +0.164 A 
ATOM      4  C   UNL     1       5.728  -3.194  24.526  0.00  0.00    +0.061 A 
ATOM      5  C   UNL     1       5.852  -4.586  24.760  0.00  0.00    +0.025 A 
ATOM      6  C   UNL     1       7.104  -5.168  24.482  0.00  0.00    +0.015 A 
ATOM      7  C   UNL     1       8.130  -4.448  23.862  0.00  0.00    +0.050 A 
ATOM      8  C   UNL     1       7.950  -3.107  23.565  0.00  0.00    +0.163 A 
ATOM      9  O   UNL     1       8.977  -2.503  22.894  0.00  0.00    -0.479 OA
ATOM     10  C   UNL     1       8.611  -1.195  22.391  0.00  0.00    +0.244 C 
ENDROOT
BRANCH   5  11
ATOM     11  C   UNL     1       4.731  -5.431  25.300  0.00  0.00    +0.181 A 
ATOM     12  O   UNL     1       4.110  -4.904  26.437  0.00  0.00    -0.451 OA
ATOM     13  C   UNL     1       3.105  -5.626  27.047  0.00  0.00    +0.147 A 
ATOM     14  C   UNL     1       2.663  -6.860  26.578  0.00  0.00    +0.109 A 
ATOM     15  C   UNL     1       1.636  -7.554  27.238  0.00  0.00    +0.135 A 
ATOM     16  C   UNL     1       1.044  -7.017  28.375  0.00  0.00    +0.091 A 
ATOM     17  C   UNL     1       1.485  -5.783  28.838  0.00  0.00    +0.124 A 
ATOM     18  C   UNL     1       3.278  -7.404  25.371  0.00  0.00    +0.238 A 
ATOM     19  O   UNL     1       2.886  -8.474  24.912  0.00  0.00    -0.283 OA
ATOM     20  C   UNL     1       2.507  -5.083  28.188  0.00  0.00    +0.092 A 
ATOM     21  C   UNL     1       4.355  -6.604  24.737  0.00  0.00    +0.208 A 
BRANCH  15  22
ATOM     22  O   UNL     1       1.159  -8.768  26.817  0.00  0.00    -0.506 OA
ATOM     23  H   UNL     1       0.597  -9.142  27.537  0.00  0.00    +0.292 HD
ENDBRANCH  15  22
BRANCH  17  24
ATOM     24  O   UNL     1       0.929  -5.212  29.953  0.00  0.00    -0.507 OA
ATOM     25  H   UNL     1      -0.020  -5.421  29.965  0.00  0.00    +0.292 HD
ENDBRANCH  17  24
BRANCH  21  26
ATOM     26  O   UNL     1       4.896  -7.148  23.588  0.00  0.00    -0.501 OA
ATOM     27  H   UNL     1       4.576  -8.064  23.526  0.00  0.00    +0.292 HD
ENDBRANCH  21  26
ENDBRANCH   5  11
BRANCH   1  30
ATOM     28  C   UNL     1       8.138   3.441  23.620  0.00  0.00    +0.162 A 
ATOM     29  C   UNL     1       8.324   2.076  23.923  0.00  0.00    +0.056 A 
ATOM     30  C   UNL     1       7.662   1.054  23.225  0.00  0.00    -0.000 A 
ATOM     31  C   UNL     1       6.753   1.431  22.226  0.00  0.00    +0.011 A 
ATOM     32  C   UNL     1       6.556   2.779  21.912  0.00  0.00    +0.049 A 
ATOM     33  C   UNL     1       7.250   3.779  22.598  0.00  0.00    +0.158 A 
BRANCH  28  35
ATOM     34  C   UNL     1      10.047   4.900  23.913  0.00  0.00    +0.277 C 
ATOM     35  O   UNL     1       8.898   4.248  24.420  0.00  0.00    -0.491 OA
ENDBRANCH  28  35
BRANCH  33  36
ATOM     36  O   UNL     1       6.965   5.047  22.177  0.00  0.00    -0.503 OA
ATOM     37  H   UNL     1       6.422   4.990  21.380  0.00  0.00    +0.292 HD
ENDBRANCH  33  36
ENDBRANCH   1  30
BRANCH  10  38
ATOM     38  C   UNL     1       9.927  -0.589  21.895  0.00  0.00    +0.204 C 
BRANCH  38  39
ATOM     39  O   UNL     1      10.965  -1.568  21.876  0.00  0.00    -0.391 OA
ATOM     40  H   UNL     1      11.747  -1.140  22.274  0.00  0.00    +0.210 HD
ENDBRANCH  38  39
ENDBRANCH  10  38
TORSDOF 9
ENDMDL
MODEL 8
REMARK VINA RESULT:      -7.1      1.855     10.565
REMARK  Name = 
REMARK  10 active torsions:
REMARK  status: ('A' for Active; 'I' for Inactive)
REMARK    1  A    between atoms: C_1  and  O_2
REMARK    2  A    between atoms: O_2  and  C_3
REMARK    3  A    between atoms: C_4  and  O_35
REMARK    4  A    between atoms: C_7  and  C_9
REMARK    5  A    between atoms: C_10  and  C_33
REMARK    6  A    between atoms: C_16  and  C_19
REMARK    7  A    between atoms: C_20  and  O_32
REMARK    8  A    between atoms: C_24  and  O_31
REMARK    9  A    between atoms: C_26  and  O_30
REMARK   10  A    between atoms: C_33  and  O_34
REMARK                            x       y       z     vdW  Elec       q    Type
REMARK                         _______ _______ _______ _____ _____    ______ ____
ROOT
ATOM      1  C   UNL     1       8.639   1.948  24.009  0.00  0.00    +0.246 C 
ATOM      2  O   UNL     1       7.606   0.958  23.705  0.00  0.00    -0.477 OA
ATOM      3  C   UNL     1       8.038  -0.332  23.938  0.00  0.00    +0.164 A 
ATOM      4  C   UNL     1       7.085  -1.370  23.984  0.00  0.00    +0.061 A 
ATOM      5  C   UNL     1       7.464  -2.703  24.277  0.00  0.00    +0.025 A 
ATOM      6  C   UNL     1       8.817  -2.921  24.604  0.00  0.00    +0.015 A 
ATOM      7  C   UNL     1       9.773  -1.907  24.498  0.00  0.00    +0.050 A 
ATOM      8  C   UNL     1       9.387  -0.630  24.124  0.00  0.00    +0.163 A 
ATOM      9  O   UNL     1      10.398   0.279  23.976  0.00  0.00    -0.479 OA
ATOM     10  C   UNL     1       9.951   1.499  23.336  0.00  0.00    +0.244 C 
ENDROOT
BRANCH   5  11
ATOM     11  C   UNL     1       6.496  -3.854  24.271  0.00  0.00    +0.181 A 
ATOM     12  O   UNL     1       6.073  -4.255  25.543  0.00  0.00    -0.451 OA
ATOM     13  C   UNL     1       5.225  -5.337  25.657  0.00  0.00    +0.147 A 
ATOM     14  C   UNL     1       4.755  -6.054  24.559  0.00  0.00    +0.109 A 
ATOM     15  C   UNL     1       3.894  -7.150  24.732  0.00  0.00    +0.135 A 
ATOM     16  C   UNL     1       3.499  -7.538  26.006  0.00  0.00    +0.091 A 
ATOM     17  C   UNL     1       3.968  -6.819  27.099  0.00  0.00    +0.124 A 
ATOM     18  C   UNL     1       5.160  -5.623  23.225  0.00  0.00    +0.238 A 
ATOM     19  O   UNL     1       4.735  -6.213  22.235  0.00  0.00    -0.283 OA
ATOM     20  C   UNL     1       4.825  -5.724  26.939  0.00  0.00    +0.092 A 
ATOM     21  C   UNL     1       6.071  -4.455  23.134  0.00  0.00    +0.208 A 
BRANCH  15  22
ATOM     22  O   UNL     1       3.397  -7.887  23.688  0.00  0.00    -0.506 OA
ATOM     23  H   UNL     1       3.117  -7.261  22.979  0.00  0.00    +0.292 HD
ENDBRANCH  15  22
BRANCH  17  24
ATOM     24  O   UNL     1       3.603  -7.162  28.375  0.00  0.00    -0.507 OA
ATOM     25  H   UNL     1       2.715  -7.558  28.345  0.00  0.00    +0.292 HD
ENDBRANCH  17  24
BRANCH  21  26
ATOM     26  O   UNL     1       6.414  -4.072  21.852  0.00  0.00    -0.501 OA
ATOM     27  H   UNL     1       6.257  -4.837  21.273  0.00  0.00    +0.292 HD
ENDBRANCH  21  26
ENDBRANCH   5  11
BRANCH   1  30
ATOM     28  C   UNL     1       7.876   5.742  24.078  0.00  0.00    +0.162 A 
ATOM     29  C   UNL     1       8.273   4.445  24.464  0.00  0.00    +0.056 A 
ATOM     30  C   UNL     1       8.163   3.338  23.607  0.00  0.00    -0.000 A 
ATOM     31  C   UNL     1       7.593   3.548  22.343  0.00  0.00    +0.011 A 
ATOM     32  C   UNL     1       7.195   4.826  21.943  0.00  0.00    +0.049 A 
ATOM     33  C   UNL     1       7.342   5.920  22.800  0.00  0.00    +0.158 A 
BRANCH  28  35
ATOM     34  C   UNL     1       9.112   6.464  26.030  0.00  0.00    +0.277 C 
ATOM     35  O   UNL     1       8.090   6.657  25.070  0.00  0.00    -0.491 OA
ENDBRANCH  28  35
BRANCH  33  36
ATOM     36  O   UNL     1       6.920   7.106  22.271  0.00  0.00    -0.503 OA
ATOM     37  H   UNL     1       7.600   7.773  22.432  0.00  0.00    +0.292 HD
ENDBRANCH  33  36
ENDBRANCH   1  30
BRANCH  10  38
ATOM     38  C   UNL     1      11.132   2.463  23.473  0.00  0.00    +0.204 C 
BRANCH  38  39
ATOM     39  O   UNL     1      11.202   3.347  22.353  0.00  0.00    -0.391 OA
ATOM     40  H   UNL     1      11.560   2.818  21.615  0.00  0.00    +0.210 HD
ENDBRANCH  38  39
ENDBRANCH  10  38
TORSDOF 9
ENDMDL
MODEL 9
REMARK VINA RESULT:      -7.0      1.857      2.416
REMARK  Name = 
REMARK  10 active torsions:
REMARK  status: ('A' for Active; 'I' for Inactive)
REMARK    1  A    between atoms: C_1  and  O_2
REMARK    2  A    between atoms: O_2  and  C_3
REMARK    3  A    between atoms: C_4  and  O_35
REMARK    4  A    between atoms: C_7  and  C_9
REMARK    5  A    between atoms: C_10  and  C_33
REMARK    6  A    between atoms: C_16  and  C_19
REMARK    7  A    between atoms: C_20  and  O_32
REMARK    8  A    between atoms: C_24  and  O_31
REMARK    9  A    between atoms: C_26  and  O_30
REMARK   10  A    between atoms: C_33  and  O_34
REMARK                            x       y       z     vdW  Elec       q    Type
REMARK                         _______ _______ _______ _____ _____    ______ ____
ROOT
ATOM      1  C   UNL     1       5.878  -3.317  24.964  0.00  0.00    +0.246 C 
ATOM      2  O   UNL     1       6.012  -1.866  25.085  0.00  0.00    -0.477 OA
ATOM      3  C   UNL     1       7.301  -1.441  24.833  0.00  0.00    +0.164 A 
ATOM      4  C   UNL     1       7.533  -0.067  24.612  0.00  0.00    +0.061 A 
ATOM      5  C   UNL     1       8.825   0.418  24.292  0.00  0.00    +0.025 A 
ATOM      6  C   UNL     1       9.839  -0.545  24.118  0.00  0.00    +0.015 A 
ATOM      7  C   UNL     1       9.626  -1.898  24.396  0.00  0.00    +0.050 A 
ATOM      8  C   UNL     1       8.372  -2.332  24.793  0.00  0.00    +0.163 A 
ATOM      9  O   UNL     1       8.274  -3.658  25.114  0.00  0.00    -0.479 OA
ATOM     10  C   UNL     1       7.020  -3.975  25.764  0.00  0.00    +0.244 C 
ENDROOT
BRANCH   5  11
ATOM     11  C   UNL     1       9.134   1.879  24.115  0.00  0.00    +0.181 A 
ATOM     12  O   UNL     1      10.478   2.151  23.837  0.00  0.00    -0.451 OA
ATOM     13  C   UNL     1      10.883   3.464  23.709  0.00  0.00    +0.147 A 
ATOM     14  C   UNL     1      10.012   4.544  23.833  0.00  0.00    +0.109 A 
ATOM     15  C   UNL     1      10.478   5.862  23.696  0.00  0.00    +0.135 A 
ATOM     16  C   UNL     1      11.820   6.108  23.434  0.00  0.00    +0.091 A 
ATOM     17  C   UNL     1      12.686   5.028  23.309  0.00  0.00    +0.124 A 
ATOM     18  C   UNL     1       8.601   4.271  24.086  0.00  0.00    +0.238 A 
ATOM     19  O   UNL     1       7.801   5.200  24.165  0.00  0.00    -0.283 OA
ATOM     20  C   UNL     1      12.232   3.711  23.443  0.00  0.00    +0.092 A 
ATOM     21  C   UNL     1       8.196   2.850  24.217  0.00  0.00    +0.208 A 
BRANCH  15  22
ATOM     22  O   UNL     1       9.665   6.960  23.802  0.00  0.00    -0.506 OA
ATOM     23  H   UNL     1      10.074   7.694  23.284  0.00  0.00    +0.292 HD
ENDBRANCH  15  22
BRANCH  17  24
ATOM     24  O   UNL     1      14.017   5.222  23.048  0.00  0.00    -0.507 OA
ATOM     25  H   UNL     1      14.169   6.173  22.916  0.00  0.00    +0.292 HD
ENDBRANCH  17  24
BRANCH  21  26
ATOM     26  O   UNL     1       6.848   2.638  24.438  0.00  0.00    -0.501 OA
ATOM     27  H   UNL     1       6.386   2.846  23.609  0.00  0.00    +0.292 HD
ENDBRANCH  21  26
ENDBRANCH   5  11
BRANCH   1  30
ATOM     28  C   UNL     1       2.314  -4.825  24.901  0.00  0.00    +0.162 A 
ATOM     29  C   UNL     1       3.592  -4.384  24.502  0.00  0.00    +0.056 A 
ATOM     30  C   UNL     1       4.479  -3.748  25.385  0.00  0.00    -0.000 A 
ATOM     31  C   UNL     1       4.035  -3.513  26.695  0.00  0.00    +0.011 A 
ATOM     32  C   UNL     1       2.772  -3.944  27.109  0.00  0.00    +0.049 A 
ATOM     33  C   UNL     1       1.917  -4.604  26.221  0.00  0.00    +0.158 A 
BRANCH  28  35
ATOM     34  C   UNL     1       2.305  -6.293  22.976  0.00  0.00    +0.277 C 
ATOM     35  O   UNL     1       1.639  -5.427  23.876  0.00  0.00    -0.491 OA
ENDBRANCH  28  35
BRANCH  33  36
ATOM     36  O   UNL     1       0.722  -4.975  26.767  0.00  0.00    -0.503 OA
ATOM     37  H   UNL     1       0.528  -5.881  26.494  0.00  0.00    +0.292 HD
ENDBRANCH  33  36
ENDBRANCH   1  30
BRANCH  10  38
ATOM     38  C   UNL     1       6.992  -5.505  25.826  0.00  0.00    +0.204 C 
BRANCH  38  39
ATOM     39  O   UNL     1       7.893  -5.992  26.821  0.00  0.00    -0.391 OA
ATOM     40  H   UNL     1       8.527  -6.568  26.351  0.00  0.00    +0.210 HD
ENDBRANCH  38  39
ENDBRANCH  10  38
TORSDOF 9
ENDMDL
