MODEL 1
REMARK VINA RESULT:      -7.6      0.000      0.000
REMARK  Name = 
REMARK  8 active torsions:
REMARK  status: ('A' for Active; 'I' for Inactive)
REMARK    1  A    between atoms: C_3  and  O_26
REMARK    2  A    between atoms: C_4  and  O_25
REMARK    3  A    between atoms: C_6  and  C_7
REMARK    4  A    between atoms: C_8  and  O_20
REMARK    5  A    between atoms: C_12  and  O_19
REMARK    6  A    between atoms: C_14  and  O_18
REMARK    7  A    between atoms: O_20  and  S_21
REMARK    8  A    between atoms: S_21  and  O_24
REMARK                            x       y       z     vdW  Elec       q    Type
REMARK                         _______ _______ _______ _____ _____    ______ ____
ROOT
ATOM      1  C   UNL     1       6.963  -2.680  23.990  0.00  0.00    +0.184 A 
ATOM      2  O   UNL     1       7.357  -1.822  22.963  0.00  0.00    -0.451 OA
ATOM      3  C   UNL     1       8.273  -0.838  23.219  0.00  0.00    +0.147 A 
ATOM      4  C   UNL     1       8.924  -0.722  24.438  0.00  0.00    +0.109 A 
ATOM      5  C   UNL     1       9.874   0.284  24.620  0.00  0.00    +0.135 A 
ATOM      6  C   UNL     1      10.166   1.181  23.594  0.00  0.00    +0.091 A 
ATOM      7  C   UNL     1       9.495   1.065  22.382  0.00  0.00    +0.124 A 
ATOM      8  C   UNL     1       8.557  -1.662  25.502  0.00  0.00    +0.241 A 
ATOM      9  O   UNL     1       9.146  -1.608  26.581  0.00  0.00    -0.283 OA
ATOM     10  C   UNL     1       8.550   0.062  22.183  0.00  0.00    +0.092 A 
ATOM     11  C   UNL     1       7.477  -2.649  25.240  0.00  0.00    +0.248 A 
ENDROOT
BRANCH   1  13
ATOM     12  C   UNL     1       4.680  -3.621  24.141  0.00  0.00    +0.015 A 
ATOM     13  C   UNL     1       5.924  -3.592  23.478  0.00  0.00    +0.025 A 
ATOM     14  C   UNL     1       6.211  -4.567  22.517  0.00  0.00    +0.060 A 
ATOM     15  C   UNL     1       5.286  -5.583  22.287  0.00  0.00    +0.159 A 
ATOM     16  C   UNL     1       4.093  -5.649  23.007  0.00  0.00    +0.158 A 
ATOM     17  C   UNL     1       3.765  -4.653  23.913  0.00  0.00    +0.050 A 
BRANCH  15  18
ATOM     18  O   UNL     1       5.576  -6.563  21.380  0.00  0.00    -0.503 OA
ATOM     19  H   UNL     1       5.155  -7.367  21.745  0.00  0.00    +0.292 HD
ENDBRANCH  15  18
BRANCH  16  20
ATOM     20  O   UNL     1       3.297  -6.746  22.826  0.00  0.00    -0.503 OA
ATOM     21  H   UNL     1       3.877  -7.527  22.776  0.00  0.00    +0.292 HD
ENDBRANCH  16  20
ENDBRANCH   1  13
BRANCH   5  22
ATOM     22  O   UNL     1      10.568   0.451  25.791  0.00  0.00    -0.506 OA
ATOM     23  H   UNL     1      11.460   0.803  25.571  0.00  0.00    +0.292 HD
ENDBRANCH   5  22
BRANCH   7  24
ATOM     24  O   UNL     1       9.739   1.930  21.354  0.00  0.00    -0.507 OA
ATOM     25  H   UNL     1      10.693   2.122  21.326  0.00  0.00    +0.292 HD
ENDBRANCH   7  24
BRANCH  11  26
ATOM     26  O   UNL     1       7.077  -3.353  26.354  0.00  0.00    -0.317 OA
BRANCH  26  27
ATOM     27  S   UNL     1       7.569  -4.839  26.761  0.00  0.00    +0.252 S 
ATOM     28  O   UNL     1       7.461  -5.732  25.630  0.00  0.00    -0.108 OA
ATOM     29  O   UNL     1       7.011  -5.157  28.058  0.00  0.00    -0.108 OA
BRANCH  27  30
ATOM     30  O   UNL     1       9.143  -4.625  27.047  0.00  0.00    -0.222 OA
ATOM     31  H   UNL     1       9.581  -5.497  26.979  0.00  0.00    +0.248 HD
ENDBRANCH  27  30
ENDBRANCH  26  27
ENDBRANCH  11  26
TORSDOF 8
ENDMDL
MODEL 2
REMARK VINA RESULT:      -7.0      1.646      1.841
REMARK  Name = 
REMARK  8 active torsions:
REMARK  status: ('A' for Active; 'I' for Inactive)
REMARK    1  A    between atoms: C_3  and  O_26
REMARK    2  A    between atoms: C_4  and  O_25
REMARK    3  A    between atoms: C_6  and  C_7
REMARK    4  A    between atoms: C_8  and  O_20
REMARK    5  A    between atoms: C_12  and  O_19
REMARK    6  A    between atoms: C_14  and  O_18
REMARK    7  A    between atoms: O_20  and  S_21
REMARK    8  A    between atoms: S_21  and  O_24
REMARK                            x       y       z     vdW  Elec       q    Type
REMARK                         _______ _______ _______ _____ _____    ______ ____
ROOT
ATOM      1  C   UNL     1       7.178  -2.296  23.206  0.00  0.00    +0.184 A 
ATOM      2  O   UNL     1       6.621  -1.029  23.023  0.00  0.00    -0.451 OA
ATOM      3  C   UNL     1       7.373   0.084  23.279  0.00  0.00    +0.147 A 
ATOM      4  C   UNL     1       8.719   0.017  23.609  0.00  0.00    +0.109 A 
ATOM      5  C   UNL     1       9.437   1.195  23.823  0.00  0.00    +0.135 A 
ATOM      6  C   UNL     1       8.812   2.436  23.724  0.00  0.00    +0.091 A 
ATOM      7  C   UNL     1       7.459   2.490  23.410  0.00  0.00    +0.124 A 
ATOM      8  C   UNL     1       9.326  -1.312  23.742  0.00  0.00    +0.241 A 
ATOM      9  O   UNL     1      10.527  -1.401  23.994  0.00  0.00    -0.283 OA
ATOM     10  C   UNL     1       6.732   1.324  23.185  0.00  0.00    +0.092 A 
ATOM     11  C   UNL     1       8.462  -2.510  23.572  0.00  0.00    +0.248 A 
ENDROOT
BRANCH   1  13
ATOM     12  C   UNL     1       5.003  -3.336  23.756  0.00  0.00    +0.015 A 
ATOM     13  C   UNL     1       6.149  -3.315  22.935  0.00  0.00    +0.025 A 
ATOM     14  C   UNL     1       6.378  -4.376  22.053  0.00  0.00    +0.060 A 
ATOM     15  C   UNL     1       5.503  -5.459  22.056  0.00  0.00    +0.159 A 
ATOM     16  C   UNL     1       4.418  -5.508  22.931  0.00  0.00    +0.158 A 
ATOM     17  C   UNL     1       4.139  -4.434  23.761  0.00  0.00    +0.050 A 
BRANCH  15  18
ATOM     18  O   UNL     1       5.744  -6.518  21.227  0.00  0.00    -0.503 OA
ATOM     19  H   UNL     1       4.949  -7.084  21.314  0.00  0.00    +0.292 HD
ENDBRANCH  15  18
BRANCH  16  20
ATOM     20  O   UNL     1       3.682  -6.659  22.973  0.00  0.00    -0.503 OA
ATOM     21  H   UNL     1       2.976  -6.583  22.306  0.00  0.00    +0.292 HD
ENDBRANCH  16  20
ENDBRANCH   1  13
BRANCH   5  22
ATOM     22  O   UNL     1      10.771   1.207  24.137  0.00  0.00    -0.506 OA
ATOM     23  H   UNL     1      10.971   0.396  24.658  0.00  0.00    +0.292 HD
ENDBRANCH   5  22
BRANCH   7  24
ATOM     24  O   UNL     1       6.803   3.684  23.315  0.00  0.00    -0.507 OA
ATOM     25  H   UNL     1       7.461   4.401  23.279  0.00  0.00    +0.292 HD
ENDBRANCH   7  24
BRANCH  11  26
ATOM     26  O   UNL     1       9.077  -3.697  23.903  0.00  0.00    -0.317 OA
BRANCH  26  27
ATOM     27  S   UNL     1       8.847  -4.532  25.269  0.00  0.00    +0.252 S 
ATOM     28  O   UNL     1       7.722  -5.429  25.126  0.00  0.00    -0.108 OA
ATOM     29  O   UNL     1       8.974  -3.617  26.382  0.00  0.00    -0.108 OA
BRANCH  27  30
ATOM     30  O   UNL     1      10.174  -5.447  25.351  0.00  0.00    -0.222 OA
ATOM     31  H   UNL     1      10.312  -5.856  24.472  0.00  0.00    +0.248 HD
ENDBRANCH  27  30
ENDBRANCH  26  27
ENDBRANCH  11  26
TORSDOF 8
ENDMDL
MODEL 3
REMARK VINA RESULT:      -6.9      2.618      4.289
REMARK  Name = 
REMARK  8 active torsions:
REMARK  status: ('A' for Active; 'I' for Inactive)
REMARK    1  A    between atoms: C_3  and  O_26
REMARK    2  A    between atoms: C_4  and  O_25
REMARK    3  A    between atoms: C_6  and  C_7
REMARK    4  A    between atoms: C_8  and  O_20
REMARK    5  A    between atoms: C_12  and  O_19
REMARK    6  A    between atoms: C_14  and  O_18
REMARK    7  A    between atoms: O_20  and  S_21
REMARK    8  A    between atoms: S_21  and  O_24
REMARK                            x       y       z     vdW  Elec       q    Type
REMARK                         _______ _______ _______ _____ _____    ______ ____
ROOT
ATOM      1  C   UNL     1       7.015  -4.013  25.228  0.00  0.00    +0.184 A 
ATOM      2  O   UNL     1       7.666  -2.898  25.757  0.00  0.00    -0.451 OA
ATOM      3  C   UNL     1       8.475  -2.143  24.953  0.00  0.00    +0.147 A 
ATOM      4  C   UNL     1       8.593  -2.368  23.589  0.00  0.00    +0.109 A 
ATOM      5  C   UNL     1       9.409  -1.536  22.820  0.00  0.00    +0.135 A 
ATOM      6  C   UNL     1      10.118  -0.492  23.411  0.00  0.00    +0.091 A 
ATOM      7  C   UNL     1      10.005  -0.287  24.781  0.00  0.00    +0.124 A 
ATOM      8  C   UNL     1       7.860  -3.502  23.017  0.00  0.00    +0.241 A 
ATOM      9  O   UNL     1       7.915  -3.701  21.804  0.00  0.00    -0.283 OA
ATOM     10  C   UNL     1       9.189  -1.103  25.560  0.00  0.00    +0.092 A 
ATOM     11  C   UNL     1       7.079  -4.378  23.929  0.00  0.00    +0.248 A 
ENDROOT
BRANCH   1  13
ATOM     12  C   UNL     1       7.006  -5.219  27.387  0.00  0.00    +0.015 A 
ATOM     13  C   UNL     1       6.272  -4.688  26.307  0.00  0.00    +0.025 A 
ATOM     14  C   UNL     1       4.917  -5.008  26.179  0.00  0.00    +0.060 A 
ATOM     15  C   UNL     1       4.342  -5.896  27.084  0.00  0.00    +0.159 A 
ATOM     16  C   UNL     1       5.097  -6.479  28.101  0.00  0.00    +0.158 A 
ATOM     17  C   UNL     1       6.423  -6.120  28.283  0.00  0.00    +0.050 A 
BRANCH  15  18
ATOM     18  O   UNL     1       3.028  -6.245  26.941  0.00  0.00    -0.503 OA
ATOM     19  H   UNL     1       3.017  -7.215  27.068  0.00  0.00    +0.292 HD
ENDBRANCH  15  18
BRANCH  16  20
ATOM     20  O   UNL     1       4.502  -7.442  28.868  0.00  0.00    -0.503 OA
ATOM     21  H   UNL     1       3.614  -7.603  28.501  0.00  0.00    +0.292 HD
ENDBRANCH  16  20
ENDBRANCH   1  13
BRANCH   5  22
ATOM     22  O   UNL     1       9.562  -1.688  21.467  0.00  0.00    -0.506 OA
ATOM     23  H   UNL     1       9.121  -2.527  21.201  0.00  0.00    +0.292 HD
ENDBRANCH   5  22
BRANCH   7  24
ATOM     24  O   UNL     1      10.692   0.715  25.404  0.00  0.00    -0.507 OA
ATOM     25  H   UNL     1      11.365   0.319  25.985  0.00  0.00    +0.292 HD
ENDBRANCH   7  24
BRANCH  11  26
ATOM     26  O   UNL     1       6.589  -5.517  23.329  0.00  0.00    -0.317 OA
BRANCH  26  27
ATOM     27  S   UNL     1       5.247  -5.611  22.430  0.00  0.00    +0.252 S 
ATOM     28  O   UNL     1       5.572  -6.024  21.083  0.00  0.00    -0.108 OA
ATOM     29  O   UNL     1       4.436  -4.447  22.711  0.00  0.00    -0.108 OA
BRANCH  27  30
ATOM     30  O   UNL     1       4.445  -6.831  23.119  0.00  0.00    -0.222 OA
ATOM     31  H   UNL     1       4.004  -7.338  22.408  0.00  0.00    +0.248 HD
ENDBRANCH  27  30
ENDBRANCH  26  27
ENDBRANCH  11  26
TORSDOF 8
ENDMDL
MODEL 4
REMARK VINA RESULT:      -6.8      2.890      7.120
REMARK  Name = 
REMARK  8 active torsions:
REMARK  status: ('A' for Active; 'I' for Inactive)
REMARK    1  A    between atoms: C_3  and  O_26
REMARK    2  A    between atoms: C_4  and  O_25
REMARK    3  A    between atoms: C_6  and  C_7
REMARK    4  A    between atoms: C_8  and  O_20
REMARK    5  A    between atoms: C_12  and  O_19
REMARK    6  A    between atoms: C_14  and  O_18
REMARK    7  A    between atoms: O_20  and  S_21
REMARK    8  A    between atoms: S_21  and  O_24
REMARK                            x       y       z     vdW  Elec       q    Type
REMARK                         _______ _______ _______ _____ _____    ______ ____
ROOT
ATOM      1  C   UNL     1       7.218  -4.071  24.978  0.00  0.00    +0.184 A 
ATOM      2  O   UNL     1       7.437  -4.441  26.306  0.00  0.00    -0.451 OA
ATOM      3  C   UNL     1       6.580  -5.316  26.914  0.00  0.00    +0.147 A 
ATOM      4  C   UNL     1       5.553  -5.952  26.231  0.00  0.00    +0.109 A 
ATOM      5  C   UNL     1       4.736  -6.862  26.904  0.00  0.00    +0.135 A 
ATOM      6  C   UNL     1       4.932  -7.128  28.258  0.00  0.00    +0.091 A 
ATOM      7  C   UNL     1       5.953  -6.472  28.935  0.00  0.00    +0.124 A 
ATOM      8  C   UNL     1       5.359  -5.613  24.817  0.00  0.00    +0.241 A 
ATOM      9  O   UNL     1       4.481  -6.191  24.176  0.00  0.00    -0.283 OA
ATOM     10  C   UNL     1       6.781  -5.567  28.276  0.00  0.00    +0.092 A 
ATOM     11  C   UNL     1       6.229  -4.573  24.208  0.00  0.00    +0.248 A 
ENDROOT
BRANCH   1  13
ATOM     12  C   UNL     1       8.511  -2.025  25.489  0.00  0.00    +0.015 A 
ATOM     13  C   UNL     1       8.230  -3.072  24.588  0.00  0.00    +0.025 A 
ATOM     14  C   UNL     1       8.738  -3.009  23.287  0.00  0.00    +0.060 A 
ATOM     15  C   UNL     1       9.454  -1.882  22.893  0.00  0.00    +0.159 A 
ATOM     16  C   UNL     1       9.658  -0.814  23.768  0.00  0.00    +0.158 A 
ATOM     17  C   UNL     1       9.219  -0.891  25.081  0.00  0.00    +0.050 A 
BRANCH  15  18
ATOM     18  O   UNL     1       9.919  -1.795  21.611  0.00  0.00    -0.503 OA
ATOM     19  H   UNL     1      10.416  -2.627  21.473  0.00  0.00    +0.292 HD
ENDBRANCH  15  18
BRANCH  16  20
ATOM     20  O   UNL     1      10.251   0.314  23.274  0.00  0.00    -0.503 OA
ATOM     21  H   UNL     1      10.933   0.592  23.912  0.00  0.00    +0.292 HD
ENDBRANCH  16  20
ENDBRANCH   1  13
BRANCH   5  22
ATOM     22  O   UNL     1       3.714  -7.539  26.292  0.00  0.00    -0.506 OA
ATOM     23  H   UNL     1       4.099  -8.094  25.576  0.00  0.00    +0.292 HD
ENDBRANCH   5  22
BRANCH   7  24
ATOM     24  O   UNL     1       6.173  -6.690  30.265  0.00  0.00    -0.507 OA
ATOM     25  H   UNL     1       5.991  -5.867  30.752  0.00  0.00    +0.292 HD
ENDBRANCH   7  24
BRANCH  11  26
ATOM     26  O   UNL     1       5.844  -4.191  22.941  0.00  0.00    -0.317 OA
BRANCH  26  27
ATOM     27  S   UNL     1       6.178  -4.984  21.572  0.00  0.00    +0.252 S 
ATOM     28  O   UNL     1       7.453  -5.657  21.679  0.00  0.00    -0.108 OA
ATOM     29  O   UNL     1       5.848  -4.119  20.460  0.00  0.00    -0.108 OA
BRANCH  27  30
ATOM     30  O   UNL     1       5.040  -6.128  21.538  0.00  0.00    -0.222 OA
ATOM     31  H   UNL     1       5.483  -6.995  21.637  0.00  0.00    +0.248 HD
ENDBRANCH  27  30
ENDBRANCH  26  27
ENDBRANCH  11  26
TORSDOF 8
ENDMDL
MODEL 5
REMARK VINA RESULT:      -6.8      2.697      6.663
REMARK  Name = 
REMARK  8 active torsions:
REMARK  status: ('A' for Active; 'I' for Inactive)
REMARK    1  A    between atoms: C_3  and  O_26
REMARK    2  A    between atoms: C_4  and  O_25
REMARK    3  A    between atoms: C_6  and  C_7
REMARK    4  A    between atoms: C_8  and  O_20
REMARK    5  A    between atoms: C_12  and  O_19
REMARK    6  A    between atoms: C_14  and  O_18
REMARK    7  A    between atoms: O_20  and  S_21
REMARK    8  A    between atoms: S_21  and  O_24
REMARK                            x       y       z     vdW  Elec       q    Type
REMARK                         _______ _______ _______ _____ _____    ______ ____
ROOT
ATOM      1  C   UNL     1       7.496  -0.651  22.987  0.00  0.00    +0.184 A 
ATOM      2  O   UNL     1       6.401  -1.490  22.779  0.00  0.00    -0.451 OA
ATOM      3  C   UNL     1       6.558  -2.845  22.887  0.00  0.00    +0.147 A 
ATOM      4  C   UNL     1       7.742  -3.428  23.311  0.00  0.00    +0.109 A 
ATOM      5  C   UNL     1       7.823  -4.817  23.433  0.00  0.00    +0.135 A 
ATOM      6  C   UNL     1       6.730  -5.623  23.120  0.00  0.00    +0.091 A 
ATOM      7  C   UNL     1       5.554  -5.028  22.681  0.00  0.00    +0.124 A 
ATOM      8  C   UNL     1       8.879  -2.545  23.591  0.00  0.00    +0.241 A 
ATOM      9  O   UNL     1       9.930  -3.032  24.006  0.00  0.00    -0.283 OA
ATOM     10  C   UNL     1       5.456  -3.644  22.561  0.00  0.00    +0.092 A 
ATOM     11  C   UNL     1       8.721  -1.085  23.356  0.00  0.00    +0.248 A 
ENDROOT
BRANCH   1  13
ATOM     12  C   UNL     1       7.740   1.461  21.722  0.00  0.00    +0.015 A 
ATOM     13  C   UNL     1       7.083   0.743  22.742  0.00  0.00    +0.025 A 
ATOM     14  C   UNL     1       6.237   1.425  23.622  0.00  0.00    +0.060 A 
ATOM     15  C   UNL     1       6.116   2.807  23.510  0.00  0.00    +0.159 A 
ATOM     16  C   UNL     1       6.834   3.519  22.549  0.00  0.00    +0.158 A 
ATOM     17  C   UNL     1       7.623   2.850  21.627  0.00  0.00    +0.050 A 
BRANCH  15  18
ATOM     18  O   UNL     1       5.323   3.486  24.392  0.00  0.00    -0.503 OA
ATOM     19  H   UNL     1       5.716   4.381  24.437  0.00  0.00    +0.292 HD
ENDBRANCH  15  18
BRANCH  16  20
ATOM     20  O   UNL     1       6.771   4.884  22.584  0.00  0.00    -0.503 OA
ATOM     21  H   UNL     1       6.163   5.133  23.304  0.00  0.00    +0.292 HD
ENDBRANCH  16  20
ENDBRANCH   1  13
BRANCH   5  22
ATOM     22  O   UNL     1       8.955  -5.462  23.860  0.00  0.00    -0.506 OA
ATOM     23  H   UNL     1       8.681  -6.291  24.315  0.00  0.00    +0.292 HD
ENDBRANCH   5  22
BRANCH   7  24
ATOM     24  O   UNL     1       4.462  -5.779  22.350  0.00  0.00    -0.507 OA
ATOM     25  H   UNL     1       3.670  -5.214  22.390  0.00  0.00    +0.292 HD
ENDBRANCH   7  24
BRANCH  11  26
ATOM     26  O   UNL     1       9.894  -0.370  23.463  0.00  0.00    -0.317 OA
BRANCH  26  27
ATOM     27  S   UNL     1      10.293   0.616  24.681  0.00  0.00    +0.252 S 
ATOM     28  O   UNL     1       9.601   1.879  24.553  0.00  0.00    -0.108 OA
ATOM     29  O   UNL     1      11.723   0.530  24.879  0.00  0.00    -0.108 OA
BRANCH  27  30
ATOM     30  O   UNL     1       9.668  -0.137  25.965  0.00  0.00    -0.222 OA
ATOM     31  H   UNL     1       9.958   0.345  26.766  0.00  0.00    +0.248 HD
ENDBRANCH  27  30
ENDBRANCH  26  27
ENDBRANCH  11  26
TORSDOF 8
ENDMDL
MODEL 6
REMARK VINA RESULT:      -6.8      2.532      6.930
REMARK  Name = 
REMARK  8 active torsions:
REMARK  status: ('A' for Active; 'I' for Inactive)
REMARK    1  A    between atoms: C_3  and  O_26
REMARK    2  A    between atoms: C_4  and  O_25
REMARK    3  A    between atoms: C_6  and  C_7
REMARK    4  A    between atoms: C_8  and  O_20
REMARK    5  A    between atoms: C_12  and  O_19
REMARK    6  A    between atoms: C_14  and  O_18
REMARK    7  A    between atoms: O_20  and  S_21
REMARK    8  A    between atoms: S_21  and  O_24
REMARK                            x       y       z     vdW  Elec       q    Type
REMARK                         _______ _______ _______ _____ _____    ______ ____
ROOT
ATOM      1  C   UNL     1       7.475  -1.357  23.833  0.00  0.00    +0.184 A 
ATOM      2  O   UNL     1       7.652  -2.491  23.038  0.00  0.00    -0.451 OA
ATOM      3  C   UNL     1       6.734  -3.504  23.093  0.00  0.00    +0.147 A 
ATOM      4  C   UNL     1       5.561  -3.411  23.826  0.00  0.00    +0.109 A 
ATOM      5  C   UNL     1       4.650  -4.469  23.810  0.00  0.00    +0.135 A 
ATOM      6  C   UNL     1       4.916  -5.624  23.076  0.00  0.00    +0.091 A 
ATOM      7  C   UNL     1       6.103  -5.713  22.360  0.00  0.00    +0.124 A 
ATOM      8  C   UNL     1       5.341  -2.193  24.614  0.00  0.00    +0.241 A 
ATOM      9  O   UNL     1       4.290  -2.066  25.242  0.00  0.00    -0.283 OA
ATOM     10  C   UNL     1       7.017  -4.662  22.360  0.00  0.00    +0.092 A 
ATOM     11  C   UNL     1       6.404  -1.154  24.631  0.00  0.00    +0.248 A 
ENDROOT
BRANCH   1  13
ATOM     12  C   UNL     1       9.488  -0.242  24.740  0.00  0.00    +0.015 A 
ATOM     13  C   UNL     1       8.628  -0.458  23.644  0.00  0.00    +0.025 A 
ATOM     14  C   UNL     1       8.757   0.343  22.505  0.00  0.00    +0.060 A 
ATOM     15  C   UNL     1       9.689   1.377  22.507  0.00  0.00    +0.159 A 
ATOM     16  C   UNL     1      10.479   1.634  23.628  0.00  0.00    +0.158 A 
ATOM     17  C   UNL     1      10.411   0.808  24.738  0.00  0.00    +0.050 A 
BRANCH  15  18
ATOM     18  O   UNL     1       9.793   2.190  21.414  0.00  0.00    -0.503 OA
ATOM     19  H   UNL     1       8.901   2.174  21.010  0.00  0.00    +0.292 HD
ENDBRANCH  15  18
BRANCH  16  20
ATOM     20  O   UNL     1      11.274   2.747  23.609  0.00  0.00    -0.503 OA
ATOM     21  H   UNL     1      12.167   2.476  23.888  0.00  0.00    +0.292 HD
ENDBRANCH  16  20
ENDBRANCH   1  13
BRANCH   5  22
ATOM     22  O   UNL     1       3.464  -4.441  24.496  0.00  0.00    -0.506 OA
ATOM     23  H   UNL     1       3.649  -4.666  25.436  0.00  0.00    +0.292 HD
ENDBRANCH   5  22
BRANCH   7  24
ATOM     24  O   UNL     1       6.411  -6.831  21.639  0.00  0.00    -0.507 OA
ATOM     25  H   UNL     1       5.964  -7.596  22.042  0.00  0.00    +0.292 HD
ENDBRANCH   7  24
BRANCH  11  26
ATOM     26  O   UNL     1       6.189  -0.146  25.545  0.00  0.00    -0.317 OA
BRANCH  26  27
ATOM     27  S   UNL     1       5.548   1.303  25.222  0.00  0.00    +0.252 S 
ATOM     28  O   UNL     1       6.508   2.349  25.494  0.00  0.00    -0.108 OA
ATOM     29  O   UNL     1       4.202   1.327  25.752  0.00  0.00    -0.108 OA
BRANCH  27  30
ATOM     30  O   UNL     1       5.345   1.251  23.622  0.00  0.00    -0.222 OA
ATOM     31  H   UNL     1       5.777   2.041  23.239  0.00  0.00    +0.248 HD
ENDBRANCH  27  30
ENDBRANCH  26  27
ENDBRANCH  11  26
TORSDOF 8
ENDMDL
MODEL 7
REMARK VINA RESULT:      -6.7      2.762      4.150
REMARK  Name = 
REMARK  8 active torsions:
REMARK  status: ('A' for Active; 'I' for Inactive)
REMARK    1  A    between atoms: C_3  and  O_26
REMARK    2  A    between atoms: C_4  and  O_25
REMARK    3  A    between atoms: C_6  and  C_7
REMARK    4  A    between atoms: C_8  and  O_20
REMARK    5  A    between atoms: C_12  and  O_19
REMARK    6  A    between atoms: C_14  and  O_18
REMARK    7  A    between atoms: O_20  and  S_21
REMARK    8  A    between atoms: S_21  and  O_24
REMARK                            x       y       z     vdW  Elec       q    Type
REMARK                         _______ _______ _______ _____ _____    ______ ____
ROOT
ATOM      1  C   UNL     1       7.368  -1.594  25.718  0.00  0.00    +0.184 A 
ATOM      2  O   UNL     1       7.205  -0.477  24.898  0.00  0.00    -0.451 OA
ATOM      3  C   UNL     1       8.074  -0.264  23.864  0.00  0.00    +0.147 A 
ATOM      4  C   UNL     1       9.058  -1.178  23.515  0.00  0.00    +0.109 A 
ATOM      5  C   UNL     1       9.890  -0.915  22.426  0.00  0.00    +0.135 A 
ATOM      6  C   UNL     1       9.752   0.264  21.694  0.00  0.00    +0.091 A 
ATOM      7  C   UNL     1       8.774   1.179  22.063  0.00  0.00    +0.124 A 
ATOM      8  C   UNL     1       9.193  -2.385  24.337  0.00  0.00    +0.241 A 
ATOM      9  O   UNL     1      10.031  -3.232  24.027  0.00  0.00    -0.283 OA
ATOM     10  C   UNL     1       7.931   0.927  23.143  0.00  0.00    +0.092 A 
ATOM     11  C   UNL     1       8.313  -2.540  25.525  0.00  0.00    +0.248 A 
ENDROOT
BRANCH   1  13
ATOM     12  C   UNL     1       5.486  -2.653  26.925  0.00  0.00    +0.015 A 
ATOM     13  C   UNL     1       6.356  -1.552  26.789  0.00  0.00    +0.025 A 
ATOM     14  C   UNL     1       6.095  -0.382  27.509  0.00  0.00    +0.060 A 
ATOM     15  C   UNL     1       4.946  -0.310  28.291  0.00  0.00    +0.159 A 
ATOM     16  C   UNL     1       4.048  -1.377  28.355  0.00  0.00    +0.158 A 
ATOM     17  C   UNL     1       4.328  -2.567  27.701  0.00  0.00    +0.050 A 
BRANCH  15  18
ATOM     18  O   UNL     1       4.662   0.844  28.965  0.00  0.00    -0.503 OA
ATOM     19  H   UNL     1       5.191   1.530  28.510  0.00  0.00    +0.292 HD
ENDBRANCH  15  18
BRANCH  16  20
ATOM     20  O   UNL     1       2.876  -1.187  29.032  0.00  0.00    -0.503 OA
ATOM     21  H   UNL     1       3.087  -1.157  29.983  0.00  0.00    +0.292 HD
ENDBRANCH  16  20
ENDBRANCH   1  13
BRANCH   5  22
ATOM     22  O   UNL     1      10.872  -1.777  22.014  0.00  0.00    -0.506 OA
ATOM     23  H   UNL     1      11.394  -1.332  21.307  0.00  0.00    +0.292 HD
ENDBRANCH   5  22
BRANCH   7  24
ATOM     24  O   UNL     1       8.612   2.352  21.384  0.00  0.00    -0.507 OA
ATOM     25  H   UNL     1       9.346   2.950  21.612  0.00  0.00    +0.292 HD
ENDBRANCH   7  24
BRANCH  11  26
ATOM     26  O   UNL     1       8.645  -3.604  26.335  0.00  0.00    -0.317 OA
BRANCH  26  27
ATOM     27  S   UNL     1       8.161  -5.134  26.133  0.00  0.00    +0.252 S 
ATOM     28  O   UNL     1       7.266  -5.233  25.002  0.00  0.00    -0.108 OA
ATOM     29  O   UNL     1       7.832  -5.676  27.433  0.00  0.00    -0.108 OA
BRANCH  27  30
ATOM     30  O   UNL     1       9.528  -5.887  25.722  0.00  0.00    -0.222 OA
ATOM     31  H   UNL     1      10.202  -5.675  26.399  0.00  0.00    +0.248 HD
ENDBRANCH  27  30
ENDBRANCH  26  27
ENDBRANCH  11  26
TORSDOF 8
ENDMDL
MODEL 8
REMARK VINA RESULT:      -6.7      1.819      6.513
REMARK  Name = 
REMARK  8 active torsions:
REMARK  status: ('A' for Active; 'I' for Inactive)
REMARK    1  A    between atoms: C_3  and  O_26
REMARK    2  A    between atoms: C_4  and  O_25
REMARK    3  A    between atoms: C_6  and  C_7
REMARK    4  A    between atoms: C_8  and  O_20
REMARK    5  A    between atoms: C_12  and  O_19
REMARK    6  A    between atoms: C_14  and  O_18
REMARK    7  A    between atoms: O_20  and  S_21
REMARK    8  A    between atoms: S_21  and  O_24
REMARK                            x       y       z     vdW  Elec       q    Type
REMARK                         _______ _______ _______ _____ _____    ______ ____
ROOT
ATOM      1  C   UNL     1       8.217  -1.704  24.166  0.00  0.00    +0.184 A 
ATOM      2  O   UNL     1       7.891  -2.486  23.057  0.00  0.00    -0.451 OA
ATOM      3  C   UNL     1       7.140  -3.617  23.224  0.00  0.00    +0.147 A 
ATOM      4  C   UNL     1       6.582  -3.969  24.444  0.00  0.00    +0.109 A 
ATOM      5  C   UNL     1       5.795  -5.119  24.537  0.00  0.00    +0.135 A 
ATOM      6  C   UNL     1       5.578  -5.923  23.420  0.00  0.00    +0.091 A 
ATOM      7  C   UNL     1       6.156  -5.569  22.207  0.00  0.00    +0.124 A 
ATOM      8  C   UNL     1       6.870  -3.115  25.601  0.00  0.00    +0.241 A 
ATOM      9  O   UNL     1       6.356  -3.382  26.687  0.00  0.00    -0.283 OA
ATOM     10  C   UNL     1       6.936  -4.421  22.097  0.00  0.00    +0.092 A 
ATOM     11  C   UNL     1       7.783  -1.956  25.421  0.00  0.00    +0.248 A 
ENDROOT
BRANCH   1  13
ATOM     12  C   UNL     1      10.196  -0.267  24.534  0.00  0.00    +0.015 A 
ATOM     13  C   UNL     1       9.085  -0.595  23.731  0.00  0.00    +0.025 A 
ATOM     14  C   UNL     1       8.716   0.263  22.690  0.00  0.00    +0.060 A 
ATOM     15  C   UNL     1       9.415   1.454  22.515  0.00  0.00    +0.159 A 
ATOM     16  C   UNL     1      10.461   1.809  23.367  0.00  0.00    +0.158 A 
ATOM     17  C   UNL     1      10.882   0.938  24.359  0.00  0.00    +0.050 A 
BRANCH  15  18
ATOM     18  O   UNL     1       9.034   2.318  21.527  0.00  0.00    -0.503 OA
ATOM     19  H   UNL     1       9.365   3.190  21.822  0.00  0.00    +0.292 HD
ENDBRANCH  15  18
BRANCH  16  20
ATOM     20  O   UNL     1      11.012   3.052  23.221  0.00  0.00    -0.503 OA
ATOM     21  H   UNL     1      10.446   3.683  23.701  0.00  0.00    +0.292 HD
ENDBRANCH  16  20
ENDBRANCH   1  13
BRANCH   5  22
ATOM     22  O   UNL     1       5.199  -5.521  25.704  0.00  0.00    -0.506 OA
ATOM     23  H   UNL     1       4.724  -4.749  26.087  0.00  0.00    +0.292 HD
ENDBRANCH   5  22
BRANCH   7  24
ATOM     24  O   UNL     1       5.981  -6.335  21.090  0.00  0.00    -0.507 OA
ATOM     25  H   UNL     1       6.651  -7.041  21.087  0.00  0.00    +0.292 HD
ENDBRANCH   7  24
BRANCH  11  26
ATOM     26  O   UNL     1       8.140  -1.335  26.598  0.00  0.00    -0.317 OA
BRANCH  26  27
ATOM     27  S   UNL     1       7.444  -0.015  27.221  0.00  0.00    +0.252 S 
ATOM     28  O   UNL     1       6.137  -0.338  27.749  0.00  0.00    -0.108 OA
ATOM     29  O   UNL     1       7.662   1.083  26.304  0.00  0.00    -0.108 OA
BRANCH  27  30
ATOM     30  O   UNL     1       8.393   0.324  28.481  0.00  0.00    -0.222 OA
ATOM     31  H   UNL     1       9.292  -0.006  28.277  0.00  0.00    +0.248 HD
ENDBRANCH  27  30
ENDBRANCH  26  27
ENDBRANCH  11  26
TORSDOF 8
ENDMDL
MODEL 9
REMARK VINA RESULT:      -6.6      4.079      6.503
REMARK  Name = 
REMARK  8 active torsions:
REMARK  status: ('A' for Active; 'I' for Inactive)
REMARK    1  A    between atoms: C_3  and  O_26
REMARK    2  A    between atoms: C_4  and  O_25
REMARK    3  A    between atoms: C_6  and  C_7
REMARK    4  A    between atoms: C_8  and  O_20
REMARK    5  A    between atoms: C_12  and  O_19
REMARK    6  A    between atoms: C_14  and  O_18
REMARK    7  A    between atoms: O_20  and  S_21
REMARK    8  A    between atoms: S_21  and  O_24
REMARK                            x       y       z     vdW  Elec       q    Type
REMARK                         _______ _______ _______ _____ _____    ______ ____
ROOT
ATOM      1  C   UNL     1       9.253   2.046  24.036  0.00  0.00    +0.184 A 
ATOM      2  O   UNL     1      10.580   2.377  23.763  0.00  0.00    -0.451 OA
ATOM      3  C   UNL     1      10.958   3.692  23.737  0.00  0.00    +0.147 A 
ATOM      4  C   UNL     1      10.098   4.723  24.085  0.00  0.00    +0.109 A 
ATOM      5  C   UNL     1      10.558   6.041  24.072  0.00  0.00    +0.135 A 
ATOM      6  C   UNL     1      11.869   6.332  23.698  0.00  0.00    +0.091 A 
ATOM      7  C   UNL     1      12.716   5.292  23.335  0.00  0.00    +0.124 A 
ATOM      8  C   UNL     1       8.716   4.374  24.434  0.00  0.00    +0.241 A 
ATOM      9  O   UNL     1       7.942   5.264  24.785  0.00  0.00    -0.283 OA
ATOM     10  C   UNL     1      12.274   3.972  23.351  0.00  0.00    +0.092 A 
ATOM     11  C   UNL     1       8.297   2.950  24.344  0.00  0.00    +0.248 A 
ENDROOT
BRANCH   1  13
ATOM     12  C   UNL     1       8.868  -0.145  25.118  0.00  0.00    +0.015 A 
ATOM     13  C   UNL     1       9.094   0.584  23.933  0.00  0.00    +0.025 A 
ATOM     14  C   UNL     1       9.381  -0.105  22.750  0.00  0.00    +0.060 A 
ATOM     15  C   UNL     1       9.502  -1.491  22.787  0.00  0.00    +0.159 A 
ATOM     16  C   UNL     1       9.357  -2.197  23.981  0.00  0.00    +0.158 A 
ATOM     17  C   UNL     1       9.005  -1.536  25.147  0.00  0.00    +0.050 A 
BRANCH  15  18
ATOM     18  O   UNL     1       9.823  -2.168  21.644  0.00  0.00    -0.503 OA
ATOM     19  H   UNL     1      10.788  -2.038  21.544  0.00  0.00    +0.292 HD
ENDBRANCH  15  18
BRANCH  16  20
ATOM     20  O   UNL     1       9.622  -3.538  23.969  0.00  0.00    -0.503 OA
ATOM     21  H   UNL     1       9.669  -3.838  24.895  0.00  0.00    +0.292 HD
ENDBRANCH  16  20
ENDBRANCH   1  13
BRANCH   5  22
ATOM     22  O   UNL     1       9.771   7.108  24.418  0.00  0.00    -0.506 OA
ATOM     23  H   UNL     1       9.202   7.332  23.647  0.00  0.00    +0.292 HD
ENDBRANCH   5  22
BRANCH   7  24
ATOM     24  O   UNL     1      14.004   5.532  22.949  0.00  0.00    -0.507 OA
ATOM     25  H   UNL     1      14.582   4.860  23.352  0.00  0.00    +0.292 HD
ENDBRANCH   7  24
BRANCH  11  26
ATOM     26  O   UNL     1       6.943   2.753  24.503  0.00  0.00    -0.317 OA
BRANCH  26  27
ATOM     27  S   UNL     1       5.850   2.693  23.313  0.00  0.00    +0.252 S 
ATOM     28  O   UNL     1       6.328   1.860  22.232  0.00  0.00    -0.108 OA
ATOM     29  O   UNL     1       5.346   4.031  23.097  0.00  0.00    -0.108 OA
BRANCH  27  30
ATOM     30  O   UNL     1       4.618   1.910  24.003  0.00  0.00    -0.222 OA
ATOM     31  H   UNL     1       3.811   2.105  23.484  0.00  0.00    +0.248 HD
ENDBRANCH  27  30
ENDBRANCH  26  27
ENDBRANCH  11  26
TORSDOF 8
ENDMDL
