MODEL 1
REMARK VINA RESULT:      -8.1      0.000      0.000
REMARK  Name = 
REMARK  11 active torsions:
REMARK  status: ('A' for Active; 'I' for Inactive)
REMARK    1  A    between atoms: C_1  and  C_2
REMARK    2  A    between atoms: C_4  and  O_37
REMARK    3  A    between atoms: C_6  and  O_36
REMARK    4  A    between atoms: C_8  and  O_35
REMARK    5  A    between atoms: C_10  and  O_13
REMARK    6  A    between atoms: O_13  and  C_14
REMARK    7  A    between atoms: C_16  and  O_34
REMARK    8  A    between atoms: C_22  and  O_33
REMARK    9  A    between atoms: C_23  and  C_25
REMARK   10  A    between atoms: C_27  and  O_32
REMARK   11  A    between atoms: C_28  and  O_31
REMARK                            x       y       z     vdW  Elec       q    Type
REMARK                         _______ _______ _______ _____ _____    ______ ____
ROOT
ATOM      1  C   UNL     1       6.226  -5.440  25.023  0.00  0.00    +0.142 A 
ATOM      2  C   UNL     1       7.014  -4.317  24.693  0.00  0.00    +0.110 A 
ATOM      3  C   UNL     1       7.527  -4.033  23.339  0.00  0.00    +0.238 A 
ATOM      4  C   UNL     1       7.869  -2.626  23.054  0.00  0.00    +0.208 A 
ATOM      5  C   UNL     1       8.166  -1.823  24.094  0.00  0.00    +0.181 A 
ATOM      6  O   UNL     1       8.107  -2.257  25.416  0.00  0.00    -0.451 OA
ATOM      7  O   UNL     1       7.647  -4.867  22.444  0.00  0.00    -0.283 OA
ATOM      8  C   UNL     1       7.453  -3.437  25.694  0.00  0.00    +0.147 A 
ATOM      9  C   UNL     1       7.241  -3.752  27.043  0.00  0.00    +0.092 A 
ATOM     10  C   UNL     1       6.579  -4.928  27.371  0.00  0.00    +0.124 A 
ATOM     11  C   UNL     1       6.048  -5.750  26.381  0.00  0.00    +0.092 A 
ENDROOT
BRANCH   5  12
ATOM     12  C   UNL     1       8.762  -0.474  23.892  0.00  0.00    +0.025 A 
ATOM     13  C   UNL     1       9.898  -0.089  24.631  0.00  0.00    +0.015 A 
ATOM     14  C   UNL     1      10.598   1.083  24.322  0.00  0.00    +0.050 A 
ATOM     15  C   UNL     1      10.170   1.873  23.269  0.00  0.00    +0.158 A 
ATOM     16  C   UNL     1       9.020   1.544  22.562  0.00  0.00    +0.159 A 
ATOM     17  C   UNL     1       8.295   0.404  22.894  0.00  0.00    +0.060 A 
BRANCH  15  18
ATOM     18  O   UNL     1      10.901   2.965  22.905  0.00  0.00    -0.503 OA
ATOM     19  H   UNL     1      11.299   2.719  22.045  0.00  0.00    +0.292 HD
ENDBRANCH  15  18
BRANCH  16  20
ATOM     20  O   UNL     1       8.662   2.345  21.513  0.00  0.00    -0.503 OA
ATOM     21  H   UNL     1       9.465   2.786  21.184  0.00  0.00    +0.292 HD
ENDBRANCH  16  20
ENDBRANCH   5  12
BRANCH   4  22
ATOM     22  O   UNL     1       7.964  -2.278  21.723  0.00  0.00    -0.501 OA
ATOM     23  H   UNL     1       8.919  -2.161  21.548  0.00  0.00    +0.292 HD
ENDBRANCH   4  22
BRANCH  10  24
ATOM     24  O   UNL     1       6.429  -5.233  28.695  0.00  0.00    -0.507 OA
ATOM     25  H   UNL     1       6.023  -6.110  28.777  0.00  0.00    +0.292 HD
ENDBRANCH  10  24
BRANCH   1  26
ATOM     26  O   UNL     1       5.598  -6.316  24.179  0.00  0.00    -0.460 OA
BRANCH  26  30
ATOM     27  C   UNL     1       1.891  -7.405  26.050  0.00  0.00    +0.041 C 
ATOM     28  C   UNL     1       2.359  -7.982  24.707  0.00  0.00    +0.150 C 
ATOM     29  O   UNL     1       3.785  -7.840  24.495  0.00  0.00    -0.334 OA
ATOM     30  C   UNL     1       4.179  -6.477  24.289  0.00  0.00    +0.339 C 
ATOM     31  C   UNL     1       3.525  -5.883  23.023  0.00  0.00    +0.214 C 
ATOM     32  C   UNL     1       1.995  -6.002  23.133  0.00  0.00    +0.180 C 
ATOM     33  C   UNL     1       1.593  -7.443  23.479  0.00  0.00    +0.174 C 
BRANCH  31  34
ATOM     34  O   UNL     1       3.881  -4.515  22.776  0.00  0.00    -0.383 OA
ATOM     35  H   UNL     1       3.976  -4.367  21.816  0.00  0.00    +0.210 HD
ENDBRANCH  31  34
BRANCH  32  36
ATOM     36  O   UNL     1       1.443  -5.117  24.124  0.00  0.00    -0.386 OA
ATOM     37  H   UNL     1       1.460  -5.550  24.994  0.00  0.00    +0.210 HD
ENDBRANCH  32  36
BRANCH  33  38
ATOM     38  O   UNL     1       1.882  -8.291  22.358  0.00  0.00    -0.387 OA
ATOM     39  H   UNL     1       2.428  -9.033  22.680  0.00  0.00    +0.210 HD
ENDBRANCH  33  38
ENDBRANCH  26  30
ENDBRANCH   1  26
TORSDOF 10
ENDMDL
MODEL 2
REMARK VINA RESULT:      -8.0      2.043      2.995
REMARK  Name = 
REMARK  11 active torsions:
REMARK  status: ('A' for Active; 'I' for Inactive)
REMARK    1  A    between atoms: C_1  and  C_2
REMARK    2  A    between atoms: C_4  and  O_37
REMARK    3  A    between atoms: C_6  and  O_36
REMARK    4  A    between atoms: C_8  and  O_35
REMARK    5  A    between atoms: C_10  and  O_13
REMARK    6  A    between atoms: O_13  and  C_14
REMARK    7  A    between atoms: C_16  and  O_34
REMARK    8  A    between atoms: C_22  and  O_33
REMARK    9  A    between atoms: C_23  and  C_25
REMARK   10  A    between atoms: C_27  and  O_32
REMARK   11  A    between atoms: C_28  and  O_31
REMARK                            x       y       z     vdW  Elec       q    Type
REMARK                         _______ _______ _______ _____ _____    ______ ____
ROOT
ATOM      1  C   UNL     1       7.110  -4.558  24.079  0.00  0.00    +0.142 A 
ATOM      2  C   UNL     1       7.609  -3.264  23.820  0.00  0.00    +0.110 A 
ATOM      3  C   UNL     1       6.944  -2.279  22.945  0.00  0.00    +0.238 A 
ATOM      4  C   UNL     1       7.288  -0.863  23.180  0.00  0.00    +0.208 A 
ATOM      5  C   UNL     1       8.466  -0.587  23.771  0.00  0.00    +0.181 A 
ATOM      6  O   UNL     1       9.334  -1.582  24.213  0.00  0.00    -0.451 OA
ATOM      7  O   UNL     1       6.115  -2.555  22.081  0.00  0.00    -0.283 OA
ATOM      8  C   UNL     1       8.860  -2.871  24.319  0.00  0.00    +0.147 A 
ATOM      9  C   UNL     1       9.690  -3.811  24.945  0.00  0.00    +0.092 A 
ATOM     10  C   UNL     1       9.250  -5.121  25.080  0.00  0.00    +0.124 A 
ATOM     11  C   UNL     1       7.967  -5.491  24.684  0.00  0.00    +0.092 A 
ENDROOT
BRANCH   5  12
ATOM     12  C   UNL     1       9.008   0.799  23.820  0.00  0.00    +0.025 A 
ATOM     13  C   UNL     1       9.931   1.228  22.846  0.00  0.00    +0.015 A 
ATOM     14  C   UNL     1      10.300   2.575  22.744  0.00  0.00    +0.050 A 
ATOM     15  C   UNL     1       9.744   3.500  23.611  0.00  0.00    +0.158 A 
ATOM     16  C   UNL     1       8.875   3.092  24.615  0.00  0.00    +0.159 A 
ATOM     17  C   UNL     1       8.539   1.749  24.749  0.00  0.00    +0.060 A 
BRANCH  15  18
ATOM     18  O   UNL     1      10.029   4.825  23.456  0.00  0.00    -0.503 OA
ATOM     19  H   UNL     1       9.180   5.229  23.189  0.00  0.00    +0.292 HD
ENDBRANCH  15  18
BRANCH  16  20
ATOM     20  O   UNL     1       8.333   4.054  25.422  0.00  0.00    -0.503 OA
ATOM     21  H   UNL     1       7.755   3.612  26.069  0.00  0.00    +0.292 HD
ENDBRANCH  16  20
ENDBRANCH   5  12
BRANCH   4  22
ATOM     22  O   UNL     1       6.412   0.071  22.667  0.00  0.00    -0.501 OA
ATOM     23  H   UNL     1       6.435  -0.049  21.697  0.00  0.00    +0.292 HD
ENDBRANCH   4  22
BRANCH  10  24
ATOM     24  O   UNL     1      10.100  -6.028  25.651  0.00  0.00    -0.507 OA
ATOM     25  H   UNL     1       9.644  -6.479  26.380  0.00  0.00    +0.292 HD
ENDBRANCH  10  24
BRANCH   1  26
ATOM     26  O   UNL     1       5.869  -5.063  23.799  0.00  0.00    -0.460 OA
BRANCH  26  30
ATOM     27  C   UNL     1       3.369  -4.090  27.151  0.00  0.00    +0.041 C 
ATOM     28  C   UNL     1       4.545  -5.072  27.233  0.00  0.00    +0.150 C 
ATOM     29  O   UNL     1       5.498  -4.909  26.155  0.00  0.00    -0.334 OA
ATOM     30  C   UNL     1       4.970  -5.316  24.886  0.00  0.00    +0.339 C 
ATOM     31  C   UNL     1       4.610  -6.818  24.877  0.00  0.00    +0.214 C 
ATOM     32  C   UNL     1       3.609  -7.110  26.008  0.00  0.00    +0.180 C 
ATOM     33  C   UNL     1       4.130  -6.556  27.342  0.00  0.00    +0.174 C 
BRANCH  31  34
ATOM     34  O   UNL     1       4.068  -7.275  23.629  0.00  0.00    -0.383 OA
ATOM     35  H   UNL     1       3.788  -6.511  23.092  0.00  0.00    +0.210 HD
ENDBRANCH  31  34
BRANCH  32  36
ATOM     36  O   UNL     1       2.308  -6.551  25.751  0.00  0.00    -0.386 OA
ATOM     37  H   UNL     1       1.704  -7.253  25.455  0.00  0.00    +0.210 HD
ENDBRANCH  32  36
BRANCH  33  38
ATOM     38  O   UNL     1       5.276  -7.318  27.748  0.00  0.00    -0.387 OA
ATOM     39  H   UNL     1       5.504  -7.924  27.017  0.00  0.00    +0.210 HD
ENDBRANCH  33  38
ENDBRANCH  26  30
ENDBRANCH   1  26
TORSDOF 10
ENDMDL
MODEL 3
REMARK VINA RESULT:      -8.0      2.211      4.129
REMARK  Name = 
REMARK  11 active torsions:
REMARK  status: ('A' for Active; 'I' for Inactive)
REMARK    1  A    between atoms: C_1  and  C_2
REMARK    2  A    between atoms: C_4  and  O_37
REMARK    3  A    between atoms: C_6  and  O_36
REMARK    4  A    between atoms: C_8  and  O_35
REMARK    5  A    between atoms: C_10  and  O_13
REMARK    6  A    between atoms: O_13  and  C_14
REMARK    7  A    between atoms: C_16  and  O_34
REMARK    8  A    between atoms: C_22  and  O_33
REMARK    9  A    between atoms: C_23  and  C_25
REMARK   10  A    between atoms: C_27  and  O_32
REMARK   11  A    between atoms: C_28  and  O_31
REMARK                            x       y       z     vdW  Elec       q    Type
REMARK                         _______ _______ _______ _____ _____    ______ ____
ROOT
ATOM      1  C   UNL     1       7.205  -4.040  24.293  0.00  0.00    +0.142 A 
ATOM      2  C   UNL     1       7.527  -2.672  24.423  0.00  0.00    +0.110 A 
ATOM      3  C   UNL     1       7.924  -2.031  25.690  0.00  0.00    +0.238 A 
ATOM      4  C   UNL     1       8.701  -0.782  25.573  0.00  0.00    +0.208 A 
ATOM      5  C   UNL     1       8.583  -0.067  24.438  0.00  0.00    +0.181 A 
ATOM      6  O   UNL     1       7.807  -0.491  23.363  0.00  0.00    -0.451 OA
ATOM      7  O   UNL     1       7.687  -2.481  26.809  0.00  0.00    -0.283 OA
ATOM      8  C   UNL     1       7.381  -1.800  23.333  0.00  0.00    +0.147 A 
ATOM      9  C   UNL     1       6.769  -2.250  22.155  0.00  0.00    +0.092 A 
ATOM     10  C   UNL     1       6.330  -3.565  22.077  0.00  0.00    +0.124 A 
ATOM     11  C   UNL     1       6.569  -4.463  23.114  0.00  0.00    +0.092 A 
ENDROOT
BRANCH   5  12
ATOM     12  C   UNL     1       9.123   1.317  24.328  0.00  0.00    +0.025 A 
ATOM     13  C   UNL     1      10.340   1.545  23.657  0.00  0.00    +0.015 A 
ATOM     14  C   UNL     1      10.769   2.844  23.360  0.00  0.00    +0.050 A 
ATOM     15  C   UNL     1       9.981   3.921  23.728  0.00  0.00    +0.158 A 
ATOM     16  C   UNL     1       8.805   3.724  24.440  0.00  0.00    +0.159 A 
ATOM     17  C   UNL     1       8.396   2.437  24.776  0.00  0.00    +0.060 A 
BRANCH  15  18
ATOM     18  O   UNL     1      10.348   5.182  23.360  0.00  0.00    -0.503 OA
ATOM     19  H   UNL     1      11.297   5.238  23.590  0.00  0.00    +0.292 HD
ENDBRANCH  15  18
BRANCH  16  20
ATOM     20  O   UNL     1       8.051   4.822  24.750  0.00  0.00    -0.503 OA
ATOM     21  H   UNL     1       8.413   5.214  25.564  0.00  0.00    +0.292 HD
ENDBRANCH  16  20
ENDBRANCH   5  12
BRANCH   4  22
ATOM     22  O   UNL     1       9.405  -0.392  26.694  0.00  0.00    -0.501 OA
ATOM     23  H   UNL     1      10.334  -0.299  26.403  0.00  0.00    +0.292 HD
ENDBRANCH   4  22
BRANCH  10  24
ATOM     24  O   UNL     1       5.693  -3.963  20.934  0.00  0.00    -0.507 OA
ATOM     25  H   UNL     1       5.896  -4.896  20.763  0.00  0.00    +0.292 HD
ENDBRANCH  10  24
BRANCH   1  26
ATOM     26  O   UNL     1       7.414  -5.052  25.190  0.00  0.00    -0.460 OA
BRANCH  26  30
ATOM     27  C   UNL     1       3.663  -7.106  25.563  0.00  0.00    +0.041 C 
ATOM     28  C   UNL     1       3.894  -5.675  26.068  0.00  0.00    +0.150 C 
ATOM     29  O   UNL     1       5.038  -5.035  25.453  0.00  0.00    -0.334 OA
ATOM     30  C   UNL     1       6.284  -5.611  25.870  0.00  0.00    +0.339 C 
ATOM     31  C   UNL     1       6.503  -5.448  27.389  0.00  0.00    +0.214 C 
ATOM     32  C   UNL     1       5.323  -6.081  28.148  0.00  0.00    +0.180 C 
ATOM     33  C   UNL     1       3.989  -5.548  27.604  0.00  0.00    +0.174 C 
BRANCH  31  34
ATOM     34  O   UNL     1       7.734  -6.017  27.860  0.00  0.00    -0.383 OA
ATOM     35  H   UNL     1       7.816  -6.934  27.540  0.00  0.00    +0.210 HD
ENDBRANCH  31  34
BRANCH  32  36
ATOM     36  O   UNL     1       5.318  -7.517  28.060  0.00  0.00    -0.386 OA
ATOM     37  H   UNL     1       5.933  -7.804  27.364  0.00  0.00    +0.210 HD
ENDBRANCH  32  36
BRANCH  33  38
ATOM     38  O   UNL     1       3.863  -4.162  27.952  0.00  0.00    -0.387 OA
ATOM     39  H   UNL     1       4.064  -4.075  28.904  0.00  0.00    +0.210 HD
ENDBRANCH  33  38
ENDBRANCH  26  30
ENDBRANCH   1  26
TORSDOF 10
ENDMDL
MODEL 4
REMARK VINA RESULT:      -7.7      2.309      9.200
REMARK  Name = 
REMARK  11 active torsions:
REMARK  status: ('A' for Active; 'I' for Inactive)
REMARK    1  A    between atoms: C_1  and  C_2
REMARK    2  A    between atoms: C_4  and  O_37
REMARK    3  A    between atoms: C_6  and  O_36
REMARK    4  A    between atoms: C_8  and  O_35
REMARK    5  A    between atoms: C_10  and  O_13
REMARK    6  A    between atoms: O_13  and  C_14
REMARK    7  A    between atoms: C_16  and  O_34
REMARK    8  A    between atoms: C_22  and  O_33
REMARK    9  A    between atoms: C_23  and  C_25
REMARK   10  A    between atoms: C_27  and  O_32
REMARK   11  A    between atoms: C_28  and  O_31
REMARK                            x       y       z     vdW  Elec       q    Type
REMARK                         _______ _______ _______ _____ _____    ______ ____
ROOT
ATOM      1  C   UNL     1       7.256  -0.084  22.983  0.00  0.00    +0.142 A 
ATOM      2  C   UNL     1       6.761  -1.283  23.538  0.00  0.00    +0.110 A 
ATOM      3  C   UNL     1       5.666  -1.351  24.524  0.00  0.00    +0.238 A 
ATOM      4  C   UNL     1       4.942  -2.634  24.607  0.00  0.00    +0.208 A 
ATOM      5  C   UNL     1       5.577  -3.748  24.195  0.00  0.00    +0.181 A 
ATOM      6  O   UNL     1       6.857  -3.720  23.648  0.00  0.00    -0.451 OA
ATOM      7  O   UNL     1       5.304  -0.416  25.236  0.00  0.00    -0.283 OA
ATOM      8  C   UNL     1       7.377  -2.510  23.245  0.00  0.00    +0.147 A 
ATOM      9  C   UNL     1       8.579  -2.534  22.526  0.00  0.00    +0.092 A 
ATOM     10  C   UNL     1       9.136  -1.338  22.094  0.00  0.00    +0.124 A 
ATOM     11  C   UNL     1       8.475  -0.128  22.287  0.00  0.00    +0.092 A 
ENDROOT
BRANCH   5  12
ATOM     12  C   UNL     1       5.031  -5.105  24.471  0.00  0.00    +0.025 A 
ATOM     13  C   UNL     1       5.258  -5.713  25.722  0.00  0.00    +0.015 A 
ATOM     14  C   UNL     1       4.592  -6.890  26.084  0.00  0.00    +0.050 A 
ATOM     15  C   UNL     1       3.692  -7.462  25.201  0.00  0.00    +0.158 A 
ATOM     16  C   UNL     1       3.494  -6.912  23.941  0.00  0.00    +0.159 A 
ATOM     17  C   UNL     1       4.186  -5.767  23.559  0.00  0.00    +0.060 A 
BRANCH  15  18
ATOM     18  O   UNL     1       2.973  -8.555  25.586  0.00  0.00    -0.503 OA
ATOM     19  H   UNL     1       3.096  -8.601  26.555  0.00  0.00    +0.292 HD
ENDBRANCH  15  18
BRANCH  16  20
ATOM     20  O   UNL     1       2.571  -7.501  23.123  0.00  0.00    -0.503 OA
ATOM     21  H   UNL     1       2.265  -8.318  23.555  0.00  0.00    +0.292 HD
ENDBRANCH  16  20
ENDBRANCH   5  12
BRANCH   4  22
ATOM     22  O   UNL     1       3.702  -2.597  25.210  0.00  0.00    -0.501 OA
ATOM     23  H   UNL     1       3.497  -1.649  25.337  0.00  0.00    +0.292 HD
ENDBRANCH   4  22
BRANCH  10  24
ATOM     24  O   UNL     1      10.334  -1.388  21.436  0.00  0.00    -0.507 OA
ATOM     25  H   UNL     1      10.972  -1.889  21.970  0.00  0.00    +0.292 HD
ENDBRANCH  10  24
BRANCH   1  26
ATOM     26  O   UNL     1       6.709   1.169  23.040  0.00  0.00    -0.460 OA
BRANCH  26  30
ATOM     27  C   UNL     1      10.456   3.223  23.446  0.00  0.00    +0.041 C 
ATOM     28  C   UNL     1       9.375   3.220  24.535  0.00  0.00    +0.150 C 
ATOM     29  O   UNL     1       8.429   2.133  24.391  0.00  0.00    -0.334 OA
ATOM     30  C   UNL     1       7.578   2.289  23.248  0.00  0.00    +0.339 C 
ATOM     31  C   UNL     1       6.711   3.562  23.356  0.00  0.00    +0.214 C 
ATOM     32  C   UNL     1       7.622   4.788  23.534  0.00  0.00    +0.180 C 
ATOM     33  C   UNL     1       8.614   4.556  24.683  0.00  0.00    +0.174 C 
BRANCH  31  34
ATOM     34  O   UNL     1       5.846   3.769  22.229  0.00  0.00    -0.383 OA
ATOM     35  H   UNL     1       6.149   4.543  21.719  0.00  0.00    +0.210 HD
ENDBRANCH  31  34
BRANCH  32  36
ATOM     36  O   UNL     1       8.362   5.104  22.341  0.00  0.00    -0.386 OA
ATOM     37  H   UNL     1       9.109   4.491  22.248  0.00  0.00    +0.210 HD
ENDBRANCH  32  36
BRANCH  33  38
ATOM     38  O   UNL     1       7.895   4.531  25.924  0.00  0.00    -0.387 OA
ATOM     39  H   UNL     1       7.689   5.455  26.166  0.00  0.00    +0.210 HD
ENDBRANCH  33  38
ENDBRANCH  26  30
ENDBRANCH   1  26
TORSDOF 10
ENDMDL
MODEL 5
REMARK VINA RESULT:      -7.7      1.975      2.892
REMARK  Name = 
REMARK  11 active torsions:
REMARK  status: ('A' for Active; 'I' for Inactive)
REMARK    1  A    between atoms: C_1  and  C_2
REMARK    2  A    between atoms: C_4  and  O_37
REMARK    3  A    between atoms: C_6  and  O_36
REMARK    4  A    between atoms: C_8  and  O_35
REMARK    5  A    between atoms: C_10  and  O_13
REMARK    6  A    between atoms: O_13  and  C_14
REMARK    7  A    between atoms: C_16  and  O_34
REMARK    8  A    between atoms: C_22  and  O_33
REMARK    9  A    between atoms: C_23  and  C_25
REMARK   10  A    between atoms: C_27  and  O_32
REMARK   11  A    between atoms: C_28  and  O_31
REMARK                            x       y       z     vdW  Elec       q    Type
REMARK                         _______ _______ _______ _____ _____    ______ ____
ROOT
ATOM      1  C   UNL     1       6.319  -4.269  25.973  0.00  0.00    +0.142 A 
ATOM      2  C   UNL     1       6.668  -3.058  25.337  0.00  0.00    +0.110 A 
ATOM      3  C   UNL     1       5.696  -2.027  24.927  0.00  0.00    +0.238 A 
ATOM      4  C   UNL     1       6.227  -0.659  24.765  0.00  0.00    +0.208 A 
ATOM      5  C   UNL     1       7.542  -0.515  24.515  0.00  0.00    +0.181 A 
ATOM      6  O   UNL     1       8.416  -1.597  24.460  0.00  0.00    -0.451 OA
ATOM      7  O   UNL     1       4.496  -2.224  24.753  0.00  0.00    -0.283 OA
ATOM      8  C   UNL     1       7.997  -2.811  24.957  0.00  0.00    +0.147 A 
ATOM      9  C   UNL     1       8.955  -3.827  25.066  0.00  0.00    +0.092 A 
ATOM     10  C   UNL     1       8.579  -5.065  25.570  0.00  0.00    +0.124 A 
ATOM     11  C   UNL     1       7.289  -5.282  26.048  0.00  0.00    +0.092 A 
ENDROOT
BRANCH   5  12
ATOM     12  C   UNL     1       8.117   0.792  24.091  0.00  0.00    +0.025 A 
ATOM     13  C   UNL     1       8.151   1.871  24.996  0.00  0.00    +0.015 A 
ATOM     14  C   UNL     1       8.863   3.040  24.700  0.00  0.00    +0.050 A 
ATOM     15  C   UNL     1       9.549   3.133  23.501  0.00  0.00    +0.158 A 
ATOM     16  C   UNL     1       9.484   2.104  22.570  0.00  0.00    +0.159 A 
ATOM     17  C   UNL     1       8.742   0.960  22.840  0.00  0.00    +0.060 A 
BRANCH  15  18
ATOM     18  O   UNL     1      10.319   4.230  23.249  0.00  0.00    -0.503 OA
ATOM     19  H   UNL     1       9.935   4.618  22.437  0.00  0.00    +0.292 HD
ENDBRANCH  15  18
BRANCH  16  20
ATOM     20  O   UNL     1      10.206   2.239  21.417  0.00  0.00    -0.503 OA
ATOM     21  H   UNL     1      10.592   3.132  21.406  0.00  0.00    +0.292 HD
ENDBRANCH  16  20
ENDBRANCH   5  12
BRANCH   4  22
ATOM     22  O   UNL     1       5.298   0.361  24.776  0.00  0.00    -0.501 OA
ATOM     23  H   UNL     1       4.779   0.255  23.953  0.00  0.00    +0.292 HD
ENDBRANCH   4  22
BRANCH  10  24
ATOM     24  O   UNL     1       9.523  -6.053  25.619  0.00  0.00    -0.507 OA
ATOM     25  H   UNL     1       9.195  -6.781  26.170  0.00  0.00    +0.292 HD
ENDBRANCH  10  24
BRANCH   1  26
ATOM     26  O   UNL     1       5.122  -4.620  26.533  0.00  0.00    -0.460 OA
BRANCH  26  30
ATOM     27  C   UNL     1       3.122  -6.107  23.038  0.00  0.00    +0.041 C 
ATOM     28  C   UNL     1       2.380  -5.558  24.264  0.00  0.00    +0.150 C 
ATOM     29  O   UNL     1       3.211  -4.718  25.101  0.00  0.00    -0.334 OA
ATOM     30  C   UNL     1       4.233  -5.457  25.784  0.00  0.00    +0.339 C 
ATOM     31  C   UNL     1       3.628  -6.504  26.744  0.00  0.00    +0.214 C 
ATOM     32  C   UNL     1       2.702  -7.446  25.956  0.00  0.00    +0.180 C 
ATOM     33  C   UNL     1       1.692  -6.637  25.129  0.00  0.00    +0.174 C 
BRANCH  31  34
ATOM     34  O   UNL     1       4.611  -7.279  27.447  0.00  0.00    -0.383 OA
ATOM     35  H   UNL     1       5.155  -7.778  26.810  0.00  0.00    +0.210 HD
ENDBRANCH  31  34
BRANCH  32  36
ATOM     36  O   UNL     1       3.426  -8.322  25.074  0.00  0.00    -0.386 OA
ATOM     37  H   UNL     1       3.774  -7.813  24.322  0.00  0.00    +0.210 HD
ENDBRANCH  32  36
BRANCH  33  38
ATOM     38  O   UNL     1       0.774  -5.985  26.020  0.00  0.00    -0.387 OA
ATOM     39  H   UNL     1       0.950  -6.316  26.921  0.00  0.00    +0.210 HD
ENDBRANCH  33  38
ENDBRANCH  26  30
ENDBRANCH   1  26
TORSDOF 10
ENDMDL
MODEL 6
REMARK VINA RESULT:      -7.6      1.920      8.625
REMARK  Name = 
REMARK  11 active torsions:
REMARK  status: ('A' for Active; 'I' for Inactive)
REMARK    1  A    between atoms: C_1  and  C_2
REMARK    2  A    between atoms: C_4  and  O_37
REMARK    3  A    between atoms: C_6  and  O_36
REMARK    4  A    between atoms: C_8  and  O_35
REMARK    5  A    between atoms: C_10  and  O_13
REMARK    6  A    between atoms: O_13  and  C_14
REMARK    7  A    between atoms: C_16  and  O_34
REMARK    8  A    between atoms: C_22  and  O_33
REMARK    9  A    between atoms: C_23  and  C_25
REMARK   10  A    between atoms: C_27  and  O_32
REMARK   11  A    between atoms: C_28  and  O_31
REMARK                            x       y       z     vdW  Elec       q    Type
REMARK                         _______ _______ _______ _____ _____    ______ ____
ROOT
ATOM      1  C   UNL     1       7.942  -3.669  23.900  0.00  0.00    +0.142 A 
ATOM      2  C   UNL     1       6.705  -4.230  24.285  0.00  0.00    +0.110 A 
ATOM      3  C   UNL     1       5.405  -3.848  23.702  0.00  0.00    +0.238 A 
ATOM      4  C   UNL     1       4.321  -4.842  23.821  0.00  0.00    +0.208 A 
ATOM      5  C   UNL     1       4.400  -5.751  24.811  0.00  0.00    +0.181 A 
ATOM      6  O   UNL     1       5.485  -5.817  25.681  0.00  0.00    -0.451 OA
ATOM      7  O   UNL     1       5.185  -2.796  23.106  0.00  0.00    -0.283 OA
ATOM      8  C   UNL     1       6.638  -5.139  25.352  0.00  0.00    +0.147 A 
ATOM      9  C   UNL     1       7.771  -5.376  26.141  0.00  0.00    +0.092 A 
ATOM     10  C   UNL     1       8.957  -4.720  25.841  0.00  0.00    +0.124 A 
ATOM     11  C   UNL     1       9.059  -3.900  24.720  0.00  0.00    +0.092 A 
ENDROOT
BRANCH   5  12
ATOM     12  C   UNL     1       3.246  -6.624  25.163  0.00  0.00    +0.025 A 
ATOM     13  C   UNL     1       2.950  -7.750  24.371  0.00  0.00    +0.015 A 
ATOM     14  C   UNL     1       2.006  -8.698  24.787  0.00  0.00    +0.050 A 
ATOM     15  C   UNL     1       1.360  -8.527  25.999  0.00  0.00    +0.158 A 
ATOM     16  C   UNL     1       1.595  -7.396  26.770  0.00  0.00    +0.159 A 
ATOM     17  C   UNL     1       2.498  -6.430  26.341  0.00  0.00    +0.060 A 
BRANCH  15  18
ATOM     18  O   UNL     1       0.510  -9.493  26.451  0.00  0.00    -0.503 OA
ATOM     19  H   UNL     1      -0.378  -9.088  26.388  0.00  0.00    +0.292 HD
ENDBRANCH  15  18
BRANCH  16  20
ATOM     20  O   UNL     1       0.951  -7.296  27.972  0.00  0.00    -0.503 OA
ATOM     21  H   UNL     1       0.163  -6.739  27.846  0.00  0.00    +0.292 HD
ENDBRANCH  16  20
ENDBRANCH   5  12
BRANCH   4  22
ATOM     22  O   UNL     1       3.251  -4.685  22.963  0.00  0.00    -0.501 OA
ATOM     23  H   UNL     1       2.800  -3.866  23.252  0.00  0.00    +0.292 HD
ENDBRANCH   4  22
BRANCH  10  24
ATOM     24  O   UNL     1      10.034  -4.933  26.657  0.00  0.00    -0.507 OA
ATOM     25  H   UNL     1       9.752  -5.448  27.430  0.00  0.00    +0.292 HD
ENDBRANCH  10  24
BRANCH   1  26
ATOM     26  O   UNL     1       8.220  -2.887  22.812  0.00  0.00    -0.460 OA
BRANCH  26  30
ATOM     27  C   UNL     1       7.942   0.982  24.651  0.00  0.00    +0.041 C 
ATOM     28  C   UNL     1       7.713   0.742  23.152  0.00  0.00    +0.150 C 
ATOM     29  O   UNL     1       7.410  -0.639  22.839  0.00  0.00    -0.334 OA
ATOM     30  C   UNL     1       8.537  -1.506  23.022  0.00  0.00    +0.339 C 
ATOM     31  C   UNL     1       9.702  -1.128  22.082  0.00  0.00    +0.214 C 
ATOM     32  C   UNL     1      10.095   0.340  22.318  0.00  0.00    +0.180 C 
ATOM     33  C   UNL     1       8.856   1.245  22.243  0.00  0.00    +0.174 C 
BRANCH  31  34
ATOM     34  O   UNL     1      10.861  -1.963  22.232  0.00  0.00    -0.383 OA
ATOM     35  H   UNL     1      11.399  -1.928  21.420  0.00  0.00    +0.210 HD
ENDBRANCH  31  34
BRANCH  32  36
ATOM     36  O   UNL     1      10.739   0.541  23.588  0.00  0.00    -0.386 OA
ATOM     37  H   UNL     1      10.923  -0.319  24.001  0.00  0.00    +0.210 HD
ENDBRANCH  32  36
BRANCH  33  38
ATOM     38  O   UNL     1       8.379   1.273  20.890  0.00  0.00    -0.387 OA
ATOM     39  H   UNL     1       7.843   2.082  20.781  0.00  0.00    +0.210 HD
ENDBRANCH  33  38
ENDBRANCH  26  30
ENDBRANCH   1  26
TORSDOF 10
ENDMDL
MODEL 7
REMARK VINA RESULT:      -7.6      2.720      3.475
REMARK  Name = 
REMARK  11 active torsions:
REMARK  status: ('A' for Active; 'I' for Inactive)
REMARK    1  A    between atoms: C_1  and  C_2
REMARK    2  A    between atoms: C_4  and  O_37
REMARK    3  A    between atoms: C_6  and  O_36
REMARK    4  A    between atoms: C_8  and  O_35
REMARK    5  A    between atoms: C_10  and  O_13
REMARK    6  A    between atoms: O_13  and  C_14
REMARK    7  A    between atoms: C_16  and  O_34
REMARK    8  A    between atoms: C_22  and  O_33
REMARK    9  A    between atoms: C_23  and  C_25
REMARK   10  A    between atoms: C_27  and  O_32
REMARK   11  A    between atoms: C_28  and  O_31
REMARK                            x       y       z     vdW  Elec       q    Type
REMARK                         _______ _______ _______ _____ _____    ______ ____
ROOT
ATOM      1  C   UNL     1       6.805  -4.561  25.226  0.00  0.00    +0.142 A 
ATOM      2  C   UNL     1       7.142  -3.294  24.703  0.00  0.00    +0.110 A 
ATOM      3  C   UNL     1       6.166  -2.347  24.131  0.00  0.00    +0.238 A 
ATOM      4  C   UNL     1       6.569  -0.928  24.112  0.00  0.00    +0.208 A 
ATOM      5  C   UNL     1       7.885  -0.642  24.134  0.00  0.00    +0.181 A 
ATOM      6  O   UNL     1       8.863  -1.629  24.230  0.00  0.00    -0.451 OA
ATOM      7  O   UNL     1       5.051  -2.654  23.715  0.00  0.00    -0.283 OA
ATOM      8  C   UNL     1       8.485  -2.899  24.604  0.00  0.00    +0.147 A 
ATOM      9  C   UNL     1       9.506  -3.819  24.878  0.00  0.00    +0.092 A 
ATOM     10  C   UNL     1       9.171  -5.110  25.266  0.00  0.00    +0.124 A 
ATOM     11  C   UNL     1       7.843  -5.475  25.470  0.00  0.00    +0.092 A 
ENDROOT
BRANCH   5  12
ATOM     12  C   UNL     1       8.390   0.732  23.866  0.00  0.00    +0.025 A 
ATOM     13  C   UNL     1       8.244   1.737  24.843  0.00  0.00    +0.015 A 
ATOM     14  C   UNL     1       8.883   2.976  24.706  0.00  0.00    +0.050 A 
ATOM     15  C   UNL     1       9.676   3.213  23.596  0.00  0.00    +0.158 A 
ATOM     16  C   UNL     1       9.789   2.258  22.594  0.00  0.00    +0.159 A 
ATOM     17  C   UNL     1       9.121   1.044  22.703  0.00  0.00    +0.060 A 
BRANCH  15  18
ATOM     18  O   UNL     1      10.374   4.381  23.505  0.00  0.00    -0.503 OA
ATOM     19  H   UNL     1      10.692   4.405  22.580  0.00  0.00    +0.292 HD
ENDBRANCH  15  18
BRANCH  16  20
ATOM     20  O   UNL     1      10.610   2.536  21.536  0.00  0.00    -0.503 OA
ATOM     21  H   UNL     1      10.140   2.293  20.719  0.00  0.00    +0.292 HD
ENDBRANCH  16  20
ENDBRANCH   5  12
BRANCH   4  22
ATOM     22  O   UNL     1       5.553  -0.006  23.961  0.00  0.00    -0.501 OA
ATOM     23  H   UNL     1       5.106   0.040  24.830  0.00  0.00    +0.292 HD
ENDBRANCH   4  22
BRANCH  10  24
ATOM     24  O   UNL     1      10.187  -6.000  25.480  0.00  0.00    -0.507 OA
ATOM     25  H   UNL     1      11.037  -5.558  25.327  0.00  0.00    +0.292 HD
ENDBRANCH  10  24
BRANCH   1  26
ATOM     26  O   UNL     1       5.565  -5.054  25.526  0.00  0.00    -0.460 OA
BRANCH  26  30
ATOM     27  C   UNL     1       6.317  -6.576  29.470  0.00  0.00    +0.041 C 
ATOM     28  C   UNL     1       5.180  -7.083  28.573  0.00  0.00    +0.150 C 
ATOM     29  O   UNL     1       5.382  -6.778  27.172  0.00  0.00    -0.334 OA
ATOM     30  C   UNL     1       5.266  -5.377  26.890  0.00  0.00    +0.339 C 
ATOM     31  C   UNL     1       3.852  -4.849  27.214  0.00  0.00    +0.214 C 
ATOM     32  C   UNL     1       3.521  -5.142  28.687  0.00  0.00    +0.180 C 
ATOM     33  C   UNL     1       3.771  -6.623  29.008  0.00  0.00    +0.174 C 
BRANCH  31  34
ATOM     34  O   UNL     1       3.685  -3.446  26.957  0.00  0.00    -0.383 OA
ATOM     35  H   UNL     1       4.558  -3.015  26.903  0.00  0.00    +0.210 HD
ENDBRANCH  31  34
BRANCH  32  36
ATOM     36  O   UNL     1       4.290  -4.335  29.596  0.00  0.00    -0.386 OA
ATOM     37  H   UNL     1       4.309  -3.416  29.281  0.00  0.00    +0.210 HD
ENDBRANCH  32  36
BRANCH  33  38
ATOM     38  O   UNL     1       2.800  -7.421  28.316  0.00  0.00    -0.387 OA
ATOM     39  H   UNL     1       2.001  -7.466  28.874  0.00  0.00    +0.210 HD
ENDBRANCH  33  38
ENDBRANCH  26  30
ENDBRANCH   1  26
TORSDOF 10
ENDMDL
MODEL 8
REMARK VINA RESULT:      -7.6      1.807      8.481
REMARK  Name = 
REMARK  11 active torsions:
REMARK  status: ('A' for Active; 'I' for Inactive)
REMARK    1  A    between atoms: C_1  and  C_2
REMARK    2  A    between atoms: C_4  and  O_37
REMARK    3  A    between atoms: C_6  and  O_36
REMARK    4  A    between atoms: C_8  and  O_35
REMARK    5  A    between atoms: C_10  and  O_13
REMARK    6  A    between atoms: O_13  and  C_14
REMARK    7  A    between atoms: C_16  and  O_34
REMARK    8  A    between atoms: C_22  and  O_33
REMARK    9  A    between atoms: C_23  and  C_25
REMARK   10  A    between atoms: C_27  and  O_32
REMARK   11  A    between atoms: C_28  and  O_31
REMARK                            x       y       z     vdW  Elec       q    Type
REMARK                         _______ _______ _______ _____ _____    ______ ____
ROOT
ATOM      1  C   UNL     1       8.105  -2.565  25.472  0.00  0.00    +0.142 A 
ATOM      2  C   UNL     1       6.950  -3.374  25.404  0.00  0.00    +0.110 A 
ATOM      3  C   UNL     1       5.601  -2.926  25.796  0.00  0.00    +0.238 A 
ATOM      4  C   UNL     1       4.471  -3.666  25.202  0.00  0.00    +0.208 A 
ATOM      5  C   UNL     1       4.691  -4.926  24.780  0.00  0.00    +0.181 A 
ATOM      6  O   UNL     1       5.947  -5.524  24.832  0.00  0.00    -0.451 OA
ATOM      7  O   UNL     1       5.364  -1.974  26.536  0.00  0.00    -0.283 OA
ATOM      8  C   UNL     1       7.049  -4.727  25.045  0.00  0.00    +0.147 A 
ATOM      9  C   UNL     1       8.310  -5.322  24.902  0.00  0.00    +0.092 A 
ATOM     10  C   UNL     1       9.450  -4.554  25.100  0.00  0.00    +0.124 A 
ATOM     11  C   UNL     1       9.358  -3.187  25.350  0.00  0.00    +0.092 A 
ENDROOT
BRANCH   5  12
ATOM     12  C   UNL     1       3.569  -5.830  24.404  0.00  0.00    +0.025 A 
ATOM     13  C   UNL     1       2.766  -5.527  23.287  0.00  0.00    +0.015 A 
ATOM     14  C   UNL     1       1.841  -6.453  22.790  0.00  0.00    +0.050 A 
ATOM     15  C   UNL     1       1.718  -7.689  23.403  0.00  0.00    +0.158 A 
ATOM     16  C   UNL     1       2.459  -7.988  24.540  0.00  0.00    +0.159 A 
ATOM     17  C   UNL     1       3.347  -7.055  25.064  0.00  0.00    +0.060 A 
BRANCH  15  18
ATOM     18  O   UNL     1       0.887  -8.627  22.867  0.00  0.00    -0.503 OA
ATOM     19  H   UNL     1       1.342  -9.478  23.027  0.00  0.00    +0.292 HD
ENDBRANCH  15  18
BRANCH  16  20
ATOM     20  O   UNL     1       2.319  -9.234  25.084  0.00  0.00    -0.503 OA
ATOM     21  H   UNL     1       2.951  -9.828  24.642  0.00  0.00    +0.292 HD
ENDBRANCH  16  20
ENDBRANCH   5  12
BRANCH   4  22
ATOM     22  O   UNL     1       3.244  -3.036  25.232  0.00  0.00    -0.501 OA
ATOM     23  H   UNL     1       2.829  -3.223  24.366  0.00  0.00    +0.292 HD
ENDBRANCH   4  22
BRANCH  10  24
ATOM     24  O   UNL     1      10.666  -5.172  25.002  0.00  0.00    -0.507 OA
ATOM     25  H   UNL     1      11.346  -4.603  25.396  0.00  0.00    +0.292 HD
ENDBRANCH  10  24
BRANCH   1  26
ATOM     26  O   UNL     1       8.186  -1.213  25.662  0.00  0.00    -0.460 OA
BRANCH  26  30
ATOM     27  C   UNL     1       7.015   1.251  22.348  0.00  0.00    +0.041 C 
ATOM     28  C   UNL     1       7.896   0.003  22.201  0.00  0.00    +0.150 C 
ATOM     29  O   UNL     1       7.790  -0.902  23.326  0.00  0.00    -0.334 OA
ATOM     30  C   UNL     1       8.376  -0.369  24.521  0.00  0.00    +0.339 C 
ATOM     31  C   UNL     1       9.891  -0.122  24.347  0.00  0.00    +0.214 C 
ATOM     32  C   UNL     1      10.122   0.820  23.153  0.00  0.00    +0.180 C 
ATOM     33  C   UNL     1       9.383   0.302  21.911  0.00  0.00    +0.174 C 
BRANCH  31  34
ATOM     34  O   UNL     1      10.525   0.422  25.515  0.00  0.00    -0.383 OA
ATOM     35  H   UNL     1      11.492   0.313  25.445  0.00  0.00    +0.210 HD
ENDBRANCH  31  34
BRANCH  32  36
ATOM     36  O   UNL     1       9.690   2.166  23.421  0.00  0.00    -0.386 OA
ATOM     37  H   UNL     1       8.735   2.174  23.596  0.00  0.00    +0.210 HD
ENDBRANCH  32  36
BRANCH  33  38
ATOM     38  O   UNL     1      10.010  -0.910  21.466  0.00  0.00    -0.387 OA
ATOM     39  H   UNL     1      10.487  -1.294  22.227  0.00  0.00    +0.210 HD
ENDBRANCH  33  38
ENDBRANCH  26  30
ENDBRANCH   1  26
TORSDOF 10
ENDMDL
MODEL 9
REMARK VINA RESULT:      -7.6      2.850      9.050
REMARK  Name = 
REMARK  11 active torsions:
REMARK  status: ('A' for Active; 'I' for Inactive)
REMARK    1  A    between atoms: C_1  and  C_2
REMARK    2  A    between atoms: C_4  and  O_37
REMARK    3  A    between atoms: C_6  and  O_36
REMARK    4  A    between atoms: C_8  and  O_35
REMARK    5  A    between atoms: C_10  and  O_13
REMARK    6  A    between atoms: O_13  and  C_14
REMARK    7  A    between atoms: C_16  and  O_34
REMARK    8  A    between atoms: C_22  and  O_33
REMARK    9  A    between atoms: C_23  and  C_25
REMARK   10  A    between atoms: C_27  and  O_32
REMARK   11  A    between atoms: C_28  and  O_31
REMARK                            x       y       z     vdW  Elec       q    Type
REMARK                         _______ _______ _______ _____ _____    ______ ____
ROOT
ATOM      1  C   UNL     1       7.719   0.041  22.765  0.00  0.00    +0.142 A 
ATOM      2  C   UNL     1       7.307  -0.885  23.747  0.00  0.00    +0.110 A 
ATOM      3  C   UNL     1       6.246  -0.625  24.739  0.00  0.00    +0.238 A 
ATOM      4  C   UNL     1       5.595  -1.813  25.324  0.00  0.00    +0.208 A 
ATOM      5  C   UNL     1       6.278  -2.974  25.324  0.00  0.00    +0.181 A 
ATOM      6  O   UNL     1       7.538  -3.101  24.746  0.00  0.00    -0.451 OA
ATOM      7  O   UNL     1       5.853   0.492  25.070  0.00  0.00    -0.283 OA
ATOM      8  C   UNL     1       7.980  -2.107  23.901  0.00  0.00    +0.147 A 
ATOM      9  C   UNL     1       9.161  -2.349  23.186  0.00  0.00    +0.092 A 
ATOM     10  C   UNL     1       9.639  -1.378  22.316  0.00  0.00    +0.124 A 
ATOM     11  C   UNL     1       8.919  -0.210  22.079  0.00  0.00    +0.092 A 
ENDROOT
BRANCH   5  12
ATOM     12  C   UNL     1       5.815  -4.152  26.108  0.00  0.00    +0.025 A 
ATOM     13  C   UNL     1       5.243  -5.256  25.446  0.00  0.00    +0.015 A 
ATOM     14  C   UNL     1       4.986  -6.453  26.126  0.00  0.00    +0.050 A 
ATOM     15  C   UNL     1       5.306  -6.554  27.469  0.00  0.00    +0.158 A 
ATOM     16  C   UNL     1       5.818  -5.460  28.156  0.00  0.00    +0.159 A 
ATOM     17  C   UNL     1       6.034  -4.256  27.496  0.00  0.00    +0.060 A 
BRANCH  15  18
ATOM     18  O   UNL     1       5.144  -7.745  28.112  0.00  0.00    -0.503 OA
ATOM     19  H   UNL     1       5.744  -8.360  27.645  0.00  0.00    +0.292 HD
ENDBRANCH  15  18
BRANCH  16  20
ATOM     20  O   UNL     1       6.144  -5.628  29.473  0.00  0.00    -0.503 OA
ATOM     21  H   UNL     1       7.034  -5.260  29.612  0.00  0.00    +0.292 HD
ENDBRANCH  16  20
ENDBRANCH   5  12
BRANCH   4  22
ATOM     22  O   UNL     1       4.372  -1.605  25.928  0.00  0.00    -0.501 OA
ATOM     23  H   UNL     1       3.716  -1.601  25.202  0.00  0.00    +0.292 HD
ENDBRANCH   4  22
BRANCH  10  24
ATOM     24  O   UNL     1      10.819  -1.620  21.669  0.00  0.00    -0.507 OA
ATOM     25  H   UNL     1      10.784  -2.498  21.257  0.00  0.00    +0.292 HD
ENDBRANCH  10  24
BRANCH   1  26
ATOM     26  O   UNL     1       7.107   1.202  22.381  0.00  0.00    -0.460 OA
BRANCH  26  30
ATOM     27  C   UNL     1      10.239   3.918  23.493  0.00  0.00    +0.041 C 
ATOM     28  C   UNL     1       9.041   3.598  24.396  0.00  0.00    +0.150 C 
ATOM     29  O   UNL     1       8.376   2.362  24.041  0.00  0.00    -0.334 OA
ATOM     30  C   UNL     1       7.681   2.449  22.789  0.00  0.00    +0.339 C 
ATOM     31  C   UNL     1       6.558   3.507  22.838  0.00  0.00    +0.214 C 
ATOM     32  C   UNL     1       7.155   4.870  23.231  0.00  0.00    +0.180 C 
ATOM     33  C   UNL     1       8.002   4.736  24.505  0.00  0.00    +0.174 C 
BRANCH  31  34
ATOM     34  O   UNL     1       5.835   3.641  21.604  0.00  0.00    -0.383 OA
ATOM     35  H   UNL     1       6.339   4.203  20.987  0.00  0.00    +0.210 HD
ENDBRANCH  31  34
BRANCH  32  36
ATOM     36  O   UNL     1       7.971   5.436  22.190  0.00  0.00    -0.386 OA
ATOM     37  H   UNL     1       7.788   4.983  21.349  0.00  0.00    +0.210 HD
ENDBRANCH  32  36
BRANCH  33  38
ATOM     38  O   UNL     1       7.136   4.454  25.614  0.00  0.00    -0.387 OA
ATOM     39  H   UNL     1       7.685   4.087  26.333  0.00  0.00    +0.210 HD
ENDBRANCH  33  38
ENDBRANCH  26  30
ENDBRANCH   1  26
TORSDOF 10
ENDMDL
