MODEL 1
REMARK VINA RESULT:      -7.1      0.000      0.000
REMARK  Name = 
REMARK  9 active torsions:
REMARK  status: ('A' for Active; 'I' for Inactive)
REMARK    1  A    between atoms: C_1  and  O_2
REMARK    2  A    between atoms: O_2  and  C_3
REMARK    3  A    between atoms: C_5  and  O_25
REMARK    4  A    between atoms: C_11  and  O_23
REMARK    5  A    between atoms: C_12  and  C_14
REMARK    6  A    between atoms: C_16  and  O_21
REMARK    7  A    between atoms: C_17  and  O_20
REMARK    8  A    between atoms: O_21  and  C_22
REMARK    9  A    between atoms: O_23  and  C_24
REMARK                            x       y       z     vdW  Elec       q    Type
REMARK                         _______ _______ _______ _____ _____    ______ ____
ROOT
ATOM      1  C   UNL     1       5.900  -5.736  25.396  0.00  0.00    +0.138 A 
ATOM      2  C   UNL     1       6.566  -4.541  25.039  0.00  0.00    +0.109 A 
ATOM      3  C   UNL     1       7.435  -3.811  25.985  0.00  0.00    +0.238 A 
ATOM      4  C   UNL     1       8.032  -2.518  25.522  0.00  0.00    +0.211 A 
ATOM      5  C   UNL     1       7.864  -2.167  24.227  0.00  0.00    +0.181 A 
ATOM      6  O   UNL     1       7.084  -2.885  23.326  0.00  0.00    -0.451 OA
ATOM      7  O   UNL     1       7.648  -4.255  27.106  0.00  0.00    -0.283 OA
ATOM      8  C   UNL     1       6.407  -4.001  23.765  0.00  0.00    +0.147 A 
ATOM      9  C   UNL     1       5.536  -4.607  22.855  0.00  0.00    +0.092 A 
ATOM     10  C   UNL     1       4.846  -5.757  23.226  0.00  0.00    +0.124 A 
ATOM     11  C   UNL     1       5.024  -6.332  24.481  0.00  0.00    +0.092 A 
ENDROOT
BRANCH   5  12
ATOM     12  C   UNL     1       8.448  -0.911  23.642  0.00  0.00    +0.025 A 
ATOM     13  C   UNL     1       9.836  -0.683  23.647  0.00  0.00    +0.015 A 
ATOM     14  C   UNL     1      10.390   0.414  22.973  0.00  0.00    +0.050 A 
ATOM     15  C   UNL     1       9.559   1.280  22.274  0.00  0.00    +0.158 A 
ATOM     16  C   UNL     1       8.174   1.132  22.307  0.00  0.00    +0.162 A 
ATOM     17  C   UNL     1       7.634   0.073  23.038  0.00  0.00    +0.061 A 
BRANCH  15  18
ATOM     18  O   UNL     1      10.128   2.273  21.526  0.00  0.00    -0.503 OA
ATOM     19  H   UNL     1      10.280   3.005  22.157  0.00  0.00    +0.292 HD
ENDBRANCH  15  18
BRANCH  16  20
ATOM     20  O   UNL     1       7.466   2.054  21.579  0.00  0.00    -0.491 OA
ATOM     21  C   UNL     1       6.637   2.946  22.319  0.00  0.00    +0.277 C 
ENDBRANCH  16  20
ENDBRANCH   5  12
BRANCH   1  23
ATOM     22  C   UNL     1       4.939  -6.737  27.335  0.00  0.00    +0.277 C 
ATOM     23  O   UNL     1       6.088  -6.249  26.650  0.00  0.00    -0.494 OA
ENDBRANCH   1  23
BRANCH   4  24
ATOM     24  O   UNL     1       8.706  -1.675  26.404  0.00  0.00    -0.488 OA
ATOM     25  C   UNL     1       7.960  -0.682  27.094  0.00  0.00    +0.277 C 
ENDBRANCH   4  24
BRANCH  10  26
ATOM     26  O   UNL     1       3.977  -6.307  22.326  0.00  0.00    -0.507 OA
ATOM     27  H   UNL     1       4.461  -6.926  21.753  0.00  0.00    +0.292 HD
ENDBRANCH  10  26
TORSDOF 6
ENDMDL
MODEL 2
REMARK VINA RESULT:      -6.8      2.476      7.469
REMARK  Name = 
REMARK  9 active torsions:
REMARK  status: ('A' for Active; 'I' for Inactive)
REMARK    1  A    between atoms: C_1  and  O_2
REMARK    2  A    between atoms: O_2  and  C_3
REMARK    3  A    between atoms: C_5  and  O_25
REMARK    4  A    between atoms: C_11  and  O_23
REMARK    5  A    between atoms: C_12  and  C_14
REMARK    6  A    between atoms: C_16  and  O_21
REMARK    7  A    between atoms: C_17  and  O_20
REMARK    8  A    between atoms: O_21  and  C_22
REMARK    9  A    between atoms: O_23  and  C_24
REMARK                            x       y       z     vdW  Elec       q    Type
REMARK                         _______ _______ _______ _____ _____    ______ ____
ROOT
ATOM      1  C   UNL     1       9.219   3.266  23.576  0.00  0.00    +0.138 A 
ATOM      2  C   UNL     1       8.612   1.990  23.594  0.00  0.00    +0.109 A 
ATOM      3  C   UNL     1       9.283   0.807  24.172  0.00  0.00    +0.238 A 
ATOM      4  C   UNL     1       8.576  -0.510  24.073  0.00  0.00    +0.211 A 
ATOM      5  C   UNL     1       7.310  -0.518  23.596  0.00  0.00    +0.181 A 
ATOM      6  O   UNL     1       6.664   0.610  23.098  0.00  0.00    -0.451 OA
ATOM      7  O   UNL     1      10.380   0.910  24.707  0.00  0.00    -0.283 OA
ATOM      8  C   UNL     1       7.346   1.805  23.045  0.00  0.00    +0.147 A 
ATOM      9  C   UNL     1       6.697   2.872  22.416  0.00  0.00    +0.092 A 
ATOM     10  C   UNL     1       7.318   4.115  22.358  0.00  0.00    +0.124 A 
ATOM     11  C   UNL     1       8.566   4.326  22.937  0.00  0.00    +0.092 A 
ENDROOT
BRANCH   5  12
ATOM     12  C   UNL     1       6.490  -1.773  23.485  0.00  0.00    +0.025 A 
ATOM     13  C   UNL     1       5.563  -2.128  24.481  0.00  0.00    +0.015 A 
ATOM     14  C   UNL     1       4.697  -3.216  24.308  0.00  0.00    +0.050 A 
ATOM     15  C   UNL     1       4.741  -3.945  23.127  0.00  0.00    +0.158 A 
ATOM     16  C   UNL     1       5.695  -3.674  22.148  0.00  0.00    +0.162 A 
ATOM     17  C   UNL     1       6.595  -2.629  22.365  0.00  0.00    +0.061 A 
BRANCH  15  18
ATOM     18  O   UNL     1       3.810  -4.927  22.927  0.00  0.00    -0.503 OA
ATOM     19  H   UNL     1       3.595  -4.878  21.975  0.00  0.00    +0.292 HD
ENDBRANCH  15  18
BRANCH  16  20
ATOM     20  O   UNL     1       5.635  -4.468  21.032  0.00  0.00    -0.491 OA
ATOM     21  C   UNL     1       6.427  -5.653  21.052  0.00  0.00    +0.277 C 
ENDBRANCH  16  20
ENDBRANCH   5  12
BRANCH   1  23
ATOM     22  C   UNL     1      11.456   4.060  23.349  0.00  0.00    +0.277 C 
ATOM     23  O   UNL     1      10.459   3.418  24.135  0.00  0.00    -0.494 OA
ENDBRANCH   1  23
BRANCH   4  24
ATOM     24  O   UNL     1       9.211  -1.701  24.419  0.00  0.00    -0.488 OA
ATOM     25  C   UNL     1      10.112  -2.283  23.487  0.00  0.00    +0.277 C 
ENDBRANCH   4  24
BRANCH  10  26
ATOM     26  O   UNL     1       6.673   5.130  21.707  0.00  0.00    -0.507 OA
ATOM     27  H   UNL     1       6.131   4.755  20.991  0.00  0.00    +0.292 HD
ENDBRANCH  10  26
TORSDOF 6
ENDMDL
MODEL 3
REMARK VINA RESULT:      -6.6      1.798      7.235
REMARK  Name = 
REMARK  9 active torsions:
REMARK  status: ('A' for Active; 'I' for Inactive)
REMARK    1  A    between atoms: C_1  and  O_2
REMARK    2  A    between atoms: O_2  and  C_3
REMARK    3  A    between atoms: C_5  and  O_25
REMARK    4  A    between atoms: C_11  and  O_23
REMARK    5  A    between atoms: C_12  and  C_14
REMARK    6  A    between atoms: C_16  and  O_21
REMARK    7  A    between atoms: C_17  and  O_20
REMARK    8  A    between atoms: O_21  and  C_22
REMARK    9  A    between atoms: O_23  and  C_24
REMARK                            x       y       z     vdW  Elec       q    Type
REMARK                         _______ _______ _______ _____ _____    ______ ____
ROOT
ATOM      1  C   UNL     1       9.223   0.121  23.407  0.00  0.00    +0.138 A 
ATOM      2  C   UNL     1       8.463  -1.059  23.570  0.00  0.00    +0.109 A 
ATOM      3  C   UNL     1       9.093  -2.379  23.783  0.00  0.00    +0.238 A 
ATOM      4  C   UNL     1       8.191  -3.572  23.872  0.00  0.00    +0.211 A 
ATOM      5  C   UNL     1       6.855  -3.360  23.900  0.00  0.00    +0.181 A 
ATOM      6  O   UNL     1       6.268  -2.107  23.749  0.00  0.00    -0.451 OA
ATOM      7  O   UNL     1      10.309  -2.482  23.877  0.00  0.00    -0.283 OA
ATOM      8  C   UNL     1       7.071  -1.012  23.521  0.00  0.00    +0.147 A 
ATOM      9  C   UNL     1       6.424   0.196  23.247  0.00  0.00    +0.092 A 
ATOM     10  C   UNL     1       7.178   1.347  23.039  0.00  0.00    +0.124 A 
ATOM     11  C   UNL     1       8.567   1.325  23.125  0.00  0.00    +0.092 A 
ENDROOT
BRANCH   5  12
ATOM     12  C   UNL     1       5.857  -4.477  24.024  0.00  0.00    +0.025 A 
ATOM     13  C   UNL     1       5.115  -4.916  22.912  0.00  0.00    +0.015 A 
ATOM     14  C   UNL     1       4.295  -6.050  22.994  0.00  0.00    +0.050 A 
ATOM     15  C   UNL     1       4.228  -6.763  24.184  0.00  0.00    +0.158 A 
ATOM     16  C   UNL     1       4.887  -6.318  25.328  0.00  0.00    +0.162 A 
ATOM     17  C   UNL     1       5.646  -5.149  25.248  0.00  0.00    +0.061 A 
BRANCH  15  18
ATOM     18  O   UNL     1       3.517  -7.931  24.210  0.00  0.00    -0.503 OA
ATOM     19  H   UNL     1       3.039  -7.952  23.357  0.00  0.00    +0.292 HD
ENDBRANCH  15  18
BRANCH  16  20
ATOM     20  O   UNL     1       4.738  -7.108  26.439  0.00  0.00    -0.491 OA
ATOM     21  C   UNL     1       4.996  -6.490  27.698  0.00  0.00    +0.277 C 
ENDBRANCH  16  20
ENDBRANCH   5  12
BRANCH   1  23
ATOM     22  C   UNL     1      11.234   0.780  24.507  0.00  0.00    +0.277 C 
ATOM     23  O   UNL     1      10.587   0.044  23.474  0.00  0.00    -0.494 OA
ENDBRANCH   1  23
BRANCH   4  24
ATOM     24  O   UNL     1       8.704  -4.867  23.882  0.00  0.00    -0.488 OA
ATOM     25  C   UNL     1       9.189  -5.394  25.110  0.00  0.00    +0.277 C 
ENDBRANCH   4  24
BRANCH  10  26
ATOM     26  O   UNL     1       6.518   2.506  22.739  0.00  0.00    -0.507 OA
ATOM     27  H   UNL     1       6.804   2.818  21.863  0.00  0.00    +0.292 HD
ENDBRANCH  10  26
TORSDOF 6
ENDMDL
MODEL 4
REMARK VINA RESULT:      -6.6      1.855      7.285
REMARK  Name = 
REMARK  9 active torsions:
REMARK  status: ('A' for Active; 'I' for Inactive)
REMARK    1  A    between atoms: C_1  and  O_2
REMARK    2  A    between atoms: O_2  and  C_3
REMARK    3  A    between atoms: C_5  and  O_25
REMARK    4  A    between atoms: C_11  and  O_23
REMARK    5  A    between atoms: C_12  and  C_14
REMARK    6  A    between atoms: C_16  and  O_21
REMARK    7  A    between atoms: C_17  and  O_20
REMARK    8  A    between atoms: O_21  and  C_22
REMARK    9  A    between atoms: O_23  and  C_24
REMARK                            x       y       z     vdW  Elec       q    Type
REMARK                         _______ _______ _______ _____ _____    ______ ____
ROOT
ATOM      1  C   UNL     1       9.297   2.165  23.221  0.00  0.00    +0.138 A 
ATOM      2  C   UNL     1       8.736   0.868  23.210  0.00  0.00    +0.109 A 
ATOM      3  C   UNL     1       9.511  -0.329  23.594  0.00  0.00    +0.238 A 
ATOM      4  C   UNL     1       8.835  -1.662  23.477  0.00  0.00    +0.211 A 
ATOM      5  C   UNL     1       7.518  -1.682  23.168  0.00  0.00    +0.181 A 
ATOM      6  O   UNL     1       6.780  -0.544  22.854  0.00  0.00    -0.451 OA
ATOM      7  O   UNL     1      10.665  -0.225  23.990  0.00  0.00    -0.283 OA
ATOM      8  C   UNL     1       7.413   0.678  22.815  0.00  0.00    +0.147 A 
ATOM      9  C   UNL     1       6.656   1.764  22.368  0.00  0.00    +0.092 A 
ATOM     10  C   UNL     1       7.228   3.032  22.334  0.00  0.00    +0.124 A 
ATOM     11  C   UNL     1       8.535   3.246  22.763  0.00  0.00    +0.092 A 
ENDROOT
BRANCH   5  12
ATOM     12  C   UNL     1       6.728  -2.956  23.059  0.00  0.00    +0.025 A 
ATOM     13  C   UNL     1       6.711  -3.701  21.866  0.00  0.00    +0.015 A 
ATOM     14  C   UNL     1       6.097  -4.960  21.810  0.00  0.00    +0.050 A 
ATOM     15  C   UNL     1       5.512  -5.489  22.953  0.00  0.00    +0.158 A 
ATOM     16  C   UNL     1       5.442  -4.751  24.133  0.00  0.00    +0.162 A 
ATOM     17  C   UNL     1       5.999  -3.471  24.154  0.00  0.00    +0.061 A 
BRANCH  15  18
ATOM     18  O   UNL     1       5.024  -6.766  22.910  0.00  0.00    -0.503 OA
ATOM     19  H   UNL     1       4.471  -6.795  22.104  0.00  0.00    +0.292 HD
ENDBRANCH  15  18
BRANCH  16  20
ATOM     20  O   UNL     1       4.836  -5.384  25.188  0.00  0.00    -0.491 OA
ATOM     21  C   UNL     1       5.690  -5.818  26.244  0.00  0.00    +0.277 C 
ENDBRANCH  16  20
ENDBRANCH   5  12
BRANCH   1  23
ATOM     22  C   UNL     1      11.217   3.573  23.360  0.00  0.00    +0.277 C 
ATOM     23  O   UNL     1      10.595   2.321  23.626  0.00  0.00    -0.494 OA
ENDBRANCH   1  23
BRANCH   4  24
ATOM     24  O   UNL     1       9.545  -2.850  23.636  0.00  0.00    -0.488 OA
ATOM     25  C   UNL     1       9.480  -3.514  24.891  0.00  0.00    +0.277 C 
ENDBRANCH   4  24
BRANCH  10  26
ATOM     26  O   UNL     1       6.474   4.068  21.860  0.00  0.00    -0.507 OA
ATOM     27  H   UNL     1       6.214   3.880  20.942  0.00  0.00    +0.292 HD
ENDBRANCH  10  26
TORSDOF 6
ENDMDL
MODEL 5
REMARK VINA RESULT:      -6.4      3.149      8.317
REMARK  Name = 
REMARK  9 active torsions:
REMARK  status: ('A' for Active; 'I' for Inactive)
REMARK    1  A    between atoms: C_1  and  O_2
REMARK    2  A    between atoms: O_2  and  C_3
REMARK    3  A    between atoms: C_5  and  O_25
REMARK    4  A    between atoms: C_11  and  O_23
REMARK    5  A    between atoms: C_12  and  C_14
REMARK    6  A    between atoms: C_16  and  O_21
REMARK    7  A    between atoms: C_17  and  O_20
REMARK    8  A    between atoms: O_21  and  C_22
REMARK    9  A    between atoms: O_23  and  C_24
REMARK                            x       y       z     vdW  Elec       q    Type
REMARK                         _______ _______ _______ _____ _____    ______ ____
ROOT
ATOM      1  C   UNL     1       9.627   5.437  24.153  0.00  0.00    +0.138 A 
ATOM      2  C   UNL     1       9.395   4.046  24.058  0.00  0.00    +0.109 A 
ATOM      3  C   UNL     1       8.098   3.437  24.419  0.00  0.00    +0.238 A 
ATOM      4  C   UNL     1       7.988   1.945  24.347  0.00  0.00    +0.211 A 
ATOM      5  C   UNL     1       9.026   1.255  23.820  0.00  0.00    +0.181 A 
ATOM      6  O   UNL     1      10.228   1.841  23.436  0.00  0.00    -0.451 OA
ATOM      7  O   UNL     1       7.155   4.137  24.766  0.00  0.00    -0.283 OA
ATOM      8  C   UNL     1      10.407   3.193  23.626  0.00  0.00    +0.147 A 
ATOM      9  C   UNL     1      11.678   3.704  23.345  0.00  0.00    +0.092 A 
ATOM     10  C   UNL     1      11.915   5.067  23.485  0.00  0.00    +0.124 A 
ATOM     11  C   UNL     1      10.904   5.939  23.877  0.00  0.00    +0.092 A 
ENDROOT
BRANCH   5  12
ATOM     12  C   UNL     1       9.013  -0.241  23.665  0.00  0.00    +0.025 A 
ATOM     13  C   UNL     1       9.776  -1.067  24.510  0.00  0.00    +0.015 A 
ATOM     14  C   UNL     1       9.651  -2.462  24.461  0.00  0.00    +0.050 A 
ATOM     15  C   UNL     1       8.746  -3.038  23.579  0.00  0.00    +0.158 A 
ATOM     16  C   UNL     1       8.026  -2.260  22.675  0.00  0.00    +0.162 A 
ATOM     17  C   UNL     1       8.213  -0.876  22.690  0.00  0.00    +0.061 A 
BRANCH  15  18
ATOM     18  O   UNL     1       8.552  -4.391  23.630  0.00  0.00    -0.503 OA
ATOM     19  H   UNL     1       7.610  -4.518  23.401  0.00  0.00    +0.292 HD
ENDBRANCH  15  18
BRANCH  16  20
ATOM     20  O   UNL     1       7.170  -2.949  21.856  0.00  0.00    -0.491 OA
ATOM     21  C   UNL     1       5.793  -2.940  22.225  0.00  0.00    +0.277 C 
ENDBRANCH  16  20
ENDBRANCH   5  12
BRANCH   1  23
ATOM     22  C   UNL     1       8.866   7.108  25.675  0.00  0.00    +0.277 C 
ATOM     23  O   UNL     1       8.608   6.251  24.568  0.00  0.00    -0.494 OA
ENDBRANCH   1  23
BRANCH   4  24
ATOM     24  O   UNL     1       6.872   1.277  24.845  0.00  0.00    -0.488 OA
ATOM     25  C   UNL     1       6.806   1.015  26.241  0.00  0.00    +0.277 C 
ENDBRANCH   4  24
BRANCH  10  26
ATOM     26  O   UNL     1      13.176   5.532  23.235  0.00  0.00    -0.507 OA
ATOM     27  H   UNL     1      13.157   6.505  23.204  0.00  0.00    +0.292 HD
ENDBRANCH  10  26
TORSDOF 6
ENDMDL
MODEL 6
REMARK VINA RESULT:      -6.4      2.428      7.634
REMARK  Name = 
REMARK  9 active torsions:
REMARK  status: ('A' for Active; 'I' for Inactive)
REMARK    1  A    between atoms: C_1  and  O_2
REMARK    2  A    between atoms: O_2  and  C_3
REMARK    3  A    between atoms: C_5  and  O_25
REMARK    4  A    between atoms: C_11  and  O_23
REMARK    5  A    between atoms: C_12  and  C_14
REMARK    6  A    between atoms: C_16  and  O_21
REMARK    7  A    between atoms: C_17  and  O_20
REMARK    8  A    between atoms: O_21  and  C_22
REMARK    9  A    between atoms: O_23  and  C_24
REMARK                            x       y       z     vdW  Elec       q    Type
REMARK                         _______ _______ _______ _____ _____    ______ ____
ROOT
ATOM      1  C   UNL     1       8.201   3.438  23.443  0.00  0.00    +0.138 A 
ATOM      2  C   UNL     1       8.167   2.073  23.809  0.00  0.00    +0.109 A 
ATOM      3  C   UNL     1       6.899   1.346  24.025  0.00  0.00    +0.238 A 
ATOM      4  C   UNL     1       6.985  -0.079  24.480  0.00  0.00    +0.211 A 
ATOM      5  C   UNL     1       8.206  -0.660  24.526  0.00  0.00    +0.181 A 
ATOM      6  O   UNL     1       9.394   0.018  24.274  0.00  0.00    -0.451 OA
ATOM      7  O   UNL     1       5.823   1.900  23.839  0.00  0.00    -0.283 OA
ATOM      8  C   UNL     1       9.353   1.365  23.993  0.00  0.00    +0.147 A 
ATOM      9  C   UNL     1      10.582   2.022  23.877  0.00  0.00    +0.092 A 
ATOM     10  C   UNL     1      10.609   3.377  23.564  0.00  0.00    +0.124 A 
ATOM     11  C   UNL     1       9.435   4.089  23.337  0.00  0.00    +0.092 A 
ENDROOT
BRANCH   5  12
ATOM     12  C   UNL     1       8.409  -2.093  24.933  0.00  0.00    +0.025 A 
ATOM     13  C   UNL     1       8.524  -2.456  26.287  0.00  0.00    +0.015 A 
ATOM     14  C   UNL     1       8.565  -3.804  26.672  0.00  0.00    +0.050 A 
ATOM     15  C   UNL     1       8.474  -4.796  25.705  0.00  0.00    +0.158 A 
ATOM     16  C   UNL     1       8.435  -4.478  24.348  0.00  0.00    +0.162 A 
ATOM     17  C   UNL     1       8.462  -3.132  23.978  0.00  0.00    +0.061 A 
BRANCH  15  18
ATOM     18  O   UNL     1       8.396  -6.100  26.109  0.00  0.00    -0.503 OA
ATOM     19  H   UNL     1       8.339  -6.057  27.084  0.00  0.00    +0.292 HD
ENDBRANCH  15  18
BRANCH  16  20
ATOM     20  O   UNL     1       8.349  -5.548  23.495  0.00  0.00    -0.491 OA
ATOM     21  C   UNL     1       7.292  -5.516  22.540  0.00  0.00    +0.277 C 
ENDBRANCH  16  20
ENDBRANCH   5  12
BRANCH   1  23
ATOM     22  C   UNL     1       6.993   5.124  22.266  0.00  0.00    +0.277 C 
ATOM     23  O   UNL     1       7.019   4.102  23.256  0.00  0.00    -0.494 OA
ENDBRANCH   1  23
BRANCH   4  24
ATOM     24  O   UNL     1       5.850  -0.778  24.887  0.00  0.00    -0.488 OA
ATOM     25  C   UNL     1       5.320  -0.514  26.179  0.00  0.00    +0.277 C 
ENDBRANCH   4  24
BRANCH  10  26
ATOM     26  O   UNL     1      11.824   3.998  23.491  0.00  0.00    -0.507 OA
ATOM     27  H   UNL     1      12.361   3.739  24.259  0.00  0.00    +0.292 HD
ENDBRANCH  10  26
TORSDOF 6
ENDMDL
MODEL 7
REMARK VINA RESULT:      -6.4      2.234      3.248
REMARK  Name = 
REMARK  9 active torsions:
REMARK  status: ('A' for Active; 'I' for Inactive)
REMARK    1  A    between atoms: C_1  and  O_2
REMARK    2  A    between atoms: O_2  and  C_3
REMARK    3  A    between atoms: C_5  and  O_25
REMARK    4  A    between atoms: C_11  and  O_23
REMARK    5  A    between atoms: C_12  and  C_14
REMARK    6  A    between atoms: C_16  and  O_21
REMARK    7  A    between atoms: C_17  and  O_20
REMARK    8  A    between atoms: O_21  and  C_22
REMARK    9  A    between atoms: O_23  and  C_24
REMARK                            x       y       z     vdW  Elec       q    Type
REMARK                         _______ _______ _______ _____ _____    ______ ____
ROOT
ATOM      1  C   UNL     1       7.851  -4.450  24.011  0.00  0.00    +0.138 A 
ATOM      2  C   UNL     1       7.896  -3.060  23.760  0.00  0.00    +0.109 A 
ATOM      3  C   UNL     1       9.171  -2.318  23.661  0.00  0.00    +0.238 A 
ATOM      4  C   UNL     1       9.097  -0.835  23.464  0.00  0.00    +0.211 A 
ATOM      5  C   UNL     1       7.882  -0.282  23.241  0.00  0.00    +0.181 A 
ATOM      6  O   UNL     1       6.689  -0.995  23.286  0.00  0.00    -0.451 OA
ATOM      7  O   UNL     1      10.242  -2.905  23.744  0.00  0.00    -0.283 OA
ATOM      8  C   UNL     1       6.717  -2.334  23.608  0.00  0.00    +0.147 A 
ATOM      9  C   UNL     1       5.482  -2.969  23.768  0.00  0.00    +0.092 A 
ATOM     10  C   UNL     1       5.442  -4.328  24.062  0.00  0.00    +0.124 A 
ATOM     11  C   UNL     1       6.610  -5.076  24.177  0.00  0.00    +0.092 A 
ENDROOT
BRANCH   5  12
ATOM     12  C   UNL     1       7.691   1.189  22.994  0.00  0.00    +0.025 A 
ATOM     13  C   UNL     1       7.755   1.722  21.695  0.00  0.00    +0.015 A 
ATOM     14  C   UNL     1       7.432   3.064  21.448  0.00  0.00    +0.050 A 
ATOM     15  C   UNL     1       7.025   3.875  22.500  0.00  0.00    +0.158 A 
ATOM     16  C   UNL     1       7.021   3.405  23.812  0.00  0.00    +0.162 A 
ATOM     17  C   UNL     1       7.410   2.085  24.049  0.00  0.00    +0.061 A 
BRANCH  15  18
ATOM     18  O   UNL     1       6.601   5.145  22.222  0.00  0.00    -0.503 OA
ATOM     19  H   UNL     1       6.520   5.579  23.095  0.00  0.00    +0.292 HD
ENDBRANCH  15  18
BRANCH  16  20
ATOM     20  O   UNL     1       6.603   4.305  24.758  0.00  0.00    -0.491 OA
ATOM     21  C   UNL     1       7.611   4.850  25.607  0.00  0.00    +0.277 C 
ENDBRANCH  16  20
ENDBRANCH   5  12
BRANCH   1  23
ATOM     22  C   UNL     1       9.373  -5.600  25.442  0.00  0.00    +0.277 C 
ATOM     23  O   UNL     1       9.027  -5.138  24.141  0.00  0.00    -0.494 OA
ENDBRANCH   1  23
BRANCH   4  24
ATOM     24  O   UNL     1      10.235  -0.036  23.548  0.00  0.00    -0.488 OA
ATOM     25  C   UNL     1      10.651   0.418  24.830  0.00  0.00    +0.277 C 
ENDBRANCH   4  24
BRANCH  10  26
ATOM     26  O   UNL     1       4.221  -4.914  24.245  0.00  0.00    -0.507 OA
ATOM     27  H   UNL     1       4.278  -5.854  24.001  0.00  0.00    +0.292 HD
ENDBRANCH  10  26
TORSDOF 6
ENDMDL
MODEL 8
REMARK VINA RESULT:      -6.3      2.615      7.365
REMARK  Name = 
REMARK  9 active torsions:
REMARK  status: ('A' for Active; 'I' for Inactive)
REMARK    1  A    between atoms: C_1  and  O_2
REMARK    2  A    between atoms: O_2  and  C_3
REMARK    3  A    between atoms: C_5  and  O_25
REMARK    4  A    between atoms: C_11  and  O_23
REMARK    5  A    between atoms: C_12  and  C_14
REMARK    6  A    between atoms: C_16  and  O_21
REMARK    7  A    between atoms: C_17  and  O_20
REMARK    8  A    between atoms: O_21  and  C_22
REMARK    9  A    between atoms: O_23  and  C_24
REMARK                            x       y       z     vdW  Elec       q    Type
REMARK                         _______ _______ _______ _____ _____    ______ ____
ROOT
ATOM      1  C   UNL     1       7.971   3.446  24.492  0.00  0.00    +0.138 A 
ATOM      2  C   UNL     1       7.682   2.083  24.259  0.00  0.00    +0.109 A 
ATOM      3  C   UNL     1       6.438   1.448  24.742  0.00  0.00    +0.238 A 
ATOM      4  C   UNL     1       6.269  -0.021  24.499  0.00  0.00    +0.211 A 
ATOM      5  C   UNL     1       7.189  -0.649  23.731  0.00  0.00    +0.181 A 
ATOM      6  O   UNL     1       8.334  -0.033  23.237  0.00  0.00    -0.451 OA
ATOM      7  O   UNL     1       5.585   2.107  25.321  0.00  0.00    -0.283 OA
ATOM      8  C   UNL     1       8.585   1.281  23.566  0.00  0.00    +0.147 A 
ATOM      9  C   UNL     1       9.812   1.809  23.154  0.00  0.00    +0.092 A 
ATOM     10  C   UNL     1      10.114   3.139  23.427  0.00  0.00    +0.124 A 
ATOM     11  C   UNL     1       9.205   3.964  24.083  0.00  0.00    +0.092 A 
ENDROOT
BRANCH   5  12
ATOM     12  C   UNL     1       7.102  -2.111  23.391  0.00  0.00    +0.025 A 
ATOM     13  C   UNL     1       6.254  -2.571  22.367  0.00  0.00    +0.015 A 
ATOM     14  C   UNL     1       6.283  -3.910  21.953  0.00  0.00    +0.050 A 
ATOM     15  C   UNL     1       7.176  -4.792  22.548  0.00  0.00    +0.158 A 
ATOM     16  C   UNL     1       7.979  -4.394  23.615  0.00  0.00    +0.162 A 
ATOM     17  C   UNL     1       7.889  -3.074  24.061  0.00  0.00    +0.061 A 
BRANCH  15  18
ATOM     18  O   UNL     1       7.273  -6.062  22.050  0.00  0.00    -0.503 OA
ATOM     19  H   UNL     1       7.446  -5.944  21.095  0.00  0.00    +0.292 HD
ENDBRANCH  15  18
BRANCH  16  20
ATOM     20  O   UNL     1       8.813  -5.360  24.116  0.00  0.00    -0.491 OA
ATOM     21  C   UNL     1       9.528  -5.028  25.304  0.00  0.00    +0.277 C 
ENDBRANCH  16  20
ENDBRANCH   5  12
BRANCH   1  23
ATOM     22  C   UNL     1       7.512   4.910  26.318  0.00  0.00    +0.277 C 
ATOM     23  O   UNL     1       7.057   4.211  25.164  0.00  0.00    -0.494 OA
ENDBRANCH   1  23
BRANCH   4  24
ATOM     24  O   UNL     1       5.223  -0.735  25.080  0.00  0.00    -0.488 OA
ATOM     25  C   UNL     1       5.363  -1.165  26.428  0.00  0.00    +0.277 C 
ENDBRANCH   4  24
BRANCH  10  26
ATOM     26  O   UNL     1      11.334   3.617  23.041  0.00  0.00    -0.507 OA
ATOM     27  H   UNL     1      11.214   4.237  22.300  0.00  0.00    +0.292 HD
ENDBRANCH  10  26
TORSDOF 6
ENDMDL
MODEL 9
REMARK VINA RESULT:      -6.3      1.308      2.084
REMARK  Name = 
REMARK  9 active torsions:
REMARK  status: ('A' for Active; 'I' for Inactive)
REMARK    1  A    between atoms: C_1  and  O_2
REMARK    2  A    between atoms: O_2  and  C_3
REMARK    3  A    between atoms: C_5  and  O_25
REMARK    4  A    between atoms: C_11  and  O_23
REMARK    5  A    between atoms: C_12  and  C_14
REMARK    6  A    between atoms: C_16  and  O_21
REMARK    7  A    between atoms: C_17  and  O_20
REMARK    8  A    between atoms: O_21  and  C_22
REMARK    9  A    between atoms: O_23  and  C_24
REMARK                            x       y       z     vdW  Elec       q    Type
REMARK                         _______ _______ _______ _____ _____    ______ ____
ROOT
ATOM      1  C   UNL     1       6.328  -5.257  24.448  0.00  0.00    +0.138 A 
ATOM      2  C   UNL     1       6.636  -3.904  24.174  0.00  0.00    +0.109 A 
ATOM      3  C   UNL     1       7.021  -2.954  25.237  0.00  0.00    +0.238 A 
ATOM      4  C   UNL     1       7.256  -1.527  24.842  0.00  0.00    +0.211 A 
ATOM      5  C   UNL     1       7.245  -1.223  23.524  0.00  0.00    +0.181 A 
ATOM      6  O   UNL     1       6.929  -2.136  22.522  0.00  0.00    -0.451 OA
ATOM      7  O   UNL     1       7.138  -3.328  26.397  0.00  0.00    -0.283 OA
ATOM      8  C   UNL     1       6.569  -3.418  22.871  0.00  0.00    +0.147 A 
ATOM      9  C   UNL     1       6.136  -4.253  21.837  0.00  0.00    +0.092 A 
ATOM     10  C   UNL     1       5.789  -5.571  22.118  0.00  0.00    +0.124 A 
ATOM     11  C   UNL     1       5.888  -6.083  23.408  0.00  0.00    +0.092 A 
ENDROOT
BRANCH   5  12
ATOM     12  C   UNL     1       7.503   0.165  23.008  0.00  0.00    +0.025 A 
ATOM     13  C   UNL     1       6.447   1.068  22.789  0.00  0.00    +0.015 A 
ATOM     14  C   UNL     1       6.699   2.405  22.450  0.00  0.00    +0.050 A 
ATOM     15  C   UNL     1       8.010   2.850  22.347  0.00  0.00    +0.158 A 
ATOM     16  C   UNL     1       9.082   1.971  22.482  0.00  0.00    +0.162 A 
ATOM     17  C   UNL     1       8.813   0.628  22.753  0.00  0.00    +0.061 A 
BRANCH  15  18
ATOM     18  O   UNL     1       8.235   4.182  22.133  0.00  0.00    -0.503 OA
ATOM     19  H   UNL     1       8.898   4.436  22.806  0.00  0.00    +0.292 HD
ENDBRANCH  15  18
BRANCH  16  20
ATOM     20  O   UNL     1      10.326   2.534  22.353  0.00  0.00    -0.491 OA
ATOM     21  C   UNL     1      10.970   2.934  23.561  0.00  0.00    +0.277 C 
ENDBRANCH  16  20
ENDBRANCH   5  12
BRANCH   1  23
ATOM     22  C   UNL     1       5.273  -6.357  26.281  0.00  0.00    +0.277 C 
ATOM     23  O   UNL     1       6.416  -5.707  25.737  0.00  0.00    -0.494 OA
ENDBRANCH   1  23
BRANCH   4  24
ATOM     24  O   UNL     1       7.437  -0.532  25.799  0.00  0.00    -0.488 OA
ATOM     25  C   UNL     1       8.723  -0.382  26.385  0.00  0.00    +0.277 C 
ENDBRANCH   4  24
BRANCH  10  26
ATOM     26  O   UNL     1       5.337  -6.352  21.092  0.00  0.00    -0.507 OA
ATOM     27  H   UNL     1       6.080  -6.566  20.502  0.00  0.00    +0.292 HD
ENDBRANCH  10  26
TORSDOF 6
ENDMDL
