MODEL 1
REMARK VINA RESULT:      -6.5      0.000      0.000
REMARK  Name = 
REMARK  24 active torsions:
REMARK  status: ('A' for Active; 'I' for Inactive)
REMARK    1  A    between atoms: C_3  and  O_64
REMARK    2  A    between atoms: C_4  and  O_63
REMARK    3  A    between atoms: C_6  and  C_7
REMARK    4  A    between atoms: C_8  and  O_35
REMARK    5  A    between atoms: C_12  and  O_34
REMARK    6  A    between atoms: C_14  and  O_18
REMARK    7  A    between atoms: O_18  and  C_19
REMARK    8  A    between atoms: C_21  and  O_33
REMARK    9  A    between atoms: C_22  and  O_32
REMARK   10  A    between atoms: C_24  and  O_31
REMARK   11  A    between atoms: C_26  and  C_28
REMARK   12  A    between atoms: C_28  and  O_30
REMARK   13  A    between atoms: O_35  and  C_36
REMARK   14  A    between atoms: C_38  and  O_48
REMARK   15  A    between atoms: C_39  and  O_47
REMARK   16  A    between atoms: C_40  and  O_46
REMARK   17  A    between atoms: C_42  and  C_44
REMARK   18  A    between atoms: C_44  and  O_45
REMARK   19  A    between atoms: O_48  and  C_49
REMARK   20  A    between atoms: C_51  and  O_62
REMARK   21  A    between atoms: C_53  and  O_61
REMARK   22  A    between atoms: C_54  and  O_60
REMARK   23  A    between atoms: C_56  and  C_58
REMARK   24  A    between atoms: C_58  and  O_59
REMARK                            x       y       z     vdW  Elec       q    Type
REMARK                         _______ _______ _______ _____ _____    ______ ____
ROOT
ATOM      1  C   UNL     1       7.398  -2.139  23.580  0.00  0.00    +0.181 A 
ATOM      2  O   UNL     1       6.878  -0.964  22.965  0.00  0.00    -0.451 OA
ATOM      3  C   UNL     1       7.443   0.260  23.182  0.00  0.00    +0.147 A 
ATOM      4  C   UNL     1       8.479   0.384  24.078  0.00  0.00    +0.109 A 
ATOM      5  C   UNL     1       9.188   1.579  24.155  0.00  0.00    +0.135 A 
ATOM      6  C   UNL     1       8.781   2.678  23.419  0.00  0.00    +0.092 A 
ATOM      7  C   UNL     1       7.593   2.650  22.680  0.00  0.00    +0.131 A 
ATOM      8  C   UNL     1       8.715  -0.718  25.002  0.00  0.00    +0.238 A 
ATOM      9  O   UNL     1       9.367  -0.440  26.001  0.00  0.00    -0.283 OA
ATOM     10  C   UNL     1       6.960   1.404  22.502  0.00  0.00    +0.093 A 
ATOM     11  C   UNL     1       8.194  -2.093  24.691  0.00  0.00    +0.214 A 
ENDROOT
BRANCH   1  13
ATOM     12  C   UNL     1       6.129  -3.071  21.658  0.00  0.00    +0.015 A 
ATOM     13  C   UNL     1       6.963  -3.333  22.773  0.00  0.00    +0.025 A 
ATOM     14  C   UNL     1       7.344  -4.666  22.948  0.00  0.00    +0.060 A 
ATOM     15  C   UNL     1       6.910  -5.652  22.048  0.00  0.00    +0.159 A 
ATOM     16  C   UNL     1       6.091  -5.355  20.967  0.00  0.00    +0.158 A 
ATOM     17  C   UNL     1       5.675  -4.054  20.770  0.00  0.00    +0.050 A 
BRANCH  16  18
ATOM     18  O   UNL     1       5.734  -6.355  20.111  0.00  0.00    -0.503 OA
ATOM     19  H   UNL     1       5.780  -7.198  20.582  0.00  0.00    +0.292 HD
ENDBRANCH  16  18
BRANCH  15  20
ATOM     20  O   UNL     1       7.327  -6.948  22.215  0.00  0.00    -0.503 OA
ATOM     21  H   UNL     1       8.151  -7.011  21.688  0.00  0.00    +0.292 HD
ENDBRANCH  15  20
ENDBRANCH   1  13
BRANCH   5  22
ATOM     22  O   UNL     1      10.276   1.780  24.961  0.00  0.00    -0.506 OA
ATOM     23  H   UNL     1       9.999   1.622  25.889  0.00  0.00    +0.292 HD
ENDBRANCH   5  22
BRANCH  11  24
ATOM     24  O   UNL     1       8.326  -3.065  25.680  0.00  0.00    -0.453 OA
BRANCH  24  25
ATOM     25  C   UNL     1       7.516  -3.240  26.873  0.00  0.00    +0.340 C 
ATOM     26  O   UNL     1       7.656  -4.599  27.405  0.00  0.00    -0.331 OA
ATOM     27  C   UNL     1       6.619  -5.619  27.249  0.00  0.00    +0.179 C 
ATOM     28  C   UNL     1       5.264  -5.259  26.553  0.00  0.00    +0.177 C 
ATOM     29  C   UNL     1       5.379  -3.919  25.834  0.00  0.00    +0.180 C 
ATOM     30  C   UNL     1       6.026  -2.935  26.822  0.00  0.00    +0.221 C 
BRANCH  29  31
ATOM     31  O   UNL     1       4.141  -3.533  25.263  0.00  0.00    -0.386 OA
ATOM     32  H   UNL     1       4.239  -3.522  24.296  0.00  0.00    +0.210 HD
ENDBRANCH  29  31
BRANCH  28  33
ATOM     33  O   UNL     1       4.153  -5.167  27.470  0.00  0.00    -0.386 OA
ATOM     34  H   UNL     1       3.326  -5.247  26.960  0.00  0.00    +0.210 HD
ENDBRANCH  28  33
BRANCH  27  35
ATOM     35  C   UNL     1       6.322  -6.295  28.618  0.00  0.00    +0.190 C 
BRANCH  35  36
ATOM     36  O   UNL     1       5.568  -7.500  28.509  0.00  0.00    -0.392 OA
ATOM     37  H   UNL     1       4.657  -7.268  28.279  0.00  0.00    +0.210 HD
ENDBRANCH  35  36
ENDBRANCH  27  35
BRANCH  30  38
ATOM     38  O   UNL     1       5.662  -1.608  27.072  0.00  0.00    -0.337 OA
BRANCH  38  39
ATOM     39  C   UNL     1       4.801  -0.728  26.416  0.00  0.00    +0.282 C 
ATOM     40  O   UNL     1       5.548   0.513  26.257  0.00  0.00    -0.341 OA
ATOM     41  C   UNL     1       6.190   0.888  27.497  0.00  0.00    +0.178 C 
ATOM     42  C   UNL     1       5.147   1.133  28.607  0.00  0.00    +0.177 C 
ATOM     43  C   UNL     1       4.046   0.063  28.636  0.00  0.00    +0.179 C 
ATOM     44  C   UNL     1       3.569  -0.380  27.243  0.00  0.00    +0.201 C 
BRANCH  44  45
ATOM     45  O   UNL     1       2.791   0.669  26.641  0.00  0.00    -0.384 OA
ATOM     46  H   UNL     1       2.562   1.294  27.362  0.00  0.00    +0.210 HD
ENDBRANCH  44  45
BRANCH  43  47
ATOM     47  O   UNL     1       2.937   0.541  29.415  0.00  0.00    -0.386 OA
ATOM     48  H   UNL     1       3.336   0.963  30.206  0.00  0.00    +0.210 HD
ENDBRANCH  43  47
BRANCH  42  49
ATOM     49  O   UNL     1       4.511   2.410  28.471  0.00  0.00    -0.386 OA
ATOM     50  H   UNL     1       4.163   2.400  27.554  0.00  0.00    +0.210 HD
ENDBRANCH  42  49
BRANCH  41  51
ATOM     51  C   UNL     1       7.139   2.071  27.283  0.00  0.00    +0.190 C 
BRANCH  51  52
ATOM     52  O   UNL     1       7.443   2.700  28.532  0.00  0.00    -0.392 OA
ATOM     53  H   UNL     1       6.978   3.553  28.555  0.00  0.00    +0.210 HD
ENDBRANCH  51  52
ENDBRANCH  41  51
ENDBRANCH  38  39
ENDBRANCH  30  38
ENDBRANCH  24  25
ENDBRANCH  11  24
BRANCH   7  54
ATOM     54  O   UNL     1       6.995   3.807  22.172  0.00  0.00    -0.461 OA
BRANCH  54  55
ATOM     55  C   UNL     1       7.153   4.955  23.055  0.00  0.00    +0.340 C 
ATOM     56  O   UNL     1       6.595   4.658  24.349  0.00  0.00    -0.322 OA
ATOM     57  C   UNL     1       5.157   4.706  24.326  0.00  0.00    +0.261 C 
ATOM     58  C   UNL     1       4.715   6.155  24.139  0.00  0.00    +0.185 C 
ATOM     59  C   UNL     1       5.158   6.595  22.735  0.00  0.00    +0.180 C 
ATOM     60  C   UNL     1       6.657   6.333  22.527  0.00  0.00    +0.214 C 
BRANCH  60  61
ATOM     61  O   UNL     1       7.060   6.579  21.179  0.00  0.00    -0.383 OA
ATOM     62  H   UNL     1       7.884   6.081  21.019  0.00  0.00    +0.210 HD
ENDBRANCH  60  61
BRANCH  59  63
ATOM     63  O   UNL     1       4.387   5.970  21.705  0.00  0.00    -0.386 OA
ATOM     64  H   UNL     1       3.464   6.279  21.749  0.00  0.00    +0.210 HD
ENDBRANCH  59  63
BRANCH  58  65
ATOM     65  O   UNL     1       5.380   6.974  25.116  0.00  0.00    -0.386 OA
ATOM     66  H   UNL     1       5.038   6.743  25.998  0.00  0.00    +0.210 HD
ENDBRANCH  58  65
BRANCH  57  67
ATOM     67  C   UNL     1       4.587   4.112  25.605  0.00  0.00    +0.337 C 
ATOM     68  O   UNL     1       4.526   4.701  26.676  0.00  0.00    -0.248 OA
BRANCH  67  69
ATOM     69  O   UNL     1       4.071   2.872  25.411  0.00  0.00    -0.479 OA
ATOM     70  H   UNL     1       3.756   2.525  26.278  0.00  0.00    +0.295 HD
ENDBRANCH  67  69
ENDBRANCH  57  67
ENDBRANCH  54  55
ENDBRANCH   7  54
TORSDOF 24
ENDMDL
MODEL 2
REMARK VINA RESULT:      -6.5      2.132      9.166
REMARK  Name = 
REMARK  24 active torsions:
REMARK  status: ('A' for Active; 'I' for Inactive)
REMARK    1  A    between atoms: C_3  and  O_64
REMARK    2  A    between atoms: C_4  and  O_63
REMARK    3  A    between atoms: C_6  and  C_7
REMARK    4  A    between atoms: C_8  and  O_35
REMARK    5  A    between atoms: C_12  and  O_34
REMARK    6  A    between atoms: C_14  and  O_18
REMARK    7  A    between atoms: O_18  and  C_19
REMARK    8  A    between atoms: C_21  and  O_33
REMARK    9  A    between atoms: C_22  and  O_32
REMARK   10  A    between atoms: C_24  and  O_31
REMARK   11  A    between atoms: C_26  and  C_28
REMARK   12  A    between atoms: C_28  and  O_30
REMARK   13  A    between atoms: O_35  and  C_36
REMARK   14  A    between atoms: C_38  and  O_48
REMARK   15  A    between atoms: C_39  and  O_47
REMARK   16  A    between atoms: C_40  and  O_46
REMARK   17  A    between atoms: C_42  and  C_44
REMARK   18  A    between atoms: C_44  and  O_45
REMARK   19  A    between atoms: O_48  and  C_49
REMARK   20  A    between atoms: C_51  and  O_62
REMARK   21  A    between atoms: C_53  and  O_61
REMARK   22  A    between atoms: C_54  and  O_60
REMARK   23  A    between atoms: C_56  and  C_58
REMARK   24  A    between atoms: C_58  and  O_59
REMARK                            x       y       z     vdW  Elec       q    Type
REMARK                         _______ _______ _______ _____ _____    ______ ____
ROOT
ATOM      1  C   UNL     1       4.903   2.687  25.291  0.00  0.00    +0.181 A 
ATOM      2  O   UNL     1       4.506   1.319  25.272  0.00  0.00    -0.451 OA
ATOM      3  C   UNL     1       4.633   0.527  26.377  0.00  0.00    +0.147 A 
ATOM      4  C   UNL     1       5.235   1.026  27.508  0.00  0.00    +0.109 A 
ATOM      5  C   UNL     1       5.188   0.300  28.694  0.00  0.00    +0.135 A 
ATOM      6  C   UNL     1       4.641  -0.971  28.711  0.00  0.00    +0.092 A 
ATOM      7  C   UNL     1       4.234  -1.596  27.526  0.00  0.00    +0.131 A 
ATOM      8  C   UNL     1       6.008   2.255  27.382  0.00  0.00    +0.238 A 
ATOM      9  O   UNL     1       6.817   2.465  28.277  0.00  0.00    -0.283 OA
ATOM     10  C   UNL     1       4.162  -0.808  26.360  0.00  0.00    +0.093 A 
ATOM     11  C   UNL     1       5.771   3.184  26.224  0.00  0.00    +0.214 A 
ENDROOT
BRANCH   1  13
ATOM     12  C   UNL     1       2.852   2.983  23.920  0.00  0.00    +0.015 A 
ATOM     13  C   UNL     1       4.175   3.412  24.190  0.00  0.00    +0.025 A 
ATOM     14  C   UNL     1       4.623   4.509  23.451  0.00  0.00    +0.060 A 
ATOM     15  C   UNL     1       3.779   5.123  22.512  0.00  0.00    +0.159 A 
ATOM     16  C   UNL     1       2.487   4.672  22.275  0.00  0.00    +0.158 A 
ATOM     17  C   UNL     1       2.014   3.578  22.969  0.00  0.00    +0.050 A 
BRANCH  16  18
ATOM     18  O   UNL     1       1.708   5.337  21.373  0.00  0.00    -0.503 OA
ATOM     19  H   UNL     1       2.281   5.828  20.770  0.00  0.00    +0.292 HD
ENDBRANCH  16  18
BRANCH  15  20
ATOM     20  O   UNL     1       4.223   6.223  21.824  0.00  0.00    -0.503 OA
ATOM     21  H   UNL     1       3.446   6.818  21.783  0.00  0.00    +0.292 HD
ENDBRANCH  15  20
ENDBRANCH   1  13
BRANCH   5  22
ATOM     22  O   UNL     1       5.694   0.739  29.887  0.00  0.00    -0.506 OA
ATOM     23  H   UNL     1       4.994   1.254  30.343  0.00  0.00    +0.292 HD
ENDBRANCH   5  22
BRANCH  11  24
ATOM     24  O   UNL     1       6.640   4.263  26.083  0.00  0.00    -0.453 OA
BRANCH  24  25
ATOM     25  C   UNL     1       8.065   4.231  25.801  0.00  0.00    +0.340 C 
ATOM     26  O   UNL     1       8.700   5.499  26.174  0.00  0.00    -0.331 OA
ATOM     27  C   UNL     1       9.111   6.497  25.186  0.00  0.00    +0.179 C 
ATOM     28  C   UNL     1       8.945   6.203  23.658  0.00  0.00    +0.177 C 
ATOM     29  C   UNL     1       8.044   4.990  23.449  0.00  0.00    +0.180 C 
ATOM     30  C   UNL     1       8.546   3.889  24.398  0.00  0.00    +0.221 C 
BRANCH  29  31
ATOM     31  O   UNL     1       7.943   4.654  22.076  0.00  0.00    -0.386 OA
ATOM     32  H   UNL     1       8.431   3.827  21.925  0.00  0.00    +0.210 HD
ENDBRANCH  29  31
BRANCH  28  33
ATOM     33  O   UNL     1      10.193   5.938  22.985  0.00  0.00    -0.386 OA
ATOM     34  H   UNL     1      10.839   5.626  23.645  0.00  0.00    +0.210 HD
ENDBRANCH  28  33
BRANCH  27  35
ATOM     35  C   UNL     1      10.573   6.950  25.460  0.00  0.00    +0.190 C 
BRANCH  35  36
ATOM     36  O   UNL     1      10.933   6.920  26.840  0.00  0.00    -0.392 OA
ATOM     37  H   UNL     1      10.661   6.066  27.204  0.00  0.00    +0.210 HD
ENDBRANCH  35  36
ENDBRANCH  27  35
BRANCH  30  38
ATOM     38  O   UNL     1       8.714   2.530  24.121  0.00  0.00    -0.337 OA
BRANCH  38  39
ATOM     39  C   UNL     1       7.819   1.527  23.748  0.00  0.00    +0.282 C 
ATOM     40  O   UNL     1       7.776   0.596  24.868  0.00  0.00    -0.341 OA
ATOM     41  C   UNL     1       9.112   0.270  25.315  0.00  0.00    +0.178 C 
ATOM     42  C   UNL     1       9.918  -0.417  24.194  0.00  0.00    +0.177 C 
ATOM     43  C   UNL     1       9.739   0.263  22.829  0.00  0.00    +0.179 C 
ATOM     44  C   UNL     1       8.300   0.723  22.545  0.00  0.00    +0.201 C 
BRANCH  44  45
ATOM     45  O   UNL     1       7.467  -0.422  22.291  0.00  0.00    -0.384 OA
ATOM     46  H   UNL     1       6.745  -0.393  22.954  0.00  0.00    +0.210 HD
ENDBRANCH  44  45
BRANCH  43  47
ATOM     47  O   UNL     1      10.196  -0.619  21.792  0.00  0.00    -0.386 OA
ATOM     48  H   UNL     1       9.416  -1.163  21.549  0.00  0.00    +0.210 HD
ENDBRANCH  43  47
BRANCH  42  49
ATOM     49  O   UNL     1       9.558  -1.796  24.045  0.00  0.00    -0.386 OA
ATOM     50  H   UNL     1      10.248  -2.153  23.445  0.00  0.00    +0.210 HD
ENDBRANCH  42  49
BRANCH  41  51
ATOM     51  C   UNL     1       9.068  -0.539  26.616  0.00  0.00    +0.190 C 
BRANCH  51  52
ATOM     52  O   UNL     1       7.822  -1.234  26.731  0.00  0.00    -0.392 OA
ATOM     53  H   UNL     1       7.111  -0.596  26.550  0.00  0.00    +0.210 HD
ENDBRANCH  51  52
ENDBRANCH  41  51
ENDBRANCH  38  39
ENDBRANCH  30  38
ENDBRANCH  24  25
ENDBRANCH  11  24
BRANCH   7  54
ATOM     54  O   UNL     1       3.959  -2.964  27.453  0.00  0.00    -0.461 OA
BRANCH  54  55
ATOM     55  C   UNL     1       5.114  -3.788  27.787  0.00  0.00    +0.340 C 
ATOM     56  O   UNL     1       6.184  -3.531  26.858  0.00  0.00    -0.322 OA
ATOM     57  C   UNL     1       5.939  -4.157  25.586  0.00  0.00    +0.261 C 
ATOM     58  C   UNL     1       6.049  -5.670  25.752  0.00  0.00    +0.185 C 
ATOM     59  C   UNL     1       4.890  -6.120  26.655  0.00  0.00    +0.180 C 
ATOM     60  C   UNL     1       4.872  -5.315  27.964  0.00  0.00    +0.214 C 
BRANCH  60  61
ATOM     61  O   UNL     1       3.711  -5.598  28.747  0.00  0.00    -0.383 OA
ATOM     62  H   UNL     1       3.632  -6.568  28.822  0.00  0.00    +0.210 HD
ENDBRANCH  60  61
BRANCH  59  63
ATOM     63  O   UNL     1       3.626  -6.039  25.993  0.00  0.00    -0.386 OA
ATOM     64  H   UNL     1       3.528  -5.164  25.573  0.00  0.00    +0.210 HD
ENDBRANCH  59  63
BRANCH  58  65
ATOM     65  O   UNL     1       7.294  -5.978  26.402  0.00  0.00    -0.386 OA
ATOM     66  H   UNL     1       7.971  -5.355  26.084  0.00  0.00    +0.210 HD
ENDBRANCH  58  65
BRANCH  57  67
ATOM     67  C   UNL     1       6.919  -3.640  24.544  0.00  0.00    +0.337 C 
ATOM     68  O   UNL     1       7.717  -4.339  23.936  0.00  0.00    -0.248 OA
BRANCH  67  69
ATOM     69  O   UNL     1       6.757  -2.315  24.298  0.00  0.00    -0.479 OA
ATOM     70  H   UNL     1       7.646  -1.895  24.243  0.00  0.00    +0.295 HD
ENDBRANCH  67  69
ENDBRANCH  57  67
ENDBRANCH  54  55
ENDBRANCH   7  54
TORSDOF 24
ENDMDL
MODEL 3
REMARK VINA RESULT:      -6.0      2.143      9.187
REMARK  Name = 
REMARK  24 active torsions:
REMARK  status: ('A' for Active; 'I' for Inactive)
REMARK    1  A    between atoms: C_3  and  O_64
REMARK    2  A    between atoms: C_4  and  O_63
REMARK    3  A    between atoms: C_6  and  C_7
REMARK    4  A    between atoms: C_8  and  O_35
REMARK    5  A    between atoms: C_12  and  O_34
REMARK    6  A    between atoms: C_14  and  O_18
REMARK    7  A    between atoms: O_18  and  C_19
REMARK    8  A    between atoms: C_21  and  O_33
REMARK    9  A    between atoms: C_22  and  O_32
REMARK   10  A    between atoms: C_24  and  O_31
REMARK   11  A    between atoms: C_26  and  C_28
REMARK   12  A    between atoms: C_28  and  O_30
REMARK   13  A    between atoms: O_35  and  C_36
REMARK   14  A    between atoms: C_38  and  O_48
REMARK   15  A    between atoms: C_39  and  O_47
REMARK   16  A    between atoms: C_40  and  O_46
REMARK   17  A    between atoms: C_42  and  C_44
REMARK   18  A    between atoms: C_44  and  O_45
REMARK   19  A    between atoms: O_48  and  C_49
REMARK   20  A    between atoms: C_51  and  O_62
REMARK   21  A    between atoms: C_53  and  O_61
REMARK   22  A    between atoms: C_54  and  O_60
REMARK   23  A    between atoms: C_56  and  C_58
REMARK   24  A    between atoms: C_58  and  O_59
REMARK                            x       y       z     vdW  Elec       q    Type
REMARK                         _______ _______ _______ _____ _____    ______ ____
ROOT
ATOM      1  C   UNL     1       5.554   0.468  27.544  0.00  0.00    +0.181 A 
ATOM      2  O   UNL     1       4.795  -0.712  27.301  0.00  0.00    -0.451 OA
ATOM      3  C   UNL     1       5.404  -1.913  27.073  0.00  0.00    +0.147 A 
ATOM      4  C   UNL     1       6.774  -1.977  26.989  0.00  0.00    +0.109 A 
ATOM      5  C   UNL     1       7.408  -3.216  26.959  0.00  0.00    +0.135 A 
ATOM      6  C   UNL     1       6.661  -4.379  26.896  0.00  0.00    +0.092 A 
ATOM      7  C   UNL     1       5.270  -4.334  26.744  0.00  0.00    +0.131 A 
ATOM      8  C   UNL     1       7.505  -0.729  26.812  0.00  0.00    +0.238 A 
ATOM      9  O   UNL     1       8.643  -0.839  26.372  0.00  0.00    -0.283 OA
ATOM     10  C   UNL     1       4.632  -3.088  26.910  0.00  0.00    +0.093 A 
ATOM     11  C   UNL     1       6.868   0.581  27.184  0.00  0.00    +0.214 A 
ENDROOT
BRANCH   1  13
ATOM     12  C   UNL     1       3.289   1.199  28.256  0.00  0.00    +0.015 A 
ATOM     13  C   UNL     1       4.681   1.456  28.273  0.00  0.00    +0.025 A 
ATOM     14  C   UNL     1       5.088   2.559  29.028  0.00  0.00    +0.060 A 
ATOM     15  C   UNL     1       4.143   3.335  29.717  0.00  0.00    +0.159 A 
ATOM     16  C   UNL     1       2.784   3.051  29.675  0.00  0.00    +0.158 A 
ATOM     17  C   UNL     1       2.339   1.982  28.923  0.00  0.00    +0.050 A 
BRANCH  16  18
ATOM     18  O   UNL     1       1.923   3.824  30.397  0.00  0.00    -0.503 OA
ATOM     19  H   UNL     1       1.859   4.692  29.978  0.00  0.00    +0.292 HD
ENDBRANCH  16  18
BRANCH  15  20
ATOM     20  O   UNL     1       4.566   4.389  30.485  0.00  0.00    -0.503 OA
ATOM     21  H   UNL     1       5.360   4.053  30.948  0.00  0.00    +0.292 HD
ENDBRANCH  15  20
ENDBRANCH   1  13
BRANCH   5  22
ATOM     22  O   UNL     1       8.766  -3.387  26.945  0.00  0.00    -0.506 OA
ATOM     23  H   UNL     1       9.157  -2.670  26.400  0.00  0.00    +0.292 HD
ENDBRANCH   5  22
BRANCH  11  24
ATOM     24  O   UNL     1       7.561   1.744  26.856  0.00  0.00    -0.453 OA
BRANCH  24  25
ATOM     25  C   UNL     1       7.822   2.284  25.533  0.00  0.00    +0.340 C 
ATOM     26  O   UNL     1       8.116   3.719  25.602  0.00  0.00    -0.331 OA
ATOM     27  C   UNL     1       7.151   4.742  25.200  0.00  0.00    +0.179 C 
ATOM     28  C   UNL     1       5.767   4.324  24.602  0.00  0.00    +0.177 C 
ATOM     29  C   UNL     1       5.515   2.839  24.843  0.00  0.00    +0.180 C 
ATOM     30  C   UNL     1       6.794   2.094  24.427  0.00  0.00    +0.221 C 
BRANCH  29  31
ATOM     31  O   UNL     1       4.304   2.418  24.240  0.00  0.00    -0.386 OA
ATOM     32  H   UNL     1       4.076   1.540  24.589  0.00  0.00    +0.210 HD
ENDBRANCH  29  31
BRANCH  28  33
ATOM     33  O   UNL     1       5.660   4.559  23.183  0.00  0.00    -0.386 OA
ATOM     34  H   UNL     1       5.743   3.704  22.722  0.00  0.00    +0.210 HD
ENDBRANCH  28  33
BRANCH  27  35
ATOM     35  C   UNL     1       7.827   5.769  24.247  0.00  0.00    +0.190 C 
BRANCH  35  36
ATOM     36  O   UNL     1       8.478   5.170  23.129  0.00  0.00    -0.392 OA
ATOM     37  H   UNL     1       9.427   5.131  23.317  0.00  0.00    +0.210 HD
ENDBRANCH  35  36
ENDBRANCH  27  35
BRANCH  30  38
ATOM     38  O   UNL     1       6.895   0.910  23.691  0.00  0.00    -0.337 OA
BRANCH  38  39
ATOM     39  C   UNL     1       7.004   0.657  22.324  0.00  0.00    +0.282 C 
ATOM     40  O   UNL     1       7.488  -0.713  22.211  0.00  0.00    -0.341 OA
ATOM     41  C   UNL     1       8.607  -0.936  23.099  0.00  0.00    +0.178 C 
ATOM     42  C   UNL     1       9.790  -0.013  22.740  0.00  0.00    +0.177 C 
ATOM     43  C   UNL     1       9.353   1.429  22.448  0.00  0.00    +0.179 C 
ATOM     44  C   UNL     1       8.047   1.534  21.642  0.00  0.00    +0.201 C 
BRANCH  44  45
ATOM     45  O   UNL     1       8.286   1.133  20.280  0.00  0.00    -0.384 OA
ATOM     46  H   UNL     1       8.351   1.959  19.755  0.00  0.00    +0.210 HD
ENDBRANCH  44  45
BRANCH  43  47
ATOM     47  O   UNL     1      10.415   2.122  21.773  0.00  0.00    -0.386 OA
ATOM     48  H   UNL     1      11.232   1.625  21.992  0.00  0.00    +0.210 HD
ENDBRANCH  43  47
BRANCH  42  49
ATOM     49  O   UNL     1      10.513  -0.490  21.600  0.00  0.00    -0.386 OA
ATOM     50  H   UNL     1      10.826  -1.378  21.877  0.00  0.00    +0.210 HD
ENDBRANCH  42  49
BRANCH  41  51
ATOM     51  C   UNL     1       8.985  -2.420  23.138  0.00  0.00    +0.190 C 
BRANCH  51  52
ATOM     52  O   UNL     1       9.728  -2.717  24.324  0.00  0.00    -0.392 OA
ATOM     53  H   UNL     1       9.755  -3.684  24.422  0.00  0.00    +0.210 HD
ENDBRANCH  51  52
ENDBRANCH  41  51
ENDBRANCH  38  39
ENDBRANCH  30  38
ENDBRANCH  24  25
ENDBRANCH  11  24
BRANCH   7  54
ATOM     54  O   UNL     1       4.516  -5.453  26.382  0.00  0.00    -0.461 OA
BRANCH  54  55
ATOM     55  C   UNL     1       5.087  -6.174  25.253  0.00  0.00    +0.340 C 
ATOM     56  O   UNL     1       5.656  -5.242  24.314  0.00  0.00    -0.322 OA
ATOM     57  C   UNL     1       4.636  -4.580  23.545  0.00  0.00    +0.261 C 
ATOM     58  C   UNL     1       3.992  -5.593  22.602  0.00  0.00    +0.185 C 
ATOM     59  C   UNL     1       3.245  -6.620  23.468  0.00  0.00    +0.180 C 
ATOM     60  C   UNL     1       4.176  -7.214  24.537  0.00  0.00    +0.214 C 
BRANCH  60  61
ATOM     61  O   UNL     1       3.467  -8.045  25.457  0.00  0.00    -0.383 OA
ATOM     62  H   UNL     1       3.017  -8.742  24.943  0.00  0.00    +0.210 HD
ENDBRANCH  60  61
BRANCH  59  63
ATOM     63  O   UNL     1       2.072  -6.067  24.069  0.00  0.00    -0.386 OA
ATOM     64  H   UNL     1       1.298  -6.619  23.853  0.00  0.00    +0.210 HD
ENDBRANCH  59  63
BRANCH  58  65
ATOM     65  O   UNL     1       5.028  -6.268  21.868  0.00  0.00    -0.386 OA
ATOM     66  H   UNL     1       5.455  -6.914  22.458  0.00  0.00    +0.210 HD
ENDBRANCH  58  65
BRANCH  57  67
ATOM     67  C   UNL     1       5.228  -3.407  22.779  0.00  0.00    +0.337 C 
ATOM     68  O   UNL     1       5.459  -3.409  21.578  0.00  0.00    -0.248 OA
BRANCH  67  69
ATOM     69  O   UNL     1       5.399  -2.314  23.564  0.00  0.00    -0.479 OA
ATOM     70  H   UNL     1       4.522  -1.890  23.707  0.00  0.00    +0.295 HD
ENDBRANCH  67  69
ENDBRANCH  57  67
ENDBRANCH  54  55
ENDBRANCH   7  54
TORSDOF 24
ENDMDL
MODEL 4
REMARK VINA RESULT:      -5.7      2.026      5.440
REMARK  Name = 
REMARK  24 active torsions:
REMARK  status: ('A' for Active; 'I' for Inactive)
REMARK    1  A    between atoms: C_3  and  O_64
REMARK    2  A    between atoms: C_4  and  O_63
REMARK    3  A    between atoms: C_6  and  C_7
REMARK    4  A    between atoms: C_8  and  O_35
REMARK    5  A    between atoms: C_12  and  O_34
REMARK    6  A    between atoms: C_14  and  O_18
REMARK    7  A    between atoms: O_18  and  C_19
REMARK    8  A    between atoms: C_21  and  O_33
REMARK    9  A    between atoms: C_22  and  O_32
REMARK   10  A    between atoms: C_24  and  O_31
REMARK   11  A    between atoms: C_26  and  C_28
REMARK   12  A    between atoms: C_28  and  O_30
REMARK   13  A    between atoms: O_35  and  C_36
REMARK   14  A    between atoms: C_38  and  O_48
REMARK   15  A    between atoms: C_39  and  O_47
REMARK   16  A    between atoms: C_40  and  O_46
REMARK   17  A    between atoms: C_42  and  C_44
REMARK   18  A    between atoms: C_44  and  O_45
REMARK   19  A    between atoms: O_48  and  C_49
REMARK   20  A    between atoms: C_51  and  O_62
REMARK   21  A    between atoms: C_53  and  O_61
REMARK   22  A    between atoms: C_54  and  O_60
REMARK   23  A    between atoms: C_56  and  C_58
REMARK   24  A    between atoms: C_58  and  O_59
REMARK                            x       y       z     vdW  Elec       q    Type
REMARK                         _______ _______ _______ _____ _____    ______ ____
ROOT
ATOM      1  C   UNL     1       6.819  -1.155  25.887  0.00  0.00    +0.181 A 
ATOM      2  O   UNL     1       7.061   0.247  25.825  0.00  0.00    -0.451 OA
ATOM      3  C   UNL     1       7.733   0.805  24.775  0.00  0.00    +0.147 A 
ATOM      4  C   UNL     1       8.266  -0.003  23.799  0.00  0.00    +0.109 A 
ATOM      5  C   UNL     1       8.772   0.562  22.633  0.00  0.00    +0.135 A 
ATOM      6  C   UNL     1       8.848   1.938  22.502  0.00  0.00    +0.092 A 
ATOM      7  C   UNL     1       8.531   2.782  23.574  0.00  0.00    +0.131 A 
ATOM      8  C   UNL     1       8.385  -1.427  24.085  0.00  0.00    +0.238 A 
ATOM      9  O   UNL     1       9.180  -2.042  23.385  0.00  0.00    -0.283 OA
ATOM     10  C   UNL     1       7.897   2.209  24.694  0.00  0.00    +0.093 A 
ATOM     11  C   UNL     1       7.547  -2.057  25.162  0.00  0.00    +0.214 A 
ENDROOT
BRANCH   1  13
ATOM     12  C   UNL     1       4.482  -0.635  26.552  0.00  0.00    +0.015 A 
ATOM     13  C   UNL     1       5.648  -1.398  26.803  0.00  0.00    +0.025 A 
ATOM     14  C   UNL     1       5.549  -2.342  27.828  0.00  0.00    +0.060 A 
ATOM     15  C   UNL     1       4.347  -2.496  28.537  0.00  0.00    +0.159 A 
ATOM     16  C   UNL     1       3.225  -1.726  28.261  0.00  0.00    +0.158 A 
ATOM     17  C   UNL     1       3.288  -0.768  27.270  0.00  0.00    +0.050 A 
BRANCH  16  18
ATOM     18  O   UNL     1       2.078  -1.952  28.964  0.00  0.00    -0.503 OA
ATOM     19  H   UNL     1       2.275  -2.551  29.697  0.00  0.00    +0.292 HD
ENDBRANCH  16  18
BRANCH  15  20
ATOM     20  O   UNL     1       4.258  -3.455  29.513  0.00  0.00    -0.503 OA
ATOM     21  H   UNL     1       4.733  -4.228  29.143  0.00  0.00    +0.292 HD
ENDBRANCH  15  20
ENDBRANCH   1  13
BRANCH   5  22
ATOM     22  O   UNL     1       9.259  -0.157  21.575  0.00  0.00    -0.506 OA
ATOM     23  H   UNL     1       8.940   0.265  20.749  0.00  0.00    +0.292 HD
ENDBRANCH   5  22
BRANCH  11  24
ATOM     24  O   UNL     1       7.813  -3.386  25.483  0.00  0.00    -0.453 OA
BRANCH  24  25
ATOM     25  C   UNL     1       7.178  -4.578  24.949  0.00  0.00    +0.340 C 
ATOM     26  O   UNL     1       7.623  -4.838  23.576  0.00  0.00    -0.331 OA
ATOM     27  C   UNL     1       6.784  -4.566  22.410  0.00  0.00    +0.179 C 
ATOM     28  C   UNL     1       5.321  -4.042  22.600  0.00  0.00    +0.177 C 
ATOM     29  C   UNL     1       5.110  -3.579  24.037  0.00  0.00    +0.180 C 
ATOM     30  C   UNL     1       5.660  -4.686  24.951  0.00  0.00    +0.221 C 
BRANCH  29  31
ATOM     31  O   UNL     1       3.769  -3.175  24.256  0.00  0.00    -0.386 OA
ATOM     32  H   UNL     1       3.719  -2.210  24.156  0.00  0.00    +0.210 HD
ENDBRANCH  29  31
BRANCH  28  33
ATOM     33  O   UNL     1       4.314  -5.034  22.310  0.00  0.00    -0.386 OA
ATOM     34  H   UNL     1       3.581  -4.600  21.836  0.00  0.00    +0.210 HD
ENDBRANCH  28  33
BRANCH  27  35
ATOM     35  C   UNL     1       6.762  -5.802  21.466  0.00  0.00    +0.190 C 
BRANCH  35  36
ATOM     36  O   UNL     1       6.200  -6.969  22.065  0.00  0.00    -0.392 OA
ATOM     37  H   UNL     1       6.214  -7.681  21.410  0.00  0.00    +0.210 HD
ENDBRANCH  35  36
ENDBRANCH  27  35
BRANCH  30  38
ATOM     38  O   UNL     1       5.083  -5.202  26.115  0.00  0.00    -0.337 OA
BRANCH  38  39
ATOM     39  C   UNL     1       5.253  -6.407  26.797  0.00  0.00    +0.282 C 
ATOM     40  O   UNL     1       4.596  -7.421  25.982  0.00  0.00    -0.341 OA
ATOM     41  C   UNL     1       3.281  -6.978  25.575  0.00  0.00    +0.178 C 
ATOM     42  C   UNL     1       2.376  -6.733  26.800  0.00  0.00    +0.177 C 
ATOM     43  C   UNL     1       3.094  -5.981  27.930  0.00  0.00    +0.179 C 
ATOM     44  C   UNL     1       4.550  -6.426  28.149  0.00  0.00    +0.201 C 
BRANCH  44  45
ATOM     45  O   UNL     1       4.571  -7.732  28.753  0.00  0.00    -0.384 OA
ATOM     46  H   UNL     1       4.515  -8.379  28.018  0.00  0.00    +0.210 HD
ENDBRANCH  44  45
BRANCH  43  47
ATOM     47  O   UNL     1       2.341  -6.116  29.146  0.00  0.00    -0.386 OA
ATOM     48  H   UNL     1       2.995  -6.013  29.871  0.00  0.00    +0.210 HD
ENDBRANCH  43  47
BRANCH  42  49
ATOM     49  O   UNL     1       1.869  -7.958  27.343  0.00  0.00    -0.386 OA
ATOM     50  H   UNL     1       2.177  -7.944  28.275  0.00  0.00    +0.210 HD
ENDBRANCH  42  49
BRANCH  41  51
ATOM     51  C   UNL     1       2.673  -7.944  24.554  0.00  0.00    +0.190 C 
BRANCH  51  52
ATOM     52  O   UNL     1       2.692  -7.366  23.245  0.00  0.00    -0.392 OA
ATOM     53  H   UNL     1       1.820  -7.518  22.842  0.00  0.00    +0.210 HD
ENDBRANCH  51  52
ENDBRANCH  41  51
ENDBRANCH  38  39
ENDBRANCH  30  38
ENDBRANCH  24  25
ENDBRANCH  11  24
BRANCH   7  54
ATOM     54  O   UNL     1       8.871   4.136  23.590  0.00  0.00    -0.461 OA
BRANCH  54  55
ATOM     55  C   UNL     1       7.859   4.962  24.236  0.00  0.00    +0.340 C 
ATOM     56  O   UNL     1       6.564   4.346  24.098  0.00  0.00    -0.322 OA
ATOM     57  C   UNL     1       6.040   4.512  22.769  0.00  0.00    +0.261 C 
ATOM     58  C   UNL     1       5.692   5.983  22.556  0.00  0.00    +0.185 C 
ATOM     59  C   UNL     1       7.008   6.777  22.576  0.00  0.00    +0.180 C 
ATOM     60  C   UNL     1       7.813   6.469  23.848  0.00  0.00    +0.214 C 
BRANCH  60  61
ATOM     61  O   UNL     1       9.111   7.064  23.813  0.00  0.00    -0.383 OA
ATOM     62  H   UNL     1       9.179   7.676  24.571  0.00  0.00    +0.210 HD
ENDBRANCH  60  61
BRANCH  59  63
ATOM     63  O   UNL     1       7.797   6.542  21.407  0.00  0.00    -0.386 OA
ATOM     64  H   UNL     1       7.262   6.702  20.609  0.00  0.00    +0.210 HD
ENDBRANCH  59  63
BRANCH  58  65
ATOM     65  O   UNL     1       4.864   6.427  23.644  0.00  0.00    -0.386 OA
ATOM     66  H   UNL     1       3.964   6.079  23.511  0.00  0.00    +0.210 HD
ENDBRANCH  58  65
BRANCH  57  67
ATOM     67  C   UNL     1       4.827   3.619  22.562  0.00  0.00    +0.337 C 
ATOM     68  O   UNL     1       3.699   4.027  22.322  0.00  0.00    -0.248 OA
BRANCH  67  69
ATOM     69  O   UNL     1       5.147   2.301  22.592  0.00  0.00    -0.479 OA
ATOM     70  H   UNL     1       5.847   2.164  23.272  0.00  0.00    +0.295 HD
ENDBRANCH  67  69
ENDBRANCH  57  67
ENDBRANCH  54  55
ENDBRANCH   7  54
TORSDOF 24
ENDMDL
MODEL 5
REMARK VINA RESULT:      -5.5      2.686      9.693
REMARK  Name = 
REMARK  24 active torsions:
REMARK  status: ('A' for Active; 'I' for Inactive)
REMARK    1  A    between atoms: C_3  and  O_64
REMARK    2  A    between atoms: C_4  and  O_63
REMARK    3  A    between atoms: C_6  and  C_7
REMARK    4  A    between atoms: C_8  and  O_35
REMARK    5  A    between atoms: C_12  and  O_34
REMARK    6  A    between atoms: C_14  and  O_18
REMARK    7  A    between atoms: O_18  and  C_19
REMARK    8  A    between atoms: C_21  and  O_33
REMARK    9  A    between atoms: C_22  and  O_32
REMARK   10  A    between atoms: C_24  and  O_31
REMARK   11  A    between atoms: C_26  and  C_28
REMARK   12  A    between atoms: C_28  and  O_30
REMARK   13  A    between atoms: O_35  and  C_36
REMARK   14  A    between atoms: C_38  and  O_48
REMARK   15  A    between atoms: C_39  and  O_47
REMARK   16  A    between atoms: C_40  and  O_46
REMARK   17  A    between atoms: C_42  and  C_44
REMARK   18  A    between atoms: C_44  and  O_45
REMARK   19  A    between atoms: O_48  and  C_49
REMARK   20  A    between atoms: C_51  and  O_62
REMARK   21  A    between atoms: C_53  and  O_61
REMARK   22  A    between atoms: C_54  and  O_60
REMARK   23  A    between atoms: C_56  and  C_58
REMARK   24  A    between atoms: C_58  and  O_59
REMARK                            x       y       z     vdW  Elec       q    Type
REMARK                         _______ _______ _______ _____ _____    ______ ____
ROOT
ATOM      1  C   UNL     1       4.974   0.602  26.702  0.00  0.00    +0.181 A 
ATOM      2  O   UNL     1       3.972  -0.360  26.387  0.00  0.00    -0.451 OA
ATOM      3  C   UNL     1       4.208  -1.699  26.514  0.00  0.00    +0.147 A 
ATOM      4  C   UNL     1       5.462  -2.139  26.867  0.00  0.00    +0.109 A 
ATOM      5  C   UNL     1       5.659  -3.478  27.192  0.00  0.00    +0.135 A 
ATOM      6  C   UNL     1       4.626  -4.388  27.049  0.00  0.00    +0.092 A 
ATOM      7  C   UNL     1       3.409  -4.011  26.469  0.00  0.00    +0.131 A 
ATOM      8  C   UNL     1       6.568  -1.196  26.768  0.00  0.00    +0.238 A 
ATOM      9  O   UNL     1       7.686  -1.694  26.720  0.00  0.00    -0.283 OA
ATOM     10  C   UNL     1       3.175  -2.635  26.270  0.00  0.00    +0.093 A 
ATOM     11  C   UNL     1       6.303   0.284  26.756  0.00  0.00    +0.214 A 
ENDROOT
BRANCH   1  13
ATOM     12  C   UNL     1       4.843   2.682  28.054  0.00  0.00    +0.015 A 
ATOM     13  C   UNL     1       4.300   1.917  26.993  0.00  0.00    +0.025 A 
ATOM     14  C   UNL     1       3.247   2.509  26.291  0.00  0.00    +0.060 A 
ATOM     15  C   UNL     1       2.788   3.788  26.646  0.00  0.00    +0.159 A 
ATOM     16  C   UNL     1       3.347   4.506  27.695  0.00  0.00    +0.158 A 
ATOM     17  C   UNL     1       4.376   3.949  28.426  0.00  0.00    +0.050 A 
BRANCH  16  18
ATOM     18  O   UNL     1       2.877   5.759  27.963  0.00  0.00    -0.503 OA
ATOM     19  H   UNL     1       2.063   5.900  27.462  0.00  0.00    +0.292 HD
ENDBRANCH  16  18
BRANCH  15  20
ATOM     20  O   UNL     1       1.780   4.368  25.920  0.00  0.00    -0.503 OA
ATOM     21  H   UNL     1       1.005   4.353  26.520  0.00  0.00    +0.292 HD
ENDBRANCH  15  20
ENDBRANCH   1  13
BRANCH   5  22
ATOM     22  O   UNL     1       6.848  -4.001  27.621  0.00  0.00    -0.506 OA
ATOM     23  H   UNL     1       6.716  -4.351  28.528  0.00  0.00    +0.292 HD
ENDBRANCH   5  22
BRANCH  11  24
ATOM     24  O   UNL     1       7.386   1.125  26.513  0.00  0.00    -0.453 OA
BRANCH  24  25
ATOM     25  C   UNL     1       8.145   1.271  25.283  0.00  0.00    +0.340 C 
ATOM     26  O   UNL     1       8.861   2.551  25.259  0.00  0.00    -0.331 OA
ATOM     27  C   UNL     1       8.422   3.686  24.448  0.00  0.00    +0.179 C 
ATOM     28  C   UNL     1       7.184   3.543  23.502  0.00  0.00    +0.177 C 
ATOM     29  C   UNL     1       6.409   2.272  23.836  0.00  0.00    +0.180 C 
ATOM     30  C   UNL     1       7.437   1.134  23.943  0.00  0.00    +0.221 C 
BRANCH  29  31
ATOM     31  O   UNL     1       5.328   2.078  22.941  0.00  0.00    -0.386 OA
ATOM     32  H   UNL     1       5.660   1.610  22.156  0.00  0.00    +0.210 HD
ENDBRANCH  29  31
BRANCH  28  33
ATOM     33  O   UNL     1       7.533   3.483  22.103  0.00  0.00    -0.386 OA
ATOM     34  H   UNL     1       8.491   3.317  22.032  0.00  0.00    +0.210 HD
ENDBRANCH  28  33
BRANCH  27  35
ATOM     35  C   UNL     1       9.619   4.256  23.635  0.00  0.00    +0.190 C 
BRANCH  35  36
ATOM     36  O   UNL     1      10.171   3.329  22.702  0.00  0.00    -0.392 OA
ATOM     37  H   UNL     1      11.083   3.594  22.516  0.00  0.00    +0.210 HD
ENDBRANCH  35  36
ENDBRANCH  27  35
BRANCH  30  38
ATOM     38  O   UNL     1       7.335  -0.163  23.432  0.00  0.00    -0.337 OA
BRANCH  38  39
ATOM     39  C   UNL     1       7.886  -0.780  22.309  0.00  0.00    +0.282 C 
ATOM     40  O   UNL     1       6.954  -1.837  21.939  0.00  0.00    -0.341 OA
ATOM     41  C   UNL     1       6.571  -2.612  23.098  0.00  0.00    +0.178 C 
ATOM     42  C   UNL     1       7.797  -3.299  23.734  0.00  0.00    +0.177 C 
ATOM     43  C   UNL     1       9.015  -2.370  23.833  0.00  0.00    +0.179 C 
ATOM     44  C   UNL     1       9.214  -1.467  22.604  0.00  0.00    +0.201 C 
BRANCH  44  45
ATOM     45  O   UNL     1       9.674  -2.257  21.493  0.00  0.00    -0.384 OA
ATOM     46  H   UNL     1       9.286  -3.150  21.607  0.00  0.00    +0.210 HD
ENDBRANCH  44  45
BRANCH  43  47
ATOM     47  O   UNL     1      10.195  -3.154  24.074  0.00  0.00    -0.386 OA
ATOM     48  H   UNL     1       9.893  -4.088  24.071  0.00  0.00    +0.210 HD
ENDBRANCH  43  47
BRANCH  42  49
ATOM     49  O   UNL     1       8.195  -4.465  23.002  0.00  0.00    -0.386 OA
ATOM     50  H   UNL     1       8.010  -4.228  22.068  0.00  0.00    +0.210 HD
ENDBRANCH  42  49
BRANCH  41  51
ATOM     51  C   UNL     1       5.440  -3.585  22.753  0.00  0.00    +0.190 C 
BRANCH  51  52
ATOM     52  O   UNL     1       5.703  -4.235  21.505  0.00  0.00    -0.392 OA
ATOM     53  H   UNL     1       5.646  -3.562  20.805  0.00  0.00    +0.210 HD
ENDBRANCH  51  52
ENDBRANCH  41  51
ENDBRANCH  38  39
ENDBRANCH  30  38
ENDBRANCH  24  25
ENDBRANCH  11  24
BRANCH   7  54
ATOM     54  O   UNL     1       2.461  -4.942  26.037  0.00  0.00    -0.461 OA
BRANCH  54  55
ATOM     55  C   UNL     1       3.059  -6.066  25.329  0.00  0.00    +0.340 C 
ATOM     56  O   UNL     1       2.636  -6.058  23.952  0.00  0.00    -0.322 OA
ATOM     57  C   UNL     1       1.282  -6.522  23.814  0.00  0.00    +0.261 C 
ATOM     58  C   UNL     1       1.237  -8.015  24.129  0.00  0.00    +0.185 C 
ATOM     59  C   UNL     1       1.574  -8.183  25.619  0.00  0.00    +0.180 C 
ATOM     60  C   UNL     1       2.895  -7.478  25.964  0.00  0.00    +0.214 C 
BRANCH  60  61
ATOM     61  O   UNL     1       3.147  -7.477  27.370  0.00  0.00    -0.383 OA
ATOM     62  H   UNL     1       3.195  -6.547  27.663  0.00  0.00    +0.210 HD
ENDBRANCH  60  61
BRANCH  59  63
ATOM     63  O   UNL     1       0.518  -7.724  26.466  0.00  0.00    -0.386 OA
ATOM     64  H   UNL     1       0.545  -8.201  27.316  0.00  0.00    +0.210 HD
ENDBRANCH  59  63
BRANCH  58  65
ATOM     65  O   UNL     1       2.239  -8.685  23.345  0.00  0.00    -0.386 OA
ATOM     66  H   UNL     1       2.869  -9.116  23.950  0.00  0.00    +0.210 HD
ENDBRANCH  58  65
BRANCH  57  67
ATOM     67  C   UNL     1       0.763  -6.234  22.414  0.00  0.00    +0.337 C 
ATOM     68  O   UNL     1       0.541  -7.089  21.567  0.00  0.00    -0.248 OA
BRANCH  67  69
ATOM     69  O   UNL     1       0.491  -4.918  22.227  0.00  0.00    -0.479 OA
ATOM     70  H   UNL     1       1.244  -4.508  21.743  0.00  0.00    +0.295 HD
ENDBRANCH  67  69
ENDBRANCH  57  67
ENDBRANCH  54  55
ENDBRANCH   7  54
TORSDOF 24
ENDMDL
MODEL 6
REMARK VINA RESULT:      -5.5      2.034      8.940
REMARK  Name = 
REMARK  24 active torsions:
REMARK  status: ('A' for Active; 'I' for Inactive)
REMARK    1  A    between atoms: C_3  and  O_64
REMARK    2  A    between atoms: C_4  and  O_63
REMARK    3  A    between atoms: C_6  and  C_7
REMARK    4  A    between atoms: C_8  and  O_35
REMARK    5  A    between atoms: C_12  and  O_34
REMARK    6  A    between atoms: C_14  and  O_18
REMARK    7  A    between atoms: O_18  and  C_19
REMARK    8  A    between atoms: C_21  and  O_33
REMARK    9  A    between atoms: C_22  and  O_32
REMARK   10  A    between atoms: C_24  and  O_31
REMARK   11  A    between atoms: C_26  and  C_28
REMARK   12  A    between atoms: C_28  and  O_30
REMARK   13  A    between atoms: O_35  and  C_36
REMARK   14  A    between atoms: C_38  and  O_48
REMARK   15  A    between atoms: C_39  and  O_47
REMARK   16  A    between atoms: C_40  and  O_46
REMARK   17  A    between atoms: C_42  and  C_44
REMARK   18  A    between atoms: C_44  and  O_45
REMARK   19  A    between atoms: O_48  and  C_49
REMARK   20  A    between atoms: C_51  and  O_62
REMARK   21  A    between atoms: C_53  and  O_61
REMARK   22  A    between atoms: C_54  and  O_60
REMARK   23  A    between atoms: C_56  and  C_58
REMARK   24  A    between atoms: C_58  and  O_59
REMARK                            x       y       z     vdW  Elec       q    Type
REMARK                         _______ _______ _______ _____ _____    ______ ____
ROOT
ATOM      1  C   UNL     1       6.288  -0.235  26.878  0.00  0.00    +0.181 A 
ATOM      2  O   UNL     1       5.394  -1.340  26.968  0.00  0.00    -0.451 OA
ATOM      3  C   UNL     1       5.837  -2.625  26.833  0.00  0.00    +0.147 A 
ATOM      4  C   UNL     1       7.153  -2.862  26.516  0.00  0.00    +0.109 A 
ATOM      5  C   UNL     1       7.656  -4.159  26.573  0.00  0.00    +0.135 A 
ATOM      6  C   UNL     1       6.810  -5.222  26.835  0.00  0.00    +0.092 A 
ATOM      7  C   UNL     1       5.426  -5.035  26.929  0.00  0.00    +0.131 A 
ATOM      8  C   UNL     1       7.944  -1.747  26.011  0.00  0.00    +0.238 A 
ATOM      9  O   UNL     1       8.959  -2.052  25.399  0.00  0.00    -0.283 OA
ATOM     10  C   UNL     1       4.946  -3.712  27.003  0.00  0.00    +0.093 A 
ATOM     11  C   UNL     1       7.512  -0.332  26.275  0.00  0.00    +0.214 A 
ENDROOT
BRANCH   1  13
ATOM     12  C   UNL     1       6.404   1.497  28.655  0.00  0.00    +0.015 A 
ATOM     13  C   UNL     1       5.666   0.942  27.581  0.00  0.00    +0.025 A 
ATOM     14  C   UNL     1       4.479   1.602  27.252  0.00  0.00    +0.060 A 
ATOM     15  C   UNL     1       4.082   2.744  27.965  0.00  0.00    +0.159 A 
ATOM     16  C   UNL     1       4.833   3.257  29.014  0.00  0.00    +0.158 A 
ATOM     17  C   UNL     1       6.002   2.622  29.384  0.00  0.00    +0.050 A 
BRANCH  16  18
ATOM     18  O   UNL     1       4.408   4.391  29.642  0.00  0.00    -0.503 OA
ATOM     19  H   UNL     1       3.576   4.675  29.241  0.00  0.00    +0.292 HD
ENDBRANCH  16  18
BRANCH  15  20
ATOM     20  O   UNL     1       2.934   3.401  27.602  0.00  0.00    -0.503 OA
ATOM     21  H   UNL     1       2.299   2.686  27.388  0.00  0.00    +0.292 HD
ENDBRANCH  15  20
ENDBRANCH   1  13
BRANCH   5  22
ATOM     22  O   UNL     1       8.964  -4.489  26.345  0.00  0.00    -0.506 OA
ATOM     23  H   UNL     1       9.528  -3.805  26.766  0.00  0.00    +0.292 HD
ENDBRANCH   5  22
BRANCH  11  24
ATOM     24  O   UNL     1       8.227   0.683  25.644  0.00  0.00    -0.453 OA
BRANCH  24  25
ATOM     25  C   UNL     1       8.001   1.249  24.325  0.00  0.00    +0.340 C 
ATOM     26  O   UNL     1       8.226   0.245  23.280  0.00  0.00    -0.331 OA
ATOM     27  C   UNL     1       9.422   0.236  22.439  0.00  0.00    +0.179 C 
ATOM     28  C   UNL     1      10.494   1.367  22.586  0.00  0.00    +0.177 C 
ATOM     29  C   UNL     1      10.252   2.160  23.867  0.00  0.00    +0.180 C 
ATOM     30  C   UNL     1       8.754   2.503  23.905  0.00  0.00    +0.221 C 
BRANCH  29  31
ATOM     31  O   UNL     1      11.160   3.241  23.982  0.00  0.00    -0.386 OA
ATOM     32  H   UNL     1      10.828   3.850  24.663  0.00  0.00    +0.210 HD
ENDBRANCH  29  31
BRANCH  28  33
ATOM     33  O   UNL     1      10.494   2.304  21.489  0.00  0.00    -0.386 OA
ATOM     34  H   UNL     1      11.343   2.225  21.016  0.00  0.00    +0.210 HD
ENDBRANCH  28  33
BRANCH  27  35
ATOM     35  C   UNL     1       9.023   0.106  20.941  0.00  0.00    +0.190 C 
BRANCH  35  36
ATOM     36  O   UNL     1       8.263   1.209  20.454  0.00  0.00    -0.392 OA
ATOM     37  H   UNL     1       8.810   1.699  19.823  0.00  0.00    +0.210 HD
ENDBRANCH  35  36
ENDBRANCH  27  35
BRANCH  30  38
ATOM     38  O   UNL     1       8.163   3.720  24.256  0.00  0.00    -0.337 OA
BRANCH  38  39
ATOM     39  C   UNL     1       7.955   4.904  23.549  0.00  0.00    +0.282 C 
ATOM     40  O   UNL     1       7.362   5.836  24.501  0.00  0.00    -0.341 OA
ATOM     41  C   UNL     1       6.283   5.207  25.230  0.00  0.00    +0.178 C 
ATOM     42  C   UNL     1       5.155   4.765  24.275  0.00  0.00    +0.177 C 
ATOM     43  C   UNL     1       5.683   4.087  23.003  0.00  0.00    +0.179 C 
ATOM     44  C   UNL     1       6.943   4.749  22.420  0.00  0.00    +0.201 C 
BRANCH  44  45
ATOM     45  O   UNL     1       6.595   6.013  21.826  0.00  0.00    -0.384 OA
ATOM     46  H   UNL     1       7.165   6.113  21.033  0.00  0.00    +0.210 HD
ENDBRANCH  44  45
BRANCH  43  47
ATOM     47  O   UNL     1       4.639   4.045  22.017  0.00  0.00    -0.386 OA
ATOM     48  H   UNL     1       3.849   4.428  22.455  0.00  0.00    +0.210 HD
ENDBRANCH  43  47
BRANCH  42  49
ATOM     49  O   UNL     1       4.332   5.867  23.874  0.00  0.00    -0.386 OA
ATOM     50  H   UNL     1       3.468   5.679  24.299  0.00  0.00    +0.210 HD
ENDBRANCH  42  49
BRANCH  41  51
ATOM     51  C   UNL     1       5.797   6.109  26.368  0.00  0.00    +0.190 C 
BRANCH  51  52
ATOM     52  O   UNL     1       4.486   5.720  26.789  0.00  0.00    -0.392 OA
ATOM     53  H   UNL     1       3.846   6.146  26.194  0.00  0.00    +0.210 HD
ENDBRANCH  51  52
ENDBRANCH  41  51
ENDBRANCH  38  39
ENDBRANCH  30  38
ENDBRANCH  24  25
ENDBRANCH  11  24
BRANCH   7  54
ATOM     54  O   UNL     1       4.519  -6.097  26.894  0.00  0.00    -0.461 OA
BRANCH  54  55
ATOM     55  C   UNL     1       4.548  -6.820  25.630  0.00  0.00    +0.340 C 
ATOM     56  O   UNL     1       5.096  -5.978  24.597  0.00  0.00    -0.322 OA
ATOM     57  C   UNL     1       4.144  -4.991  24.163  0.00  0.00    +0.261 C 
ATOM     58  C   UNL     1       3.018  -5.691  23.406  0.00  0.00    +0.185 C 
ATOM     59  C   UNL     1       2.260  -6.569  24.416  0.00  0.00    +0.180 C 
ATOM     60  C   UNL     1       3.226  -7.498  25.166  0.00  0.00    +0.214 C 
BRANCH  60  61
ATOM     61  O   UNL     1       2.574  -8.204  26.222  0.00  0.00    -0.383 OA
ATOM     62  H   UNL     1       2.434  -9.124  25.925  0.00  0.00    +0.210 HD
ENDBRANCH  60  61
BRANCH  59  63
ATOM     63  O   UNL     1       1.490  -5.791  25.335  0.00  0.00    -0.386 OA
ATOM     64  H   UNL     1       1.335  -6.301  26.152  0.00  0.00    +0.210 HD
ENDBRANCH  59  63
BRANCH  58  65
ATOM     65  O   UNL     1       3.592  -6.535  22.394  0.00  0.00    -0.386 OA
ATOM     66  H   UNL     1       4.508  -6.249  22.235  0.00  0.00    +0.210 HD
ENDBRANCH  58  65
BRANCH  57  67
ATOM     67  C   UNL     1       4.826  -3.943  23.296  0.00  0.00    +0.337 C 
ATOM     68  O   UNL     1       5.022  -2.785  23.635  0.00  0.00    -0.248 OA
BRANCH  67  69
ATOM     69  O   UNL     1       5.274  -4.458  22.124  0.00  0.00    -0.479 OA
ATOM     70  H   UNL     1       4.504  -4.814  21.623  0.00  0.00    +0.295 HD
ENDBRANCH  67  69
ENDBRANCH  57  67
ENDBRANCH  54  55
ENDBRANCH   7  54
TORSDOF 24
ENDMDL
MODEL 7
REMARK VINA RESULT:      -5.4      2.606      9.760
REMARK  Name = 
REMARK  24 active torsions:
REMARK  status: ('A' for Active; 'I' for Inactive)
REMARK    1  A    between atoms: C_3  and  O_64
REMARK    2  A    between atoms: C_4  and  O_63
REMARK    3  A    between atoms: C_6  and  C_7
REMARK    4  A    between atoms: C_8  and  O_35
REMARK    5  A    between atoms: C_12  and  O_34
REMARK    6  A    between atoms: C_14  and  O_18
REMARK    7  A    between atoms: O_18  and  C_19
REMARK    8  A    between atoms: C_21  and  O_33
REMARK    9  A    between atoms: C_22  and  O_32
REMARK   10  A    between atoms: C_24  and  O_31
REMARK   11  A    between atoms: C_26  and  C_28
REMARK   12  A    between atoms: C_28  and  O_30
REMARK   13  A    between atoms: O_35  and  C_36
REMARK   14  A    between atoms: C_38  and  O_48
REMARK   15  A    between atoms: C_39  and  O_47
REMARK   16  A    between atoms: C_40  and  O_46
REMARK   17  A    between atoms: C_42  and  C_44
REMARK   18  A    between atoms: C_44  and  O_45
REMARK   19  A    between atoms: O_48  and  C_49
REMARK   20  A    between atoms: C_51  and  O_62
REMARK   21  A    between atoms: C_53  and  O_61
REMARK   22  A    between atoms: C_54  and  O_60
REMARK   23  A    between atoms: C_56  and  C_58
REMARK   24  A    between atoms: C_58  and  O_59
REMARK                            x       y       z     vdW  Elec       q    Type
REMARK                         _______ _______ _______ _____ _____    ______ ____
ROOT
ATOM      1  C   UNL     1       5.110   0.754  26.685  0.00  0.00    +0.181 A 
ATOM      2  O   UNL     1       4.310  -0.366  26.320  0.00  0.00    -0.451 OA
ATOM      3  C   UNL     1       4.813  -1.636  26.344  0.00  0.00    +0.147 A 
ATOM      4  C   UNL     1       6.140  -1.838  26.640  0.00  0.00    +0.109 A 
ATOM      5  C   UNL     1       6.611  -3.129  26.863  0.00  0.00    +0.135 A 
ATOM      6  C   UNL     1       5.776  -4.216  26.674  0.00  0.00    +0.092 A 
ATOM      7  C   UNL     1       4.490  -4.053  26.145  0.00  0.00    +0.131 A 
ATOM      8  C   UNL     1       7.032  -0.687  26.590  0.00  0.00    +0.238 A 
ATOM      9  O   UNL     1       8.225  -0.945  26.485  0.00  0.00    -0.283 OA
ATOM     10  C   UNL     1       3.980  -2.742  26.051  0.00  0.00    +0.093 A 
ATOM     11  C   UNL     1       6.477   0.707  26.691  0.00  0.00    +0.214 A 
ENDROOT
BRANCH   1  13
ATOM     12  C   UNL     1       3.485   2.518  26.036  0.00  0.00    +0.015 A 
ATOM     13  C   UNL     1       4.198   1.884  27.083  0.00  0.00    +0.025 A 
ATOM     14  C   UNL     1       3.912   2.334  28.375  0.00  0.00    +0.060 A 
ATOM     15  C   UNL     1       2.966   3.351  28.578  0.00  0.00    +0.159 A 
ATOM     16  C   UNL     1       2.289   3.950  27.523  0.00  0.00    +0.158 A 
ATOM     17  C   UNL     1       2.557   3.548  26.231  0.00  0.00    +0.050 A 
BRANCH  16  18
ATOM     18  O   UNL     1       1.356   4.908  27.794  0.00  0.00    -0.503 OA
ATOM     19  H   UNL     1       1.802   5.679  28.169  0.00  0.00    +0.292 HD
ENDBRANCH  16  18
BRANCH  15  20
ATOM     20  O   UNL     1       2.671   3.752  29.855  0.00  0.00    -0.503 OA
ATOM     21  H   UNL     1       3.306   3.266  30.420  0.00  0.00    +0.292 HD
ENDBRANCH  15  20
ENDBRANCH   1  13
BRANCH   5  22
ATOM     22  O   UNL     1       7.894  -3.429  27.231  0.00  0.00    -0.506 OA
ATOM     23  H   UNL     1       8.241  -2.679  27.760  0.00  0.00    +0.292 HD
ENDBRANCH   5  22
BRANCH  11  24
ATOM     24  O   UNL     1       7.362   1.763  26.490  0.00  0.00    -0.453 OA
BRANCH  24  25
ATOM     25  C   UNL     1       8.257   1.977  25.366  0.00  0.00    +0.340 C 
ATOM     26  O   UNL     1       8.713   3.370  25.317  0.00  0.00    -0.331 OA
ATOM     27  C   UNL     1       8.195   4.336  24.349  0.00  0.00    +0.179 C 
ATOM     28  C   UNL     1       7.164   3.883  23.262  0.00  0.00    +0.177 C 
ATOM     29  C   UNL     1       6.602   2.508  23.608  0.00  0.00    +0.180 C 
ATOM     30  C   UNL     1       7.800   1.610  23.961  0.00  0.00    +0.221 C 
BRANCH  29  31
ATOM     31  O   UNL     1       5.726   2.041  22.597  0.00  0.00    -0.386 OA
ATOM     32  H   UNL     1       5.735   2.678  21.864  0.00  0.00    +0.210 HD
ENDBRANCH  29  31
BRANCH  28  33
ATOM     33  O   UNL     1       7.726   3.802  21.936  0.00  0.00    -0.386 OA
ATOM     34  H   UNL     1       7.065   3.397  21.345  0.00  0.00    +0.210 HD
ENDBRANCH  28  33
BRANCH  27  35
ATOM     35  C   UNL     1       9.371   5.081  23.655  0.00  0.00    +0.190 C 
BRANCH  35  36
ATOM     36  O   UNL     1       8.949   6.109  22.761  0.00  0.00    -0.392 OA
ATOM     37  H   UNL     1       8.819   6.920  23.273  0.00  0.00    +0.210 HD
ENDBRANCH  35  36
ENDBRANCH  27  35
BRANCH  30  38
ATOM     38  O   UNL     1       8.024   0.288  23.567  0.00  0.00    -0.337 OA
BRANCH  38  39
ATOM     39  C   UNL     1       8.446  -0.278  22.365  0.00  0.00    +0.282 C 
ATOM     40  O   UNL     1       7.376  -1.178  21.952  0.00  0.00    -0.341 OA
ATOM     41  C   UNL     1       6.953  -2.010  23.057  0.00  0.00    +0.178 C 
ATOM     42  C   UNL     1       8.112  -2.895  23.559  0.00  0.00    +0.177 C 
ATOM     43  C   UNL     1       9.438  -2.129  23.675  0.00  0.00    +0.179 C 
ATOM     44  C   UNL     1       9.692  -1.142  22.523  0.00  0.00    +0.201 C 
BRANCH  44  45
ATOM     45  O   UNL     1      10.003  -1.870  21.321  0.00  0.00    -0.384 OA
ATOM     46  H   UNL     1       9.358  -2.608  21.269  0.00  0.00    +0.210 HD
ENDBRANCH  44  45
BRANCH  43  47
ATOM     47  O   UNL     1      10.523  -3.066  23.779  0.00  0.00    -0.386 OA
ATOM     48  H   UNL     1      10.722  -3.130  24.737  0.00  0.00    +0.210 HD
ENDBRANCH  43  47
BRANCH  42  49
ATOM     49  O   UNL     1       8.333  -4.024  22.705  0.00  0.00    -0.386 OA
ATOM     50  H   UNL     1       7.464  -4.479  22.693  0.00  0.00    +0.210 HD
ENDBRANCH  42  49
BRANCH  41  51
ATOM     51  C   UNL     1       5.697  -2.807  22.688  0.00  0.00    +0.190 C 
BRANCH  51  52
ATOM     52  O   UNL     1       5.796  -3.304  21.350  0.00  0.00    -0.392 OA
ATOM     53  H   UNL     1       5.098  -3.970  21.230  0.00  0.00    +0.210 HD
ENDBRANCH  51  52
ENDBRANCH  41  51
ENDBRANCH  38  39
ENDBRANCH  30  38
ENDBRANCH  24  25
ENDBRANCH  11  24
BRANCH   7  54
ATOM     54  O   UNL     1       3.733  -5.124  25.664  0.00  0.00    -0.461 OA
BRANCH  54  55
ATOM     55  C   UNL     1       3.543  -6.171  26.660  0.00  0.00    +0.340 C 
ATOM     56  O   UNL     1       3.331  -7.436  26.005  0.00  0.00    -0.322 OA
ATOM     57  C   UNL     1       2.003  -7.531  25.460  0.00  0.00    +0.261 C 
ATOM     58  C   UNL     1       1.003  -7.622  26.610  0.00  0.00    +0.185 C 
ATOM     59  C   UNL     1       1.039  -6.280  27.359  0.00  0.00    +0.180 C 
ATOM     60  C   UNL     1       2.476  -5.919  27.765  0.00  0.00    +0.214 C 
BRANCH  60  61
ATOM     61  O   UNL     1       2.559  -4.603  28.315  0.00  0.00    -0.383 OA
ATOM     62  H   UNL     1       3.356  -4.176  27.948  0.00  0.00    +0.210 HD
ENDBRANCH  60  61
BRANCH  59  63
ATOM     63  O   UNL     1       0.445  -5.223  26.602  0.00  0.00    -0.386 OA
ATOM     64  H   UNL     1       0.734  -5.279  25.673  0.00  0.00    +0.210 HD
ENDBRANCH  59  63
BRANCH  58  65
ATOM     65  O   UNL     1       1.417  -8.667  27.505  0.00  0.00    -0.386 OA
ATOM     66  H   UNL     1       1.090  -9.517  27.162  0.00  0.00    +0.210 HD
ENDBRANCH  58  65
BRANCH  57  67
ATOM     67  C   UNL     1       1.896  -8.734  24.535  0.00  0.00    +0.337 C 
ATOM     68  O   UNL     1       1.551  -8.678  23.363  0.00  0.00    -0.248 OA
BRANCH  67  69
ATOM     69  O   UNL     1       2.307  -9.880  25.133  0.00  0.00    -0.479 OA
ATOM     70  H   UNL     1       1.735 -10.046  25.918  0.00  0.00    +0.295 HD
ENDBRANCH  67  69
ENDBRANCH  57  67
ENDBRANCH  54  55
ENDBRANCH   7  54
TORSDOF 24
ENDMDL
MODEL 8
REMARK VINA RESULT:      -5.3      2.517      6.297
REMARK  Name = 
REMARK  24 active torsions:
REMARK  status: ('A' for Active; 'I' for Inactive)
REMARK    1  A    between atoms: C_3  and  O_64
REMARK    2  A    between atoms: C_4  and  O_63
REMARK    3  A    between atoms: C_6  and  C_7
REMARK    4  A    between atoms: C_8  and  O_35
REMARK    5  A    between atoms: C_12  and  O_34
REMARK    6  A    between atoms: C_14  and  O_18
REMARK    7  A    between atoms: O_18  and  C_19
REMARK    8  A    between atoms: C_21  and  O_33
REMARK    9  A    between atoms: C_22  and  O_32
REMARK   10  A    between atoms: C_24  and  O_31
REMARK   11  A    between atoms: C_26  and  C_28
REMARK   12  A    between atoms: C_28  and  O_30
REMARK   13  A    between atoms: O_35  and  C_36
REMARK   14  A    between atoms: C_38  and  O_48
REMARK   15  A    between atoms: C_39  and  O_47
REMARK   16  A    between atoms: C_40  and  O_46
REMARK   17  A    between atoms: C_42  and  C_44
REMARK   18  A    between atoms: C_44  and  O_45
REMARK   19  A    between atoms: O_48  and  C_49
REMARK   20  A    between atoms: C_51  and  O_62
REMARK   21  A    between atoms: C_53  and  O_61
REMARK   22  A    between atoms: C_54  and  O_60
REMARK   23  A    between atoms: C_56  and  C_58
REMARK   24  A    between atoms: C_58  and  O_59
REMARK                            x       y       z     vdW  Elec       q    Type
REMARK                         _______ _______ _______ _____ _____    ______ ____
ROOT
ATOM      1  C   UNL     1       5.954  -1.398  27.077  0.00  0.00    +0.181 A 
ATOM      2  O   UNL     1       6.697  -0.214  26.807  0.00  0.00    -0.451 OA
ATOM      3  C   UNL     1       7.775  -0.227  25.970  0.00  0.00    +0.147 A 
ATOM      4  C   UNL     1       8.212  -1.419  25.441  0.00  0.00    +0.109 A 
ATOM      5  C   UNL     1       9.176  -1.418  24.436  0.00  0.00    +0.135 A 
ATOM      6  C   UNL     1       9.778  -0.233  24.051  0.00  0.00    +0.092 A 
ATOM      7  C   UNL     1       9.522   0.961  24.736  0.00  0.00    +0.131 A 
ATOM      8  C   UNL     1       7.727  -2.652  26.047  0.00  0.00    +0.238 A 
ATOM      9  O   UNL     1       8.396  -3.652  25.821  0.00  0.00    -0.283 OA
ATOM     10  C   UNL     1       8.454   0.974  25.655  0.00  0.00    +0.093 A 
ATOM     11  C   UNL     1       6.466  -2.648  26.866  0.00  0.00    +0.214 A 
ENDROOT
BRANCH   1  13
ATOM     12  C   UNL     1       4.505  -0.379  28.819  0.00  0.00    +0.015 A 
ATOM     13  C   UNL     1       4.580  -1.003  27.550  0.00  0.00    +0.025 A 
ATOM     14  C   UNL     1       3.374  -1.111  26.853  0.00  0.00    +0.060 A 
ATOM     15  C   UNL     1       2.185  -0.614  27.410  0.00  0.00    +0.159 A 
ATOM     16  C   UNL     1       2.153  -0.009  28.659  0.00  0.00    +0.158 A 
ATOM     17  C   UNL     1       3.319   0.099  29.390  0.00  0.00    +0.050 A 
BRANCH  16  18
ATOM     18  O   UNL     1       0.970   0.485  29.127  0.00  0.00    -0.503 OA
ATOM     19  H   UNL     1       0.829   0.156  30.025  0.00  0.00    +0.292 HD
ENDBRANCH  16  18
BRANCH  15  20
ATOM     20  O   UNL     1       1.019  -0.694  26.693  0.00  0.00    -0.503 OA
ATOM     21  H   UNL     1       1.136  -1.480  26.120  0.00  0.00    +0.292 HD
ENDBRANCH  15  20
ENDBRANCH   1  13
BRANCH   5  22
ATOM     22  O   UNL     1       9.626  -2.542  23.798  0.00  0.00    -0.506 OA
ATOM     23  H   UNL     1       8.887  -2.904  23.264  0.00  0.00    +0.292 HD
ENDBRANCH   5  22
BRANCH  11  24
ATOM     24  O   UNL     1       6.137  -3.824  27.536  0.00  0.00    -0.453 OA
BRANCH  24  25
ATOM     25  C   UNL     1       4.876  -4.544  27.507  0.00  0.00    +0.340 C 
ATOM     26  O   UNL     1       4.045  -4.191  28.663  0.00  0.00    -0.331 OA
ATOM     27  C   UNL     1       3.868  -5.081  29.810  0.00  0.00    +0.179 C 
ATOM     28  C   UNL     1       4.519  -6.504  29.807  0.00  0.00    +0.177 C 
ATOM     29  C   UNL     1       5.547  -6.611  28.684  0.00  0.00    +0.180 C 
ATOM     30  C   UNL     1       4.880  -6.063  27.412  0.00  0.00    +0.221 C 
BRANCH  29  31
ATOM     31  O   UNL     1       6.093  -7.916  28.610  0.00  0.00    -0.386 OA
ATOM     32  H   UNL     1       6.292  -8.218  29.512  0.00  0.00    +0.210 HD
ENDBRANCH  29  31
BRANCH  28  33
ATOM     33  O   UNL     1       3.566  -7.572  29.627  0.00  0.00    -0.386 OA
ATOM     34  H   UNL     1       2.694  -7.178  29.441  0.00  0.00    +0.210 HD
ENDBRANCH  28  33
BRANCH  27  35
ATOM     35  C   UNL     1       2.357  -5.215  30.155  0.00  0.00    +0.190 C 
BRANCH  35  36
ATOM     36  O   UNL     1       1.541  -5.544  29.032  0.00  0.00    -0.392 OA
ATOM     37  H   UNL     1       1.038  -4.755  28.782  0.00  0.00    +0.210 HD
ENDBRANCH  35  36
ENDBRANCH  27  35
BRANCH  30  38
ATOM     38  O   UNL     1       4.929  -6.597  26.121  0.00  0.00    -0.337 OA
BRANCH  38  39
ATOM     39  C   UNL     1       4.056  -7.420  25.408  0.00  0.00    +0.282 C 
ATOM     40  O   UNL     1       4.442  -7.290  24.009  0.00  0.00    -0.341 OA
ATOM     41  C   UNL     1       4.610  -5.899  23.651  0.00  0.00    +0.178 C 
ATOM     42  C   UNL     1       3.290  -5.119  23.825  0.00  0.00    +0.177 C 
ATOM     43  C   UNL     1       2.563  -5.465  25.132  0.00  0.00    +0.179 C 
ATOM     44  C   UNL     1       2.606  -6.959  25.494  0.00  0.00    +0.201 C 
BRANCH  44  45
ATOM     45  O   UNL     1       1.749  -7.697  24.605  0.00  0.00    -0.384 OA
ATOM     46  H   UNL     1       0.827  -7.471  24.856  0.00  0.00    +0.210 HD
ENDBRANCH  44  45
BRANCH  43  47
ATOM     47  O   UNL     1       1.203  -5.007  25.057  0.00  0.00    -0.386 OA
ATOM     48  H   UNL     1       0.784  -5.548  24.353  0.00  0.00    +0.210 HD
ENDBRANCH  43  47
BRANCH  42  49
ATOM     49  O   UNL     1       2.382  -5.358  22.743  0.00  0.00    -0.386 OA
ATOM     50  H   UNL     1       1.573  -5.690  23.188  0.00  0.00    +0.210 HD
ENDBRANCH  42  49
BRANCH  41  51
ATOM     51  C   UNL     1       5.213  -5.767  22.249  0.00  0.00    +0.190 C 
BRANCH  51  52
ATOM     52  O   UNL     1       5.117  -4.415  21.789  0.00  0.00    -0.392 OA
ATOM     53  H   UNL     1       5.368  -4.405  20.849  0.00  0.00    +0.210 HD
ENDBRANCH  51  52
ENDBRANCH  41  51
ENDBRANCH  38  39
ENDBRANCH  30  38
ENDBRANCH  24  25
ENDBRANCH  11  24
BRANCH   7  54
ATOM     54  O   UNL     1      10.315   2.101  24.582  0.00  0.00    -0.461 OA
BRANCH  54  55
ATOM     55  C   UNL     1       9.855   2.963  23.501  0.00  0.00    +0.340 C 
ATOM     56  O   UNL     1      10.916   3.850  23.097  0.00  0.00    -0.322 OA
ATOM     57  C   UNL     1      11.102   4.915  24.046  0.00  0.00    +0.261 C 
ATOM     58  C   UNL     1       9.896   5.849  23.981  0.00  0.00    +0.185 C 
ATOM     59  C   UNL     1       8.676   5.063  24.488  0.00  0.00    +0.180 C 
ATOM     60  C   UNL     1       8.524   3.739  23.725  0.00  0.00    +0.214 C 
BRANCH  60  61
ATOM     61  O   UNL     1       7.499   2.916  24.286  0.00  0.00    -0.383 OA
ATOM     62  H   UNL     1       7.451   3.110  25.241  0.00  0.00    +0.210 HD
ENDBRANCH  60  61
BRANCH  59  63
ATOM     63  O   UNL     1       8.731   4.833  25.897  0.00  0.00    -0.386 OA
ATOM     64  H   UNL     1       7.863   4.522  26.216  0.00  0.00    +0.210 HD
ENDBRANCH  59  63
BRANCH  58  65
ATOM     65  O   UNL     1       9.673   6.226  22.612  0.00  0.00    -0.386 OA
ATOM     66  H   UNL     1       8.778   5.941  22.354  0.00  0.00    +0.210 HD
ENDBRANCH  58  65
BRANCH  57  67
ATOM     67  C   UNL     1      12.397   5.660  23.758  0.00  0.00    +0.337 C 
ATOM     68  O   UNL     1      12.960   5.677  22.673  0.00  0.00    -0.248 OA
BRANCH  67  69
ATOM     69  O   UNL     1      12.824   6.380  24.826  0.00  0.00    -0.479 OA
ATOM     70  H   UNL     1      13.246   7.207  24.497  0.00  0.00    +0.295 HD
ENDBRANCH  67  69
ENDBRANCH  57  67
ENDBRANCH  54  55
ENDBRANCH   7  54
TORSDOF 24
ENDMDL
MODEL 9
REMARK VINA RESULT:      -5.3      2.554      5.851
REMARK  Name = 
REMARK  24 active torsions:
REMARK  status: ('A' for Active; 'I' for Inactive)
REMARK    1  A    between atoms: C_3  and  O_64
REMARK    2  A    between atoms: C_4  and  O_63
REMARK    3  A    between atoms: C_6  and  C_7
REMARK    4  A    between atoms: C_8  and  O_35
REMARK    5  A    between atoms: C_12  and  O_34
REMARK    6  A    between atoms: C_14  and  O_18
REMARK    7  A    between atoms: O_18  and  C_19
REMARK    8  A    between atoms: C_21  and  O_33
REMARK    9  A    between atoms: C_22  and  O_32
REMARK   10  A    between atoms: C_24  and  O_31
REMARK   11  A    between atoms: C_26  and  C_28
REMARK   12  A    between atoms: C_28  and  O_30
REMARK   13  A    between atoms: O_35  and  C_36
REMARK   14  A    between atoms: C_38  and  O_48
REMARK   15  A    between atoms: C_39  and  O_47
REMARK   16  A    between atoms: C_40  and  O_46
REMARK   17  A    between atoms: C_42  and  C_44
REMARK   18  A    between atoms: C_44  and  O_45
REMARK   19  A    between atoms: O_48  and  C_49
REMARK   20  A    between atoms: C_51  and  O_62
REMARK   21  A    between atoms: C_53  and  O_61
REMARK   22  A    between atoms: C_54  and  O_60
REMARK   23  A    between atoms: C_56  and  C_58
REMARK   24  A    between atoms: C_58  and  O_59
REMARK                            x       y       z     vdW  Elec       q    Type
REMARK                         _______ _______ _______ _____ _____    ______ ____
ROOT
ATOM      1  C   UNL     1       6.307  -1.428  25.773  0.00  0.00    +0.181 A 
ATOM      2  O   UNL     1       7.063  -0.235  25.956  0.00  0.00    -0.451 OA
ATOM      3  C   UNL     1       6.556   0.828  26.647  0.00  0.00    +0.147 A 
ATOM      4  C   UNL     1       5.259   0.789  27.103  0.00  0.00    +0.109 A 
ATOM      5  C   UNL     1       4.802   1.773  27.974  0.00  0.00    +0.135 A 
ATOM      6  C   UNL     1       5.609   2.852  28.290  0.00  0.00    +0.092 A 
ATOM      7  C   UNL     1       6.843   3.038  27.657  0.00  0.00    +0.131 A 
ATOM      8  C   UNL     1       4.375  -0.230  26.552  0.00  0.00    +0.238 A 
ATOM      9  O   UNL     1       3.176  -0.015  26.679  0.00  0.00    -0.283 OA
ATOM     10  C   UNL     1       7.351   1.975  26.884  0.00  0.00    +0.093 A 
ATOM     11  C   UNL     1       4.947  -1.459  25.903  0.00  0.00    +0.214 A 
ENDROOT
BRANCH   1  13
ATOM     12  C   UNL     1       8.214  -2.850  26.492  0.00  0.00    +0.015 A 
ATOM     13  C   UNL     1       7.260  -2.558  25.486  0.00  0.00    +0.025 A 
ATOM     14  C   UNL     1       7.268  -3.405  24.375  0.00  0.00    +0.060 A 
ATOM     15  C   UNL     1       8.179  -4.471  24.302  0.00  0.00    +0.159 A 
ATOM     16  C   UNL     1       9.101  -4.723  25.310  0.00  0.00    +0.158 A 
ATOM     17  C   UNL     1       9.139  -3.898  26.415  0.00  0.00    +0.050 A 
BRANCH  16  18
ATOM     18  O   UNL     1       9.934  -5.798  25.192  0.00  0.00    -0.503 OA
ATOM     19  H   UNL     1      10.832  -5.478  25.034  0.00  0.00    +0.292 HD
ENDBRANCH  16  18
BRANCH  15  20
ATOM     20  O   UNL     1       8.145  -5.315  23.222  0.00  0.00    -0.503 OA
ATOM     21  H   UNL     1       7.217  -5.280  22.910  0.00  0.00    +0.292 HD
ENDBRANCH  15  20
ENDBRANCH   1  13
BRANCH   5  22
ATOM     22  O   UNL     1       3.555   1.786  28.537  0.00  0.00    -0.506 OA
ATOM     23  H   UNL     1       2.934   2.183  27.889  0.00  0.00    +0.292 HD
ENDBRANCH   5  22
BRANCH  11  24
ATOM     24  O   UNL     1       4.054  -2.321  25.270  0.00  0.00    -0.453 OA
BRANCH  24  25
ATOM     25  C   UNL     1       3.439  -3.522  25.806  0.00  0.00    +0.340 C 
ATOM     26  O   UNL     1       2.326  -3.186  26.700  0.00  0.00    -0.331 OA
ATOM     27  C   UNL     1       2.428  -3.279  28.157  0.00  0.00    +0.179 C 
ATOM     28  C   UNL     1       3.737  -3.823  28.819  0.00  0.00    +0.177 C 
ATOM     29  C   UNL     1       4.866  -3.872  27.794  0.00  0.00    +0.180 C 
ATOM     30  C   UNL     1       4.298  -4.546  26.534  0.00  0.00    +0.221 C 
BRANCH  29  31
ATOM     31  O   UNL     1       6.041  -4.437  28.349  0.00  0.00    -0.386 OA
ATOM     32  H   UNL     1       5.982  -4.379  29.317  0.00  0.00    +0.210 HD
ENDBRANCH  29  31
BRANCH  28  33
ATOM     33  O   UNL     1       3.594  -5.148  29.371  0.00  0.00    -0.386 OA
ATOM     34  H   UNL     1       3.936  -5.140  30.284  0.00  0.00    +0.210 HD
ENDBRANCH  28  33
BRANCH  27  35
ATOM     35  C   UNL     1       1.209  -4.057  28.729  0.00  0.00    +0.190 C 
BRANCH  35  36
ATOM     36  O   UNL     1       1.004  -5.329  28.119  0.00  0.00    -0.392 OA
ATOM     37  H   UNL     1       0.788  -5.967  28.813  0.00  0.00    +0.210 HD
ENDBRANCH  35  36
ENDBRANCH  27  35
BRANCH  30  38
ATOM     38  O   UNL     1       4.908  -5.516  25.733  0.00  0.00    -0.337 OA
BRANCH  38  39
ATOM     39  C   UNL     1       4.647  -6.871  25.531  0.00  0.00    +0.282 C 
ATOM     40  O   UNL     1       5.068  -7.158  24.166  0.00  0.00    -0.341 OA
ATOM     41  C   UNL     1       4.558  -6.159  23.252  0.00  0.00    +0.178 C 
ATOM     42  C   UNL     1       3.016  -6.146  23.251  0.00  0.00    +0.177 C 
ATOM     43  C   UNL     1       2.418  -6.232  24.663  0.00  0.00    +0.179 C 
ATOM     44  C   UNL     1       3.160  -7.203  25.597  0.00  0.00    +0.201 C 
BRANCH  44  45
ATOM     45  O   UNL     1       2.890  -8.559  25.199  0.00  0.00    -0.384 OA
ATOM     46  H   UNL     1       2.893  -9.095  26.021  0.00  0.00    +0.210 HD
ENDBRANCH  44  45
BRANCH  43  47
ATOM     47  O   UNL     1       1.029  -6.588  24.573  0.00  0.00    -0.386 OA
ATOM     48  H   UNL     1       0.783  -6.443  23.634  0.00  0.00    +0.210 HD
ENDBRANCH  43  47
BRANCH  42  49
ATOM     49  O   UNL     1       2.473  -7.225  22.481  0.00  0.00    -0.386 OA
ATOM     50  H   UNL     1       3.242  -7.817  22.335  0.00  0.00    +0.210 HD
ENDBRANCH  42  49
BRANCH  41  51
ATOM     51  C   UNL     1       5.165  -6.337  21.857  0.00  0.00    +0.190 C 
BRANCH  51  52
ATOM     52  O   UNL     1       6.425  -7.011  21.942  0.00  0.00    -0.392 OA
ATOM     53  H   UNL     1       6.368  -7.654  22.669  0.00  0.00    +0.210 HD
ENDBRANCH  51  52
ENDBRANCH  41  51
ENDBRANCH  38  39
ENDBRANCH  30  38
ENDBRANCH  24  25
ENDBRANCH  11  24
BRANCH   7  54
ATOM     54  O   UNL     1       7.546   4.244  27.719  0.00  0.00    -0.461 OA
BRANCH  54  55
ATOM     55  C   UNL     1       7.070   5.223  26.751  0.00  0.00    +0.340 C 
ATOM     56  O   UNL     1       7.416   4.802  25.417  0.00  0.00    -0.322 OA
ATOM     57  C   UNL     1       8.812   5.015  25.144  0.00  0.00    +0.261 C 
ATOM     58  C   UNL     1       9.074   6.517  25.057  0.00  0.00    +0.185 C 
ATOM     59  C   UNL     1       8.839   7.108  26.456  0.00  0.00    +0.180 C 
ATOM     60  C   UNL     1       7.456   6.711  26.993  0.00  0.00    +0.214 C 
BRANCH  60  61
ATOM     61  O   UNL     1       7.278   7.108  28.354  0.00  0.00    -0.383 OA
ATOM     62  H   UNL     1       7.344   6.307  28.908  0.00  0.00    +0.210 HD
ENDBRANCH  60  61
BRANCH  59  63
ATOM     63  O   UNL     1       9.866   6.735  27.379  0.00  0.00    -0.386 OA
ATOM     64  H   UNL     1      10.630   6.371  26.894  0.00  0.00    +0.210 HD
ENDBRANCH  59  63
BRANCH  58  65
ATOM     65  O   UNL     1       8.132   7.101  24.141  0.00  0.00    -0.386 OA
ATOM     66  H   UNL     1       8.228   6.663  23.277  0.00  0.00    +0.210 HD
ENDBRANCH  58  65
BRANCH  57  67
ATOM     67  C   UNL     1       9.215   4.307  23.860  0.00  0.00    +0.337 C 
ATOM     68  O   UNL     1      10.091   3.457  23.782  0.00  0.00    -0.248 OA
BRANCH  67  69
ATOM     69  O   UNL     1       8.433   4.663  22.809  0.00  0.00    -0.479 OA
ATOM     70  H   UNL     1       8.534   3.987  22.100  0.00  0.00    +0.295 HD
ENDBRANCH  67  69
ENDBRANCH  57  67
ENDBRANCH  54  55
ENDBRANCH   7  54
TORSDOF 24
ENDMDL
