MODEL 1
REMARK VINA RESULT:      -7.5      0.000      0.000
REMARK  Name = 
REMARK  18 active torsions:
REMARK  status: ('A' for Active; 'I' for Inactive)
REMARK    1  A    between atoms: C_1  and  C_2
REMARK    2  A    between atoms: C_3  and  O_49
REMARK    3  A    between atoms: C_5  and  O_48
REMARK    4  A    between atoms: C_7  and  O_47
REMARK    5  A    between atoms: C_8  and  O_11
REMARK    6  A    between atoms: O_11  and  C_12
REMARK    7  A    between atoms: C_14  and  O_46
REMARK    8  A    between atoms: C_19  and  C_37
REMARK    9  A    between atoms: C_20  and  O_23
REMARK   10  A    between atoms: O_23  and  C_24
REMARK   11  A    between atoms: C_26  and  O_36
REMARK   12  A    between atoms: C_27  and  O_35
REMARK   13  A    between atoms: C_28  and  O_34
REMARK   14  A    between atoms: C_30  and  C_32
REMARK   15  A    between atoms: C_32  and  O_33
REMARK   16  A    between atoms: C_39  and  O_44
REMARK   17  A    between atoms: C_40  and  O_43
REMARK   18  A    between atoms: O_44  and  C_45
REMARK                            x       y       z     vdW  Elec       q    Type
REMARK                         _______ _______ _______ _____ _____    ______ ____
ROOT
ATOM      1  C   UNL     1       7.081  -3.606  23.627  0.00  0.00    +0.131 A 
ATOM      2  C   UNL     1       6.875  -2.685  24.661  0.00  0.00    +0.093 A 
ATOM      3  C   UNL     1       7.609  -1.486  24.695  0.00  0.00    +0.147 A 
ATOM      4  O   UNL     1       7.409  -0.614  25.739  0.00  0.00    -0.451 OA
ATOM      5  C   UNL     1       7.984   0.670  25.687  0.00  0.00    +0.181 A 
ATOM      6  C   UNL     1       8.956   1.022  24.799  0.00  0.00    +0.214 A 
ATOM      7  C   UNL     1       9.456  -0.106  23.944  0.00  0.00    +0.238 A 
ATOM      8  O   UNL     1      10.609  -0.181  23.541  0.00  0.00    -0.283 OA
ATOM      9  C   UNL     1       8.549  -1.229  23.710  0.00  0.00    +0.109 A 
ATOM     10  C   UNL     1       8.698  -2.108  22.633  0.00  0.00    +0.135 A 
ATOM     11  C   UNL     1       7.970  -3.291  22.593  0.00  0.00    +0.092 A 
ENDROOT
BRANCH   5  12
ATOM     12  C   UNL     1       7.446   1.571  26.755  0.00  0.00    +0.025 A 
ATOM     13  C   UNL     1       7.245   1.084  28.063  0.00  0.00    +0.015 A 
ATOM     14  C   UNL     1       6.826   1.929  29.094  0.00  0.00    +0.050 A 
ATOM     15  C   UNL     1       6.587   3.273  28.824  0.00  0.00    +0.158 A 
ATOM     16  C   UNL     1       6.768   3.793  27.550  0.00  0.00    +0.162 A 
ATOM     17  C   UNL     1       7.218   2.948  26.530  0.00  0.00    +0.061 A 
BRANCH  15  18
ATOM     18  O   UNL     1       6.188   4.078  29.848  0.00  0.00    -0.503 OA
ATOM     19  H   UNL     1       5.883   4.904  29.417  0.00  0.00    +0.292 HD
ENDBRANCH  15  18
BRANCH  16  20
ATOM     20  O   UNL     1       6.515   5.145  27.446  0.00  0.00    -0.491 OA
ATOM     21  C   UNL     1       7.615   6.002  27.198  0.00  0.00    +0.277 C 
ENDBRANCH  16  20
ENDBRANCH   5  12
BRANCH  10  22
ATOM     22  O   UNL     1       9.537  -1.809  21.597  0.00  0.00    -0.506 OA
ATOM     23  H   UNL     1      10.272  -1.259  21.913  0.00  0.00    +0.292 HD
ENDBRANCH  10  22
BRANCH   6  24
ATOM     24  O   UNL     1       9.456   2.330  24.704  0.00  0.00    -0.453 OA
BRANCH  24  25
ATOM     25  C   UNL     1       9.550   2.931  23.397  0.00  0.00    +0.340 C 
ATOM     26  O   UNL     1      10.782   3.642  23.227  0.00  0.00    -0.331 OA
ATOM     27  C   UNL     1      10.856   4.891  23.918  0.00  0.00    +0.179 C 
ATOM     28  C   UNL     1       9.760   5.844  23.435  0.00  0.00    +0.177 C 
ATOM     29  C   UNL     1       8.398   5.201  23.706  0.00  0.00    +0.180 C 
ATOM     30  C   UNL     1       8.321   3.817  23.067  0.00  0.00    +0.214 C 
BRANCH  28  31
ATOM     31  O   UNL     1       9.852   7.108  24.105  0.00  0.00    -0.386 OA
ATOM     32  H   UNL     1       8.941   7.453  24.198  0.00  0.00    +0.210 HD
ENDBRANCH  28  31
BRANCH  29  33
ATOM     33  O   UNL     1       7.379   6.082  23.204  0.00  0.00    -0.386 OA
ATOM     34  H   UNL     1       7.309   6.846  23.807  0.00  0.00    +0.210 HD
ENDBRANCH  29  33
BRANCH  30  35
ATOM     35  O   UNL     1       7.082   3.175  23.387  0.00  0.00    -0.383 OA
ATOM     36  H   UNL     1       7.214   2.213  23.298  0.00  0.00    +0.210 HD
ENDBRANCH  30  35
BRANCH  27  37
ATOM     37  C   UNL     1      12.260   5.493  23.741  0.00  0.00    +0.190 C 
BRANCH  37  38
ATOM     38  O   UNL     1      12.652   6.308  24.841  0.00  0.00    -0.392 OA
ATOM     39  H   UNL     1      13.012   7.142  24.463  0.00  0.00    +0.210 HD
ENDBRANCH  37  38
ENDBRANCH  27  37
ENDBRANCH  24  25
ENDBRANCH   6  24
BRANCH   1  40
ATOM     40  O   UNL     1       6.520  -4.844  23.489  0.00  0.00    -0.461 OA
BRANCH  40  44
ATOM     41  C   UNL     1       3.858  -5.906  26.702  0.00  0.00    +0.041 C 
ATOM     42  C   UNL     1       4.116  -6.784  25.479  0.00  0.00    +0.150 C 
ATOM     43  O   UNL     1       5.337  -6.389  24.834  0.00  0.00    -0.334 OA
ATOM     44  C   UNL     1       5.281  -5.134  24.146  0.00  0.00    +0.339 C 
ATOM     45  C   UNL     1       4.206  -5.220  23.037  0.00  0.00    +0.214 C 
ATOM     46  C   UNL     1       2.849  -5.501  23.700  0.00  0.00    +0.180 C 
ATOM     47  C   UNL     1       2.916  -6.807  24.513  0.00  0.00    +0.174 C 
BRANCH  47  48
ATOM     48  O   UNL     1       3.021  -7.937  23.635  0.00  0.00    -0.387 OA
ATOM     49  H   UNL     1       2.103  -8.195  23.392  0.00  0.00    +0.210 HD
ENDBRANCH  47  48
BRANCH  46  50
ATOM     50  O   UNL     1       1.796  -5.523  22.730  0.00  0.00    -0.386 OA
ATOM     51  H   UNL     1       1.437  -4.620  22.656  0.00  0.00    +0.210 HD
ENDBRANCH  46  50
BRANCH  45  52
ATOM     52  O   UNL     1       4.535  -6.301  22.129  0.00  0.00    -0.383 OA
ATOM     53  H   UNL     1       4.568  -7.113  22.673  0.00  0.00    +0.210 HD
ENDBRANCH  45  52
ENDBRANCH  40  44
ENDBRANCH   1  40
TORSDOF 16
ENDMDL
MODEL 2
REMARK VINA RESULT:      -7.3      1.882      2.986
REMARK  Name = 
REMARK  18 active torsions:
REMARK  status: ('A' for Active; 'I' for Inactive)
REMARK    1  A    between atoms: C_1  and  C_2
REMARK    2  A    between atoms: C_3  and  O_49
REMARK    3  A    between atoms: C_5  and  O_48
REMARK    4  A    between atoms: C_7  and  O_47
REMARK    5  A    between atoms: C_8  and  O_11
REMARK    6  A    between atoms: O_11  and  C_12
REMARK    7  A    between atoms: C_14  and  O_46
REMARK    8  A    between atoms: C_19  and  C_37
REMARK    9  A    between atoms: C_20  and  O_23
REMARK   10  A    between atoms: O_23  and  C_24
REMARK   11  A    between atoms: C_26  and  O_36
REMARK   12  A    between atoms: C_27  and  O_35
REMARK   13  A    between atoms: C_28  and  O_34
REMARK   14  A    between atoms: C_30  and  C_32
REMARK   15  A    between atoms: C_32  and  O_33
REMARK   16  A    between atoms: C_39  and  O_44
REMARK   17  A    between atoms: C_40  and  O_43
REMARK   18  A    between atoms: O_44  and  C_45
REMARK                            x       y       z     vdW  Elec       q    Type
REMARK                         _______ _______ _______ _____ _____    ______ ____
ROOT
ATOM      1  C   UNL     1       6.017  -5.084  24.843  0.00  0.00    +0.131 A 
ATOM      2  C   UNL     1       5.788  -4.094  25.807  0.00  0.00    +0.093 A 
ATOM      3  C   UNL     1       6.485  -2.875  25.745  0.00  0.00    +0.147 A 
ATOM      4  O   UNL     1       6.263  -1.933  26.723  0.00  0.00    -0.451 OA
ATOM      5  C   UNL     1       6.799  -0.640  26.571  0.00  0.00    +0.181 A 
ATOM      6  C   UNL     1       7.755  -0.326  25.652  0.00  0.00    +0.214 A 
ATOM      7  C   UNL     1       8.286  -1.500  24.880  0.00  0.00    +0.238 A 
ATOM      8  O   UNL     1       9.438  -1.570  24.475  0.00  0.00    -0.283 OA
ATOM      9  C   UNL     1       7.412  -2.664  24.738  0.00  0.00    +0.109 A 
ATOM     10  C   UNL     1       7.583  -3.616  23.728  0.00  0.00    +0.135 A 
ATOM     11  C   UNL     1       6.891  -4.820  23.782  0.00  0.00    +0.092 A 
ENDROOT
BRANCH   5  12
ATOM     12  C   UNL     1       6.239   0.322  27.572  0.00  0.00    +0.025 A 
ATOM     13  C   UNL     1       7.032   0.772  28.648  0.00  0.00    +0.015 A 
ATOM     14  C   UNL     1       6.559   1.734  29.544  0.00  0.00    +0.050 A 
ATOM     15  C   UNL     1       5.277   2.248  29.382  0.00  0.00    +0.158 A 
ATOM     16  C   UNL     1       4.461   1.830  28.340  0.00  0.00    +0.162 A 
ATOM     17  C   UNL     1       4.953   0.890  27.429  0.00  0.00    +0.061 A 
BRANCH  15  18
ATOM     18  O   UNL     1       4.842   3.193  30.263  0.00  0.00    -0.503 OA
ATOM     19  H   UNL     1       5.582   3.834  30.331  0.00  0.00    +0.292 HD
ENDBRANCH  15  18
BRANCH  16  20
ATOM     20  O   UNL     1       3.229   2.450  28.299  0.00  0.00    -0.491 OA
ATOM     21  C   UNL     1       2.970   3.327  27.217  0.00  0.00    +0.277 C 
ENDBRANCH  16  20
ENDBRANCH   5  12
BRANCH  10  22
ATOM     22  O   UNL     1       8.406  -3.371  22.666  0.00  0.00    -0.506 OA
ATOM     23  H   UNL     1       7.899  -2.983  21.935  0.00  0.00    +0.292 HD
ENDBRANCH  10  22
BRANCH   6  24
ATOM     24  O   UNL     1       8.215   0.985  25.455  0.00  0.00    -0.453 OA
BRANCH  24  25
ATOM     25  C   UNL     1       7.626   1.763  24.395  0.00  0.00    +0.340 C 
ATOM     26  O   UNL     1       7.736   1.102  23.128  0.00  0.00    -0.331 OA
ATOM     27  C   UNL     1       9.044   1.121  22.552  0.00  0.00    +0.179 C 
ATOM     28  C   UNL     1       9.509   2.559  22.309  0.00  0.00    +0.177 C 
ATOM     29  C   UNL     1       9.542   3.296  23.649  0.00  0.00    +0.180 C 
ATOM     30  C   UNL     1       8.184   3.208  24.343  0.00  0.00    +0.214 C 
BRANCH  28  31
ATOM     31  O   UNL     1      10.808   2.578  21.703  0.00  0.00    -0.386 OA
ATOM     32  H   UNL     1      11.323   3.285  22.142  0.00  0.00    +0.210 HD
ENDBRANCH  28  31
BRANCH  29  33
ATOM     33  O   UNL     1       9.933   4.657  23.403  0.00  0.00    -0.386 OA
ATOM     34  H   UNL     1       9.147   5.155  23.112  0.00  0.00    +0.210 HD
ENDBRANCH  29  33
BRANCH  30  35
ATOM     35  O   UNL     1       8.232   3.822  25.636  0.00  0.00    -0.383 OA
ATOM     36  H   UNL     1       8.400   3.121  26.292  0.00  0.00    +0.210 HD
ENDBRANCH  30  35
BRANCH  27  37
ATOM     37  C   UNL     1       9.046   0.290  21.258  0.00  0.00    +0.190 C 
BRANCH  37  38
ATOM     38  O   UNL     1       9.624  -1.000  21.433  0.00  0.00    -0.392 OA
ATOM     39  H   UNL     1      10.550  -0.859  21.732  0.00  0.00    +0.210 HD
ENDBRANCH  37  38
ENDBRANCH  27  37
ENDBRANCH  24  25
ENDBRANCH   6  24
BRANCH   1  40
ATOM     40  O   UNL     1       5.494  -6.345  24.802  0.00  0.00    -0.461 OA
BRANCH  40  44
ATOM     41  C   UNL     1       1.679  -7.872  26.090  0.00  0.00    +0.041 C 
ATOM     42  C   UNL     1       2.304  -8.169  24.728  0.00  0.00    +0.150 C 
ATOM     43  O   UNL     1       3.716  -7.905  24.762  0.00  0.00    -0.334 OA
ATOM     44  C   UNL     1       4.072  -6.520  24.826  0.00  0.00    +0.339 C 
ATOM     45  C   UNL     1       3.521  -5.804  23.569  0.00  0.00    +0.214 C 
ATOM     46  C   UNL     1       1.991  -5.939  23.568  0.00  0.00    +0.180 C 
ATOM     47  C   UNL     1       1.590  -7.425  23.583  0.00  0.00    +0.174 C 
BRANCH  47  48
ATOM     48  O   UNL     1       1.912  -8.042  22.328  0.00  0.00    -0.387 OA
ATOM     49  H   UNL     1       1.984  -9.009  22.496  0.00  0.00    +0.210 HD
ENDBRANCH  47  48
BRANCH  46  50
ATOM     50  O   UNL     1       1.413  -5.235  22.463  0.00  0.00    -0.386 OA
ATOM     51  H   UNL     1       1.745  -5.642  21.641  0.00  0.00    +0.210 HD
ENDBRANCH  46  50
BRANCH  45  52
ATOM     52  O   UNL     1       4.065  -6.431  22.380  0.00  0.00    -0.383 OA
ATOM     53  H   UNL     1       3.956  -5.782  21.657  0.00  0.00    +0.210 HD
ENDBRANCH  45  52
ENDBRANCH  40  44
ENDBRANCH   1  40
TORSDOF 16
ENDMDL
MODEL 3
REMARK VINA RESULT:      -7.2      2.122      3.191
REMARK  Name = 
REMARK  18 active torsions:
REMARK  status: ('A' for Active; 'I' for Inactive)
REMARK    1  A    between atoms: C_1  and  C_2
REMARK    2  A    between atoms: C_3  and  O_49
REMARK    3  A    between atoms: C_5  and  O_48
REMARK    4  A    between atoms: C_7  and  O_47
REMARK    5  A    between atoms: C_8  and  O_11
REMARK    6  A    between atoms: O_11  and  C_12
REMARK    7  A    between atoms: C_14  and  O_46
REMARK    8  A    between atoms: C_19  and  C_37
REMARK    9  A    between atoms: C_20  and  O_23
REMARK   10  A    between atoms: O_23  and  C_24
REMARK   11  A    between atoms: C_26  and  O_36
REMARK   12  A    between atoms: C_27  and  O_35
REMARK   13  A    between atoms: C_28  and  O_34
REMARK   14  A    between atoms: C_30  and  C_32
REMARK   15  A    between atoms: C_32  and  O_33
REMARK   16  A    between atoms: C_39  and  O_44
REMARK   17  A    between atoms: C_40  and  O_43
REMARK   18  A    between atoms: O_44  and  C_45
REMARK                            x       y       z     vdW  Elec       q    Type
REMARK                         _______ _______ _______ _____ _____    ______ ____
ROOT
ATOM      1  C   UNL     1       6.823  -4.173  24.489  0.00  0.00    +0.131 A 
ATOM      2  C   UNL     1       6.114  -2.966  24.531  0.00  0.00    +0.093 A 
ATOM      3  C   UNL     1       6.790  -1.744  24.366  0.00  0.00    +0.147 A 
ATOM      4  O   UNL     1       6.072  -0.574  24.442  0.00  0.00    -0.451 OA
ATOM      5  C   UNL     1       6.691   0.640  24.087  0.00  0.00    +0.181 A 
ATOM      6  C   UNL     1       8.038   0.780  23.930  0.00  0.00    +0.214 A 
ATOM      7  C   UNL     1       8.835  -0.444  24.280  0.00  0.00    +0.238 A 
ATOM      8  O   UNL     1       9.962  -0.396  24.751  0.00  0.00    -0.283 OA
ATOM      9  C   UNL     1       8.162  -1.739  24.180  0.00  0.00    +0.109 A 
ATOM     10  C   UNL     1       8.860  -2.944  24.056  0.00  0.00    +0.135 A 
ATOM     11  C   UNL     1       8.195  -4.154  24.212  0.00  0.00    +0.092 A 
ENDROOT
BRANCH   5  12
ATOM     12  C   UNL     1       5.704   1.760  23.963  0.00  0.00    +0.025 A 
ATOM     13  C   UNL     1       5.641   2.525  22.781  0.00  0.00    +0.015 A 
ATOM     14  C   UNL     1       4.672   3.517  22.611  0.00  0.00    +0.050 A 
ATOM     15  C   UNL     1       3.760   3.766  23.632  0.00  0.00    +0.158 A 
ATOM     16  C   UNL     1       3.789   3.039  24.814  0.00  0.00    +0.162 A 
ATOM     17  C   UNL     1       4.742   2.026  24.964  0.00  0.00    +0.061 A 
BRANCH  15  18
ATOM     18  O   UNL     1       2.819   4.732  23.438  0.00  0.00    -0.503 OA
ATOM     19  H   UNL     1       2.943   5.023  22.510  0.00  0.00    +0.292 HD
ENDBRANCH  15  18
BRANCH  16  20
ATOM     20  O   UNL     1       2.806   3.385  25.719  0.00  0.00    -0.491 OA
ATOM     21  C   UNL     1       3.196   3.581  27.067  0.00  0.00    +0.277 C 
ENDBRANCH  16  20
ENDBRANCH   5  12
BRANCH  10  22
ATOM     22  O   UNL     1      10.193  -2.953  23.756  0.00  0.00    -0.506 OA
ATOM     23  H   UNL     1      10.323  -2.749  22.815  0.00  0.00    +0.292 HD
ENDBRANCH  10  22
BRANCH   6  24
ATOM     24  O   UNL     1       8.629   1.974  23.491  0.00  0.00    -0.453 OA
BRANCH  24  25
ATOM     25  C   UNL     1       9.392   2.746  24.438  0.00  0.00    +0.340 C 
ATOM     26  O   UNL     1       8.562   3.280  25.477  0.00  0.00    -0.331 OA
ATOM     27  C   UNL     1       7.743   4.384  25.085  0.00  0.00    +0.179 C 
ATOM     28  C   UNL     1       8.604   5.554  24.601  0.00  0.00    +0.177 C 
ATOM     29  C   UNL     1       9.429   5.090  23.400  0.00  0.00    +0.180 C 
ATOM     30  C   UNL     1      10.242   3.847  23.754  0.00  0.00    +0.214 C 
BRANCH  28  31
ATOM     31  O   UNL     1       7.784   6.672  24.236  0.00  0.00    -0.386 OA
ATOM     32  H   UNL     1       7.558   6.569  23.290  0.00  0.00    +0.210 HD
ENDBRANCH  28  31
BRANCH  29  33
ATOM     33  O   UNL     1      10.268   6.181  22.985  0.00  0.00    -0.386 OA
ATOM     34  H   UNL     1      10.213   6.885  23.658  0.00  0.00    +0.210 HD
ENDBRANCH  29  33
BRANCH  30  35
ATOM     35  O   UNL     1      10.951   3.358  22.610  0.00  0.00    -0.383 OA
ATOM     36  H   UNL     1      11.338   4.126  22.150  0.00  0.00    +0.210 HD
ENDBRANCH  30  35
BRANCH  27  37
ATOM     37  C   UNL     1       6.831   4.787  26.255  0.00  0.00    +0.190 C 
BRANCH  37  38
ATOM     38  O   UNL     1       5.792   5.678  25.862  0.00  0.00    -0.392 OA
ATOM     39  H   UNL     1       5.023   5.496  26.448  0.00  0.00    +0.210 HD
ENDBRANCH  37  38
ENDBRANCH  27  37
ENDBRANCH  24  25
ENDBRANCH   6  24
BRANCH   1  40
ATOM     40  O   UNL     1       6.342  -5.432  24.712  0.00  0.00    -0.461 OA
BRANCH  40  44
ATOM     41  C   UNL     1       2.957  -5.536  27.371  0.00  0.00    +0.041 C 
ATOM     42  C   UNL     1       3.543  -6.767  26.684  0.00  0.00    +0.150 C 
ATOM     43  O   UNL     1       4.881  -6.496  26.238  0.00  0.00    -0.334 OA
ATOM     44  C   UNL     1       4.980  -5.604  25.123  0.00  0.00    +0.339 C 
ATOM     45  C   UNL     1       4.233  -6.223  23.919  0.00  0.00    +0.214 C 
ATOM     46  C   UNL     1       2.757  -6.399  24.303  0.00  0.00    +0.180 C 
ATOM     47  C   UNL     1       2.637  -7.291  25.552  0.00  0.00    +0.174 C 
BRANCH  47  48
ATOM     48  O   UNL     1       2.991  -8.645  25.235  0.00  0.00    -0.387 OA
ATOM     49  H   UNL     1       3.738  -8.602  24.597  0.00  0.00    +0.210 HD
ENDBRANCH  47  48
BRANCH  46  50
ATOM     50  O   UNL     1       1.994  -6.906  23.203  0.00  0.00    -0.386 OA
ATOM     51  H   UNL     1       1.949  -6.210  22.522  0.00  0.00    +0.210 HD
ENDBRANCH  46  50
BRANCH  45  52
ATOM     52  O   UNL     1       4.811  -7.517  23.607  0.00  0.00    -0.383 OA
ATOM     53  H   UNL     1       4.120  -8.014  23.127  0.00  0.00    +0.210 HD
ENDBRANCH  45  52
ENDBRANCH  40  44
ENDBRANCH   1  40
TORSDOF 16
ENDMDL
MODEL 4
REMARK VINA RESULT:      -7.2      2.351     10.065
REMARK  Name = 
REMARK  18 active torsions:
REMARK  status: ('A' for Active; 'I' for Inactive)
REMARK    1  A    between atoms: C_1  and  C_2
REMARK    2  A    between atoms: C_3  and  O_49
REMARK    3  A    between atoms: C_5  and  O_48
REMARK    4  A    between atoms: C_7  and  O_47
REMARK    5  A    between atoms: C_8  and  O_11
REMARK    6  A    between atoms: O_11  and  C_12
REMARK    7  A    between atoms: C_14  and  O_46
REMARK    8  A    between atoms: C_19  and  C_37
REMARK    9  A    between atoms: C_20  and  O_23
REMARK   10  A    between atoms: O_23  and  C_24
REMARK   11  A    between atoms: C_26  and  O_36
REMARK   12  A    between atoms: C_27  and  O_35
REMARK   13  A    between atoms: C_28  and  O_34
REMARK   14  A    between atoms: C_30  and  C_32
REMARK   15  A    between atoms: C_32  and  O_33
REMARK   16  A    between atoms: C_39  and  O_44
REMARK   17  A    between atoms: C_40  and  O_43
REMARK   18  A    between atoms: O_44  and  C_45
REMARK                            x       y       z     vdW  Elec       q    Type
REMARK                         _______ _______ _______ _____ _____    ______ ____
ROOT
ATOM      1  C   UNL     1       9.338  -0.462  23.989  0.00  0.00    +0.131 A 
ATOM      2  C   UNL     1       8.381  -0.695  24.985  0.00  0.00    +0.093 A 
ATOM      3  C   UNL     1       7.471  -1.759  24.855  0.00  0.00    +0.147 A 
ATOM      4  O   UNL     1       6.522  -1.945  25.833  0.00  0.00    -0.451 OA
ATOM      5  C   UNL     1       5.736  -3.112  25.819  0.00  0.00    +0.181 A 
ATOM      6  C   UNL     1       5.656  -3.953  24.749  0.00  0.00    +0.214 A 
ATOM      7  C   UNL     1       6.387  -3.475  23.527  0.00  0.00    +0.238 A 
ATOM      8  O   UNL     1       6.015  -3.714  22.387  0.00  0.00    -0.283 OA
ATOM      9  C   UNL     1       7.514  -2.565  23.729  0.00  0.00    +0.109 A 
ATOM     10  C   UNL     1       8.519  -2.386  22.773  0.00  0.00    +0.135 A 
ATOM     11  C   UNL     1       9.424  -1.339  22.902  0.00  0.00    +0.092 A 
ENDROOT
BRANCH   5  12
ATOM     12  C   UNL     1       4.961  -3.283  27.089  0.00  0.00    +0.025 A 
ATOM     13  C   UNL     1       3.788  -2.534  27.313  0.00  0.00    +0.015 A 
ATOM     14  C   UNL     1       3.003  -2.739  28.451  0.00  0.00    +0.050 A 
ATOM     15  C   UNL     1       3.393  -3.690  29.389  0.00  0.00    +0.158 A 
ATOM     16  C   UNL     1       4.542  -4.446  29.210  0.00  0.00    +0.162 A 
ATOM     17  C   UNL     1       5.305  -4.257  28.053  0.00  0.00    +0.061 A 
BRANCH  15  18
ATOM     18  O   UNL     1       2.605  -3.878  30.485  0.00  0.00    -0.503 OA
ATOM     19  H   UNL     1       2.415  -2.975  30.818  0.00  0.00    +0.292 HD
ENDBRANCH  15  18
BRANCH  16  20
ATOM     20  O   UNL     1       4.781  -5.364  30.213  0.00  0.00    -0.491 OA
ATOM     21  C   UNL     1       5.779  -6.343  29.983  0.00  0.00    +0.277 C 
ENDBRANCH  16  20
ENDBRANCH   5  12
BRANCH  10  22
ATOM     22  O   UNL     1       8.644  -3.246  21.719  0.00  0.00    -0.506 OA
ATOM     23  H   UNL     1       8.700  -2.747  20.888  0.00  0.00    +0.292 HD
ENDBRANCH  10  22
BRANCH   6  24
ATOM     24  O   UNL     1       4.936  -5.156  24.783  0.00  0.00    -0.453 OA
BRANCH  24  25
ATOM     25  C   UNL     1       3.513  -5.106  24.567  0.00  0.00    +0.340 C 
ATOM     26  O   UNL     1       2.784  -5.276  25.789  0.00  0.00    -0.331 OA
ATOM     27  C   UNL     1       2.761  -6.612  26.295  0.00  0.00    +0.179 C 
ATOM     28  C   UNL     1       2.107  -7.563  25.289  0.00  0.00    +0.177 C 
ATOM     29  C   UNL     1       2.915  -7.533  23.991  0.00  0.00    +0.180 C 
ATOM     30  C   UNL     1       3.047  -6.102  23.474  0.00  0.00    +0.214 C 
BRANCH  28  31
ATOM     31  O   UNL     1       2.056  -8.898  25.809  0.00  0.00    -0.386 OA
ATOM     32  H   UNL     1       2.976  -9.233  25.837  0.00  0.00    +0.210 HD
ENDBRANCH  28  31
BRANCH  29  33
ATOM     33  O   UNL     1       2.265  -8.391  23.039  0.00  0.00    -0.386 OA
ATOM     34  H   UNL     1       1.337  -8.105  22.949  0.00  0.00    +0.210 HD
ENDBRANCH  29  33
BRANCH  30  35
ATOM     35  O   UNL     1       3.873  -6.057  22.305  0.00  0.00    -0.383 OA
ATOM     36  H   UNL     1       3.855  -5.143  21.964  0.00  0.00    +0.210 HD
ENDBRANCH  30  35
BRANCH  27  37
ATOM     37  C   UNL     1       2.045  -6.633  27.655  0.00  0.00    +0.190 C 
BRANCH  37  38
ATOM     38  O   UNL     1       2.316  -7.814  28.403  0.00  0.00    -0.392 OA
ATOM     39  H   UNL     1       2.842  -7.541  29.187  0.00  0.00    +0.210 HD
ENDBRANCH  37  38
ENDBRANCH  27  37
ENDBRANCH  24  25
ENDBRANCH   6  24
BRANCH   1  40
ATOM     40  O   UNL     1      10.234   0.567  23.917  0.00  0.00    -0.461 OA
BRANCH  40  44
ATOM     41  C   UNL     1       7.919   3.640  25.850  0.00  0.00    +0.041 C 
ATOM     42  C   UNL     1       7.917   3.387  24.344  0.00  0.00    +0.150 C 
ATOM     43  O   UNL     1       8.412   2.069  24.061  0.00  0.00    -0.334 OA
ATOM     44  C   UNL     1       9.817   1.890  24.273  0.00  0.00    +0.339 C 
ATOM     45  C   UNL     1      10.589   2.857  23.344  0.00  0.00    +0.214 C 
ATOM     46  C   UNL     1      10.196   4.296  23.710  0.00  0.00    +0.180 C 
ATOM     47  C   UNL     1       8.674   4.482  23.567  0.00  0.00    +0.174 C 
BRANCH  47  48
ATOM     48  O   UNL     1       8.293   4.448  22.184  0.00  0.00    -0.387 OA
ATOM     49  H   UNL     1       8.352   3.509  21.896  0.00  0.00    +0.210 HD
ENDBRANCH  47  48
BRANCH  46  50
ATOM     50  O   UNL     1      10.930   5.246  22.929  0.00  0.00    -0.386 OA
ATOM     51  H   UNL     1      10.630   6.139  23.182  0.00  0.00    +0.210 HD
ENDBRANCH  46  50
BRANCH  45  52
ATOM     52  O   UNL     1      10.228   2.591  21.964  0.00  0.00    -0.383 OA
ATOM     53  H   UNL     1      10.327   1.627  21.839  0.00  0.00    +0.210 HD
ENDBRANCH  45  52
ENDBRANCH  40  44
ENDBRANCH   1  40
TORSDOF 16
ENDMDL
MODEL 5
REMARK VINA RESULT:      -7.1      2.298      5.017
REMARK  Name = 
REMARK  18 active torsions:
REMARK  status: ('A' for Active; 'I' for Inactive)
REMARK    1  A    between atoms: C_1  and  C_2
REMARK    2  A    between atoms: C_3  and  O_49
REMARK    3  A    between atoms: C_5  and  O_48
REMARK    4  A    between atoms: C_7  and  O_47
REMARK    5  A    between atoms: C_8  and  O_11
REMARK    6  A    between atoms: O_11  and  C_12
REMARK    7  A    between atoms: C_14  and  O_46
REMARK    8  A    between atoms: C_19  and  C_37
REMARK    9  A    between atoms: C_20  and  O_23
REMARK   10  A    between atoms: O_23  and  C_24
REMARK   11  A    between atoms: C_26  and  O_36
REMARK   12  A    between atoms: C_27  and  O_35
REMARK   13  A    between atoms: C_28  and  O_34
REMARK   14  A    between atoms: C_30  and  C_32
REMARK   15  A    between atoms: C_32  and  O_33
REMARK   16  A    between atoms: C_39  and  O_44
REMARK   17  A    between atoms: C_40  and  O_43
REMARK   18  A    between atoms: O_44  and  C_45
REMARK                            x       y       z     vdW  Elec       q    Type
REMARK                         _______ _______ _______ _____ _____    ______ ____
ROOT
ATOM      1  C   UNL     1       5.114  -5.236  25.286  0.00  0.00    +0.131 A 
ATOM      2  C   UNL     1       5.744  -4.212  24.567  0.00  0.00    +0.093 A 
ATOM      3  C   UNL     1       5.946  -2.954  25.162  0.00  0.00    +0.147 A 
ATOM      4  O   UNL     1       6.540  -1.958  24.422  0.00  0.00    -0.451 OA
ATOM      5  C   UNL     1       6.926  -0.763  25.058  0.00  0.00    +0.181 A 
ATOM      6  C   UNL     1       6.510  -0.406  26.306  0.00  0.00    +0.214 A 
ATOM      7  C   UNL     1       5.503  -1.339  26.916  0.00  0.00    +0.238 A 
ATOM      8  O   UNL     1       4.622  -0.967  27.678  0.00  0.00    -0.283 OA
ATOM      9  C   UNL     1       5.503  -2.727  26.455  0.00  0.00    +0.109 A 
ATOM     10  C   UNL     1       4.948  -3.770  27.202  0.00  0.00    +0.135 A 
ATOM     11  C   UNL     1       4.753  -5.016  26.620  0.00  0.00    +0.092 A 
ENDROOT
BRANCH   5  12
ATOM     12  C   UNL     1       7.793   0.086  24.181  0.00  0.00    +0.025 A 
ATOM     13  C   UNL     1       9.178  -0.162  24.095  0.00  0.00    +0.015 A 
ATOM     14  C   UNL     1       9.991   0.562  23.218  0.00  0.00    +0.050 A 
ATOM     15  C   UNL     1       9.427   1.557  22.425  0.00  0.00    +0.158 A 
ATOM     16  C   UNL     1       8.070   1.836  22.481  0.00  0.00    +0.162 A 
ATOM     17  C   UNL     1       7.257   1.086  23.338  0.00  0.00    +0.061 A 
BRANCH  15  18
ATOM     18  O   UNL     1      10.239   2.241  21.571  0.00  0.00    -0.503 OA
ATOM     19  H   UNL     1       9.635   2.620  20.898  0.00  0.00    +0.292 HD
ENDBRANCH  15  18
BRANCH  16  20
ATOM     20  O   UNL     1       7.657   2.831  21.618  0.00  0.00    -0.491 OA
ATOM     21  C   UNL     1       7.240   4.061  22.184  0.00  0.00    +0.277 C 
ENDBRANCH  16  20
ENDBRANCH   5  12
BRANCH  10  22
ATOM     22  O   UNL     1       4.615  -3.590  28.515  0.00  0.00    -0.506 OA
ATOM     23  H   UNL     1       5.418  -3.463  29.046  0.00  0.00    +0.292 HD
ENDBRANCH  10  22
BRANCH   6  24
ATOM     24  O   UNL     1       6.973   0.746  26.959  0.00  0.00    -0.453 OA
BRANCH  24  25
ATOM     25  C   UNL     1       6.002   1.646  27.527  0.00  0.00    +0.340 C 
ATOM     26  O   UNL     1       5.074   2.116  26.541  0.00  0.00    -0.331 OA
ATOM     27  C   UNL     1       5.598   3.092  25.639  0.00  0.00    +0.179 C 
ATOM     28  C   UNL     1       6.062   4.338  26.396  0.00  0.00    +0.177 C 
ATOM     29  C   UNL     1       7.156   3.932  27.385  0.00  0.00    +0.180 C 
ATOM     30  C   UNL     1       6.663   2.815  28.302  0.00  0.00    +0.214 C 
BRANCH  28  31
ATOM     31  O   UNL     1       6.560   5.330  25.488  0.00  0.00    -0.386 OA
ATOM     32  H   UNL     1       7.477   5.536  25.759  0.00  0.00    +0.210 HD
ENDBRANCH  28  31
BRANCH  29  33
ATOM     33  O   UNL     1       7.549   5.100  28.124  0.00  0.00    -0.386 OA
ATOM     34  H   UNL     1       7.120   5.070  28.999  0.00  0.00    +0.210 HD
ENDBRANCH  29  33
BRANCH  30  35
ATOM     35  O   UNL     1       7.709   2.371  29.173  0.00  0.00    -0.383 OA
ATOM     36  H   UNL     1       8.551   2.447  28.689  0.00  0.00    +0.210 HD
ENDBRANCH  30  35
BRANCH  27  37
ATOM     37  C   UNL     1       4.540   3.426  24.574  0.00  0.00    +0.190 C 
BRANCH  37  38
ATOM     38  O   UNL     1       3.862   2.272  24.089  0.00  0.00    -0.392 OA
ATOM     39  H   UNL     1       4.420   1.495  24.321  0.00  0.00    +0.210 HD
ENDBRANCH  37  38
ENDBRANCH  27  37
ENDBRANCH  24  25
ENDBRANCH   6  24
BRANCH   1  40
ATOM     40  O   UNL     1       4.766  -6.478  24.837  0.00  0.00    -0.461 OA
BRANCH  40  44
ATOM     41  C   UNL     1       1.051  -8.528  25.566  0.00  0.00    +0.041 C 
ATOM     42  C   UNL     1       1.845  -8.633  24.266  0.00  0.00    +0.150 C 
ATOM     43  O   UNL     1       3.203  -8.217  24.479  0.00  0.00    -0.334 OA
ATOM     44  C   UNL     1       3.381  -6.812  24.686  0.00  0.00    +0.339 C 
ATOM     45  C   UNL     1       2.882  -6.054  23.433  0.00  0.00    +0.214 C 
ATOM     46  C   UNL     1       1.388  -6.358  23.248  0.00  0.00    +0.180 C 
ATOM     47  C   UNL     1       1.169  -7.876  23.106  0.00  0.00    +0.174 C 
BRANCH  47  48
ATOM     48  O   UNL     1       1.691  -8.341  21.853  0.00  0.00    -0.387 OA
ATOM     49  H   UNL     1       2.106  -9.216  22.025  0.00  0.00    +0.210 HD
ENDBRANCH  47  48
BRANCH  46  50
ATOM     50  O   UNL     1       0.847  -5.630  22.140  0.00  0.00    -0.386 OA
ATOM     51  H   UNL     1      -0.120  -5.760  22.138  0.00  0.00    +0.210 HD
ENDBRANCH  46  50
BRANCH  45  52
ATOM     52  O   UNL     1       3.618  -6.510  22.269  0.00  0.00    -0.383 OA
ATOM     53  H   UNL     1       2.963  -6.941  21.685  0.00  0.00    +0.210 HD
ENDBRANCH  45  52
ENDBRANCH  40  44
ENDBRANCH   1  40
TORSDOF 16
ENDMDL
MODEL 6
REMARK VINA RESULT:      -6.9      2.474      9.096
REMARK  Name = 
REMARK  18 active torsions:
REMARK  status: ('A' for Active; 'I' for Inactive)
REMARK    1  A    between atoms: C_1  and  C_2
REMARK    2  A    between atoms: C_3  and  O_49
REMARK    3  A    between atoms: C_5  and  O_48
REMARK    4  A    between atoms: C_7  and  O_47
REMARK    5  A    between atoms: C_8  and  O_11
REMARK    6  A    between atoms: O_11  and  C_12
REMARK    7  A    between atoms: C_14  and  O_46
REMARK    8  A    between atoms: C_19  and  C_37
REMARK    9  A    between atoms: C_20  and  O_23
REMARK   10  A    between atoms: O_23  and  C_24
REMARK   11  A    between atoms: C_26  and  O_36
REMARK   12  A    between atoms: C_27  and  O_35
REMARK   13  A    between atoms: C_28  and  O_34
REMARK   14  A    between atoms: C_30  and  C_32
REMARK   15  A    between atoms: C_32  and  O_33
REMARK   16  A    between atoms: C_39  and  O_44
REMARK   17  A    between atoms: C_40  and  O_43
REMARK   18  A    between atoms: O_44  and  C_45
REMARK                            x       y       z     vdW  Elec       q    Type
REMARK                         _______ _______ _______ _____ _____    ______ ____
ROOT
ATOM      1  C   UNL     1       8.546   0.436  24.551  0.00  0.00    +0.131 A 
ATOM      2  C   UNL     1       7.505   0.054  25.407  0.00  0.00    +0.093 A 
ATOM      3  C   UNL     1       6.655  -1.009  25.054  0.00  0.00    +0.147 A 
ATOM      4  O   UNL     1       5.622  -1.341  25.898  0.00  0.00    -0.451 OA
ATOM      5  C   UNL     1       4.887  -2.519  25.661  0.00  0.00    +0.181 A 
ATOM      6  C   UNL     1       4.947  -3.220  24.493  0.00  0.00    +0.214 A 
ATOM      7  C   UNL     1       5.777  -2.573  23.422  0.00  0.00    +0.238 A 
ATOM      8  O   UNL     1       5.529  -2.677  22.229  0.00  0.00    -0.283 OA
ATOM      9  C   UNL     1       6.842  -1.665  23.848  0.00  0.00    +0.109 A 
ATOM     10  C   UNL     1       7.929  -1.341  23.031  0.00  0.00    +0.135 A 
ATOM     11  C   UNL     1       8.774  -0.295  23.380  0.00  0.00    +0.092 A 
ENDROOT
BRANCH   5  12
ATOM     12  C   UNL     1       3.997  -2.868  26.813  0.00  0.00    +0.025 A 
ATOM     13  C   UNL     1       2.599  -2.719  26.703  0.00  0.00    +0.015 A 
ATOM     14  C   UNL     1       1.745  -3.119  27.734  0.00  0.00    +0.050 A 
ATOM     15  C   UNL     1       2.282  -3.662  28.897  0.00  0.00    +0.158 A 
ATOM     16  C   UNL     1       3.652  -3.823  29.048  0.00  0.00    +0.162 A 
ATOM     17  C   UNL     1       4.499  -3.449  28.000  0.00  0.00    +0.061 A 
BRANCH  15  18
ATOM     18  O   UNL     1       1.427  -4.054  29.883  0.00  0.00    -0.503 OA
ATOM     19  H   UNL     1       1.106  -4.938  29.603  0.00  0.00    +0.292 HD
ENDBRANCH  15  18
BRANCH  16  20
ATOM     20  O   UNL     1       4.028  -4.397  30.245  0.00  0.00    -0.491 OA
ATOM     21  C   UNL     1       5.165  -5.243  30.239  0.00  0.00    +0.277 C 
ENDBRANCH  16  20
ENDBRANCH   5  12
BRANCH  10  22
ATOM     22  O   UNL     1       8.191  -2.058  21.899  0.00  0.00    -0.506 OA
ATOM     23  H   UNL     1       7.523  -2.753  21.783  0.00  0.00    +0.292 HD
ENDBRANCH  10  22
BRANCH   6  24
ATOM     24  O   UNL     1       4.276  -4.437  24.306  0.00  0.00    -0.453 OA
BRANCH  24  25
ATOM     25  C   UNL     1       5.014  -5.660  24.496  0.00  0.00    +0.340 C 
ATOM     26  O   UNL     1       5.862  -5.594  25.649  0.00  0.00    -0.331 OA
ATOM     27  C   UNL     1       7.034  -4.793  25.489  0.00  0.00    +0.179 C 
ATOM     28  C   UNL     1       7.914  -5.337  24.361  0.00  0.00    +0.177 C 
ATOM     29  C   UNL     1       7.110  -5.315  23.059  0.00  0.00    +0.180 C 
ATOM     30  C   UNL     1       5.798  -6.078  23.225  0.00  0.00    +0.214 C 
BRANCH  28  31
ATOM     31  O   UNL     1       9.105  -4.551  24.220  0.00  0.00    -0.386 OA
ATOM     32  H   UNL     1       9.287  -4.143  25.090  0.00  0.00    +0.210 HD
ENDBRANCH  28  31
BRANCH  29  33
ATOM     33  O   UNL     1       7.929  -5.873  22.018  0.00  0.00    -0.386 OA
ATOM     34  H   UNL     1       8.594  -5.208  21.759  0.00  0.00    +0.210 HD
ENDBRANCH  29  33
BRANCH  30  35
ATOM     35  O   UNL     1       5.003  -5.990  22.038  0.00  0.00    -0.383 OA
ATOM     36  H   UNL     1       4.750  -6.896  21.782  0.00  0.00    +0.210 HD
ENDBRANCH  30  35
BRANCH  27  37
ATOM     37  C   UNL     1       7.792  -4.720  26.825  0.00  0.00    +0.190 C 
BRANCH  37  38
ATOM     38  O   UNL     1       7.734  -5.939  27.558  0.00  0.00    -0.392 OA
ATOM     39  H   UNL     1       7.719  -6.668  26.898  0.00  0.00    +0.210 HD
ENDBRANCH  37  38
ENDBRANCH  27  37
ENDBRANCH  24  25
ENDBRANCH   6  24
BRANCH   1  40
ATOM     40  O   UNL     1       9.403   1.489  24.699  0.00  0.00    -0.461 OA
BRANCH  40  44
ATOM     41  C   UNL     1       6.648   4.696  25.516  0.00  0.00    +0.041 C 
ATOM     42  C   UNL     1       6.970   4.181  24.115  0.00  0.00    +0.150 C 
ATOM     43  O   UNL     1       7.550   2.869  24.190  0.00  0.00    -0.334 OA
ATOM     44  C   UNL     1       8.884   2.824  24.709  0.00  0.00    +0.339 C 
ATOM     45  C   UNL     1       9.806   3.661  23.790  0.00  0.00    +0.214 C 
ATOM     46  C   UNL     1       9.305   5.112  23.794  0.00  0.00    +0.180 C 
ATOM     47  C   UNL     1       7.842   5.169  23.315  0.00  0.00    +0.174 C 
BRANCH  47  48
ATOM     48  O   UNL     1       7.762   4.864  21.916  0.00  0.00    -0.387 OA
ATOM     49  H   UNL     1       8.629   4.477  21.658  0.00  0.00    +0.210 HD
ENDBRANCH  47  48
BRANCH  46  50
ATOM     50  O   UNL     1      10.160   5.955  23.014  0.00  0.00    -0.386 OA
ATOM     51  H   UNL     1      11.072   5.838  23.337  0.00  0.00    +0.210 HD
ENDBRANCH  46  50
BRANCH  45  52
ATOM     52  O   UNL     1       9.751   3.131  22.441  0.00  0.00    -0.383 OA
ATOM     53  H   UNL     1       8.807   2.953  22.258  0.00  0.00    +0.210 HD
ENDBRANCH  45  52
ENDBRANCH  40  44
ENDBRANCH   1  40
TORSDOF 16
ENDMDL
MODEL 7
REMARK VINA RESULT:      -6.8      2.853     10.242
REMARK  Name = 
REMARK  18 active torsions:
REMARK  status: ('A' for Active; 'I' for Inactive)
REMARK    1  A    between atoms: C_1  and  C_2
REMARK    2  A    between atoms: C_3  and  O_49
REMARK    3  A    between atoms: C_5  and  O_48
REMARK    4  A    between atoms: C_7  and  O_47
REMARK    5  A    between atoms: C_8  and  O_11
REMARK    6  A    between atoms: O_11  and  C_12
REMARK    7  A    between atoms: C_14  and  O_46
REMARK    8  A    between atoms: C_19  and  C_37
REMARK    9  A    between atoms: C_20  and  O_23
REMARK   10  A    between atoms: O_23  and  C_24
REMARK   11  A    between atoms: C_26  and  O_36
REMARK   12  A    between atoms: C_27  and  O_35
REMARK   13  A    between atoms: C_28  and  O_34
REMARK   14  A    between atoms: C_30  and  C_32
REMARK   15  A    between atoms: C_32  and  O_33
REMARK   16  A    between atoms: C_39  and  O_44
REMARK   17  A    between atoms: C_40  and  O_43
REMARK   18  A    between atoms: O_44  and  C_45
REMARK                            x       y       z     vdW  Elec       q    Type
REMARK                         _______ _______ _______ _____ _____    ______ ____
ROOT
ATOM      1  C   UNL     1       8.162   0.998  23.905  0.00  0.00    +0.131 A 
ATOM      2  C   UNL     1       7.071   0.157  23.651  0.00  0.00    +0.093 A 
ATOM      3  C   UNL     1       6.805  -0.930  24.502  0.00  0.00    +0.147 A 
ATOM      4  O   UNL     1       5.746  -1.757  24.210  0.00  0.00    -0.451 OA
ATOM      5  C   UNL     1       5.347  -2.726  25.151  0.00  0.00    +0.181 A 
ATOM      6  C   UNL     1       6.105  -3.090  26.223  0.00  0.00    +0.214 A 
ATOM      7  C   UNL     1       7.467  -2.458  26.265  0.00  0.00    +0.238 A 
ATOM      8  O   UNL     1       8.449  -3.014  26.735  0.00  0.00    -0.283 OA
ATOM      9  C   UNL     1       7.636  -1.175  25.582  0.00  0.00    +0.109 A 
ATOM     10  C   UNL     1       8.676  -0.291  25.886  0.00  0.00    +0.135 A 
ATOM     11  C   UNL     1       8.938   0.788  25.050  0.00  0.00    +0.092 A 
ENDROOT
BRANCH   5  12
ATOM     12  C   UNL     1       4.029  -3.343  24.798  0.00  0.00    +0.025 A 
ATOM     13  C   UNL     1       3.940  -4.286  23.754  0.00  0.00    +0.015 A 
ATOM     14  C   UNL     1       2.738  -4.937  23.466  0.00  0.00    +0.050 A 
ATOM     15  C   UNL     1       1.602  -4.639  24.211  0.00  0.00    +0.158 A 
ATOM     16  C   UNL     1       1.643  -3.714  25.244  0.00  0.00    +0.162 A 
ATOM     17  C   UNL     1       2.858  -3.090  25.548  0.00  0.00    +0.061 A 
BRANCH  15  18
ATOM     18  O   UNL     1       0.444  -5.294  23.916  0.00  0.00    -0.503 OA
ATOM     19  H   UNL     1      -0.264  -4.752  24.325  0.00  0.00    +0.292 HD
ENDBRANCH  15  18
BRANCH  16  20
ATOM     20  O   UNL     1       0.443  -3.545  25.905  0.00  0.00    -0.491 OA
ATOM     21  C   UNL     1       0.443  -3.694  27.314  0.00  0.00    +0.277 C 
ENDBRANCH  16  20
ENDBRANCH   5  12
BRANCH  10  22
ATOM     22  O   UNL     1       9.429  -0.457  27.013  0.00  0.00    -0.506 OA
ATOM     23  H   UNL     1      10.309  -0.067  26.885  0.00  0.00    +0.292 HD
ENDBRANCH  10  22
BRANCH   6  24
ATOM     24  O   UNL     1       5.655  -3.993  27.198  0.00  0.00    -0.453 OA
BRANCH  24  25
ATOM     25  C   UNL     1       5.594  -5.392  26.856  0.00  0.00    +0.340 C 
ATOM     26  O   UNL     1       4.259  -5.903  26.947  0.00  0.00    -0.331 OA
ATOM     27  C   UNL     1       3.781  -6.105  28.278  0.00  0.00    +0.179 C 
ATOM     28  C   UNL     1       4.660  -7.112  29.023  0.00  0.00    +0.177 C 
ATOM     29  C   UNL     1       6.089  -6.568  29.081  0.00  0.00    +0.180 C 
ATOM     30  C   UNL     1       6.596  -6.243  27.678  0.00  0.00    +0.214 C 
BRANCH  28  31
ATOM     31  O   UNL     1       4.164  -7.338  30.349  0.00  0.00    -0.386 OA
ATOM     32  H   UNL     1       4.899  -7.716  30.873  0.00  0.00    +0.210 HD
ENDBRANCH  28  31
BRANCH  29  33
ATOM     33  O   UNL     1       6.914  -7.543  29.739  0.00  0.00    -0.386 OA
ATOM     34  H   UNL     1       7.308  -8.121  29.060  0.00  0.00    +0.210 HD
ENDBRANCH  29  33
BRANCH  30  35
ATOM     35  O   UNL     1       7.900  -5.654  27.730  0.00  0.00    -0.383 OA
ATOM     36  H   UNL     1       7.813  -4.716  27.479  0.00  0.00    +0.210 HD
ENDBRANCH  30  35
BRANCH  27  37
ATOM     37  C   UNL     1       2.310  -6.548  28.233  0.00  0.00    +0.190 C 
BRANCH  37  38
ATOM     38  O   UNL     1       1.672  -6.471  29.505  0.00  0.00    -0.392 OA
ATOM     39  H   UNL     1       0.708  -6.586  29.347  0.00  0.00    +0.210 HD
ENDBRANCH  37  38
ENDBRANCH  27  37
ENDBRANCH  24  25
ENDBRANCH   6  24
BRANCH   1  40
ATOM     40  O   UNL     1       8.610   2.038  23.141  0.00  0.00    -0.461 OA
BRANCH  40  44
ATOM     41  C   UNL     1       7.939   5.418  25.723  0.00  0.00    +0.041 C 
ATOM     42  C   UNL     1       6.838   4.714  24.931  0.00  0.00    +0.150 C 
ATOM     43  O   UNL     1       7.273   3.404  24.535  0.00  0.00    -0.334 OA
ATOM     44  C   UNL     1       8.274   3.380  23.512  0.00  0.00    +0.339 C 
ATOM     45  C   UNL     1       7.706   4.057  22.242  0.00  0.00    +0.214 C 
ATOM     46  C   UNL     1       7.359   5.514  22.584  0.00  0.00    +0.180 C 
ATOM     47  C   UNL     1       6.344   5.559  23.741  0.00  0.00    +0.174 C 
BRANCH  47  48
ATOM     48  O   UNL     1       5.065   5.078  23.302  0.00  0.00    -0.387 OA
ATOM     49  H   UNL     1       4.745   4.451  23.990  0.00  0.00    +0.210 HD
ENDBRANCH  47  48
BRANCH  46  50
ATOM     50  O   UNL     1       6.891   6.217  21.429  0.00  0.00    -0.386 OA
ATOM     51  H   UNL     1       6.432   5.578  20.853  0.00  0.00    +0.210 HD
ENDBRANCH  46  50
BRANCH  45  52
ATOM     52  O   UNL     1       6.508   3.359  21.818  0.00  0.00    -0.383 OA
ATOM     53  H   UNL     1       6.695   3.016  20.922  0.00  0.00    +0.210 HD
ENDBRANCH  45  52
ENDBRANCH  40  44
ENDBRANCH   1  40
TORSDOF 16
ENDMDL
MODEL 8
REMARK VINA RESULT:      -6.7      2.459     10.823
REMARK  Name = 
REMARK  18 active torsions:
REMARK  status: ('A' for Active; 'I' for Inactive)
REMARK    1  A    between atoms: C_1  and  C_2
REMARK    2  A    between atoms: C_3  and  O_49
REMARK    3  A    between atoms: C_5  and  O_48
REMARK    4  A    between atoms: C_7  and  O_47
REMARK    5  A    between atoms: C_8  and  O_11
REMARK    6  A    between atoms: O_11  and  C_12
REMARK    7  A    between atoms: C_14  and  O_46
REMARK    8  A    between atoms: C_19  and  C_37
REMARK    9  A    between atoms: C_20  and  O_23
REMARK   10  A    between atoms: O_23  and  C_24
REMARK   11  A    between atoms: C_26  and  O_36
REMARK   12  A    between atoms: C_27  and  O_35
REMARK   13  A    between atoms: C_28  and  O_34
REMARK   14  A    between atoms: C_30  and  C_32
REMARK   15  A    between atoms: C_32  and  O_33
REMARK   16  A    between atoms: C_39  and  O_44
REMARK   17  A    between atoms: C_40  and  O_43
REMARK   18  A    between atoms: O_44  and  C_45
REMARK                            x       y       z     vdW  Elec       q    Type
REMARK                         _______ _______ _______ _____ _____    ______ ____
ROOT
ATOM      1  C   UNL     1       5.746   2.817  24.911  0.00  0.00    +0.131 A 
ATOM      2  C   UNL     1       5.949   1.541  24.368  0.00  0.00    +0.093 A 
ATOM      3  C   UNL     1       5.561   0.398  25.090  0.00  0.00    +0.147 A 
ATOM      4  O   UNL     1       5.802  -0.842  24.547  0.00  0.00    -0.451 OA
ATOM      5  C   UNL     1       5.248  -1.983  25.158  0.00  0.00    +0.181 A 
ATOM      6  C   UNL     1       4.711  -1.978  26.411  0.00  0.00    +0.214 A 
ATOM      7  C   UNL     1       4.859  -0.677  27.146  0.00  0.00    +0.238 A 
ATOM      8  O   UNL     1       4.989  -0.605  28.360  0.00  0.00    -0.283 OA
ATOM      9  C   UNL     1       4.994   0.539  26.345  0.00  0.00    +0.109 A 
ATOM     10  C   UNL     1       4.715   1.811  26.853  0.00  0.00    +0.135 A 
ATOM     11  C   UNL     1       5.091   2.943  26.141  0.00  0.00    +0.092 A 
ENDROOT
BRANCH   5  12
ATOM     12  C   UNL     1       5.374  -3.201  24.296  0.00  0.00    +0.025 A 
ATOM     13  C   UNL     1       6.647  -3.702  23.954  0.00  0.00    +0.015 A 
ATOM     14  C   UNL     1       6.787  -4.884  23.223  0.00  0.00    +0.050 A 
ATOM     15  C   UNL     1       5.651  -5.574  22.811  0.00  0.00    +0.158 A 
ATOM     16  C   UNL     1       4.380  -5.114  23.122  0.00  0.00    +0.162 A 
ATOM     17  C   UNL     1       4.248  -3.946  23.881  0.00  0.00    +0.061 A 
BRANCH  15  18
ATOM     18  O   UNL     1       5.815  -6.729  22.108  0.00  0.00    -0.503 OA
ATOM     19  H   UNL     1       5.752  -7.444  22.777  0.00  0.00    +0.292 HD
ENDBRANCH  15  18
BRANCH  16  20
ATOM     20  O   UNL     1       3.356  -5.919  22.665  0.00  0.00    -0.491 OA
ATOM     21  C   UNL     1       2.044  -5.630  23.114  0.00  0.00    +0.277 C 
ENDBRANCH  16  20
ENDBRANCH   5  12
BRANCH  10  22
ATOM     22  O   UNL     1       4.050   1.962  28.037  0.00  0.00    -0.506 OA
ATOM     23  H   UNL     1       3.098   2.065  27.873  0.00  0.00    +0.292 HD
ENDBRANCH  10  22
BRANCH   6  24
ATOM     24  O   UNL     1       4.085  -3.102  26.971  0.00  0.00    -0.453 OA
BRANCH  24  25
ATOM     25  C   UNL     1       4.887  -4.013  27.747  0.00  0.00    +0.340 C 
ATOM     26  O   UNL     1       5.206  -5.200  27.010  0.00  0.00    -0.331 OA
ATOM     27  C   UNL     1       4.125  -6.123  26.859  0.00  0.00    +0.179 C 
ATOM     28  C   UNL     1       3.628  -6.605  28.224  0.00  0.00    +0.177 C 
ATOM     29  C   UNL     1       3.146  -5.395  29.025  0.00  0.00    +0.180 C 
ATOM     30  C   UNL     1       4.246  -4.341  29.120  0.00  0.00    +0.214 C 
BRANCH  28  31
ATOM     31  O   UNL     1       2.564  -7.554  28.072  0.00  0.00    -0.386 OA
ATOM     32  H   UNL     1       1.789  -7.200  28.553  0.00  0.00    +0.210 HD
ENDBRANCH  28  31
BRANCH  29  33
ATOM     33  O   UNL     1       2.727  -5.854  30.322  0.00  0.00    -0.386 OA
ATOM     34  H   UNL     1       2.057  -5.235  30.666  0.00  0.00    +0.210 HD
ENDBRANCH  29  33
BRANCH  30  35
ATOM     35  O   UNL     1       3.773  -3.170  29.796  0.00  0.00    -0.383 OA
ATOM     36  H   UNL     1       3.159  -3.459  30.496  0.00  0.00    +0.210 HD
ENDBRANCH  30  35
BRANCH  27  37
ATOM     37  C   UNL     1       4.569  -7.290  25.963  0.00  0.00    +0.190 C 
BRANCH  37  38
ATOM     38  O   UNL     1       3.482  -7.902  25.275  0.00  0.00    -0.392 OA
ATOM     39  H   UNL     1       3.783  -8.798  25.005  0.00  0.00    +0.210 HD
ENDBRANCH  37  38
ENDBRANCH  27  37
ENDBRANCH  24  25
ENDBRANCH   6  24
BRANCH   1  40
ATOM     40  O   UNL     1       6.135   4.017  24.387  0.00  0.00    -0.461 OA
BRANCH  40  44
ATOM     41  C   UNL     1       9.085   6.520  26.278  0.00  0.00    +0.041 C 
ATOM     42  C   UNL     1       8.762   6.556  24.786  0.00  0.00    +0.150 C 
ATOM     43  O   UNL     1       7.480   5.957  24.541  0.00  0.00    -0.334 OA
ATOM     44  C   UNL     1       7.433   4.535  24.702  0.00  0.00    +0.339 C 
ATOM     45  C   UNL     1       8.418   3.887  23.700  0.00  0.00    +0.214 C 
ATOM     46  C   UNL     1       9.834   4.392  24.018  0.00  0.00    +0.180 C 
ATOM     47  C   UNL     1       9.881   5.928  23.931  0.00  0.00    +0.174 C 
BRANCH  47  48
ATOM     48  O   UNL     1       9.748   6.356  22.568  0.00  0.00    -0.387 OA
ATOM     49  H   UNL     1      10.312   5.759  22.026  0.00  0.00    +0.210 HD
ENDBRANCH  47  48
BRANCH  46  50
ATOM     50  O   UNL     1      10.805   3.773  23.167  0.00  0.00    -0.386 OA
ATOM     51  H   UNL     1      11.597   3.584  23.703  0.00  0.00    +0.210 HD
ENDBRANCH  46  50
BRANCH  45  52
ATOM     52  O   UNL     1       8.057   4.275  22.350  0.00  0.00    -0.383 OA
ATOM     53  H   UNL     1       8.636   3.758  21.755  0.00  0.00    +0.210 HD
ENDBRANCH  45  52
ENDBRANCH  40  44
ENDBRANCH   1  40
TORSDOF 16
ENDMDL
MODEL 9
REMARK VINA RESULT:      -6.6      2.686     10.480
REMARK  Name = 
REMARK  18 active torsions:
REMARK  status: ('A' for Active; 'I' for Inactive)
REMARK    1  A    between atoms: C_1  and  C_2
REMARK    2  A    between atoms: C_3  and  O_49
REMARK    3  A    between atoms: C_5  and  O_48
REMARK    4  A    between atoms: C_7  and  O_47
REMARK    5  A    between atoms: C_8  and  O_11
REMARK    6  A    between atoms: O_11  and  C_12
REMARK    7  A    between atoms: C_14  and  O_46
REMARK    8  A    between atoms: C_19  and  C_37
REMARK    9  A    between atoms: C_20  and  O_23
REMARK   10  A    between atoms: O_23  and  C_24
REMARK   11  A    between atoms: C_26  and  O_36
REMARK   12  A    between atoms: C_27  and  O_35
REMARK   13  A    between atoms: C_28  and  O_34
REMARK   14  A    between atoms: C_30  and  C_32
REMARK   15  A    between atoms: C_32  and  O_33
REMARK   16  A    between atoms: C_39  and  O_44
REMARK   17  A    between atoms: C_40  and  O_43
REMARK   18  A    between atoms: O_44  and  C_45
REMARK                            x       y       z     vdW  Elec       q    Type
REMARK                         _______ _______ _______ _____ _____    ______ ____
ROOT
ATOM      1  C   UNL     1       5.729   3.124  24.776  0.00  0.00    +0.131 A 
ATOM      2  C   UNL     1       6.163   1.857  24.365  0.00  0.00    +0.093 A 
ATOM      3  C   UNL     1       5.638   0.702  24.971  0.00  0.00    +0.147 A 
ATOM      4  O   UNL     1       6.105  -0.528  24.569  0.00  0.00    -0.451 OA
ATOM      5  C   UNL     1       5.457  -1.694  25.019  0.00  0.00    +0.181 A 
ATOM      6  C   UNL     1       4.561  -1.707  26.046  0.00  0.00    +0.214 A 
ATOM      7  C   UNL     1       4.400  -0.389  26.748  0.00  0.00    +0.238 A 
ATOM      8  O   UNL     1       4.146  -0.291  27.941  0.00  0.00    -0.283 OA
ATOM      9  C   UNL     1       4.705   0.823  25.987  0.00  0.00    +0.109 A 
ATOM     10  C   UNL     1       4.210   2.081  26.342  0.00  0.00    +0.135 A 
ATOM     11  C   UNL     1       4.722   3.225  25.742  0.00  0.00    +0.092 A 
ENDROOT
BRANCH   5  12
ATOM     12  C   UNL     1       5.912  -2.913  24.278  0.00  0.00    +0.025 A 
ATOM     13  C   UNL     1       5.163  -3.405  23.189  0.00  0.00    +0.015 A 
ATOM     14  C   UNL     1       5.613  -4.488  22.431  0.00  0.00    +0.050 A 
ATOM     15  C   UNL     1       6.816  -5.104  22.763  0.00  0.00    +0.158 A 
ATOM     16  C   UNL     1       7.582  -4.655  23.829  0.00  0.00    +0.162 A 
ATOM     17  C   UNL     1       7.140  -3.550  24.564  0.00  0.00    +0.061 A 
BRANCH  15  18
ATOM     18  O   UNL     1       7.238  -6.152  22.002  0.00  0.00    -0.503 OA
ATOM     19  H   UNL     1       8.120  -6.387  22.362  0.00  0.00    +0.292 HD
ENDBRANCH  15  18
BRANCH  16  20
ATOM     20  O   UNL     1       8.759  -5.351  24.017  0.00  0.00    -0.491 OA
ATOM     21  C   UNL     1       9.574  -4.979  25.115  0.00  0.00    +0.277 C 
ENDBRANCH  16  20
ENDBRANCH   5  12
BRANCH  10  22
ATOM     22  O   UNL     1       3.206   2.204  27.260  0.00  0.00    -0.506 OA
ATOM     23  H   UNL     1       3.396   1.653  28.037  0.00  0.00    +0.292 HD
ENDBRANCH  10  22
BRANCH   6  24
ATOM     24  O   UNL     1       3.859  -2.861  26.425  0.00  0.00    -0.453 OA
BRANCH  24  25
ATOM     25  C   UNL     1       4.037  -3.359  27.765  0.00  0.00    +0.340 C 
ATOM     26  O   UNL     1       5.359  -3.875  27.968  0.00  0.00    -0.331 OA
ATOM     27  C   UNL     1       5.610  -5.142  27.356  0.00  0.00    +0.179 C 
ATOM     28  C   UNL     1       4.661  -6.209  27.908  0.00  0.00    +0.177 C 
ATOM     29  C   UNL     1       3.222  -5.786  27.609  0.00  0.00    +0.180 C 
ATOM     30  C   UNL     1       2.948  -4.389  28.161  0.00  0.00    +0.214 C 
BRANCH  28  31
ATOM     31  O   UNL     1       4.934  -7.487  27.317  0.00  0.00    -0.386 OA
ATOM     32  H   UNL     1       4.809  -7.391  26.351  0.00  0.00    +0.210 HD
ENDBRANCH  28  31
BRANCH  29  33
ATOM     33  O   UNL     1       2.340  -6.770  28.174  0.00  0.00    -0.386 OA
ATOM     34  H   UNL     1       1.744  -7.089  27.470  0.00  0.00    +0.210 HD
ENDBRANCH  29  33
BRANCH  30  35
ATOM     35  O   UNL     1       1.630  -3.952  27.812  0.00  0.00    -0.383 OA
ATOM     36  H   UNL     1       1.357  -3.280  28.464  0.00  0.00    +0.210 HD
ENDBRANCH  30  35
BRANCH  27  37
ATOM     37  C   UNL     1       7.086  -5.524  27.558  0.00  0.00    +0.190 C 
BRANCH  37  38
ATOM     38  O   UNL     1       7.266  -6.508  28.573  0.00  0.00    -0.392 OA
ATOM     39  H   UNL     1       6.519  -6.406  29.204  0.00  0.00    +0.210 HD
ENDBRANCH  37  38
ENDBRANCH  27  37
ENDBRANCH  24  25
ENDBRANCH   6  24
BRANCH   1  40
ATOM     40  O   UNL     1       6.191   4.340  24.358  0.00  0.00    -0.461 OA
BRANCH  40  44
ATOM     41  C   UNL     1       9.305   6.593  26.299  0.00  0.00    +0.041 C 
ATOM     42  C   UNL     1       9.023   6.640  24.799  0.00  0.00    +0.150 C 
ATOM     43  O   UNL     1       7.698   6.155  24.528  0.00  0.00    -0.334 OA
ATOM     44  C   UNL     1       7.522   4.745  24.700  0.00  0.00    +0.339 C 
ATOM     45  C   UNL     1       8.469   4.000  23.729  0.00  0.00    +0.214 C 
ATOM     46  C   UNL     1       9.916   4.381  24.078  0.00  0.00    +0.180 C 
ATOM     47  C   UNL     1      10.101   5.906  23.978  0.00  0.00    +0.174 C 
BRANCH  47  48
ATOM     48  O   UNL     1      10.040   6.328  22.608  0.00  0.00    -0.387 OA
ATOM     49  H   UNL     1       9.265   5.875  22.205  0.00  0.00    +0.210 HD
ENDBRANCH  47  48
BRANCH  46  50
ATOM     50  O   UNL     1      10.848   3.669  23.258  0.00  0.00    -0.386 OA
ATOM     51  H   UNL     1      10.398   3.436  22.425  0.00  0.00    +0.210 HD
ENDBRANCH  46  50
BRANCH  45  52
ATOM     52  O   UNL     1       8.177   4.403  22.367  0.00  0.00    -0.383 OA
ATOM     53  H   UNL     1       8.951   4.136  21.833  0.00  0.00    +0.210 HD
ENDBRANCH  45  52
ENDBRANCH  40  44
ENDBRANCH   1  40
TORSDOF 16
ENDMDL
