MODEL 1
REMARK VINA RESULT:      -7.0      0.000      0.000
REMARK  Name = 
REMARK  28 active torsions:
REMARK  status: ('A' for Active; 'I' for Inactive)
REMARK    1  A    between atoms: C_3  and  O_74
REMARK    2  A    between atoms: C_6  and  C_7
REMARK    3  A    between atoms: C_8  and  C_9
REMARK    4  A    between atoms: C_9  and  O_11
REMARK    5  A    between atoms: O_11  and  C_12
REMARK    6  A    between atoms: C_13  and  O_24
REMARK    7  A    between atoms: C_16  and  C_22
REMARK    8  A    between atoms: C_17  and  O_21
REMARK    9  A    between atoms: C_19  and  O_20
REMARK   10  A    between atoms: C_22  and  O_23
REMARK   11  A    between atoms: O_24  and  C_25
REMARK   12  A    between atoms: C_26  and  O_73
REMARK   13  A    between atoms: C_28  and  O_72
REMARK   14  A    between atoms: C_30  and  C_70
REMARK   15  A    between atoms: C_32  and  O_34
REMARK   16  A    between atoms: O_34  and  C_35
REMARK   17  A    between atoms: C_36  and  C_62
REMARK   18  A    between atoms: C_40  and  O_47
REMARK   19  A    between atoms: C_42  and  O_46
REMARK   20  A    between atoms: O_47  and  C_48
REMARK   21  A    between atoms: C_50  and  O_61
REMARK   22  A    between atoms: C_51  and  O_60
REMARK   23  A    between atoms: C_52  and  O_59
REMARK   24  A    between atoms: C_54  and  C_57
REMARK   25  A    between atoms: C_57  and  O_58
REMARK   26  A    between atoms: C_64  and  O_69
REMARK   27  A    between atoms: C_65  and  O_68
REMARK   28  A    between atoms: C_70  and  O_71
REMARK                            x       y       z     vdW  Elec       q    Type
REMARK                         _______ _______ _______ _____ _____    ______ ____
ROOT
ATOM      1  C   UNL     1       3.500  -3.239  25.863  0.00  0.00    +0.221 C 
ATOM      2  C   UNL     1       3.798  -2.926  27.372  0.00  0.00    +0.340 C 
ATOM      3  O   UNL     1       3.585  -4.102  28.180  0.00  0.00    -0.331 OA
ATOM      4  C   UNL     1       2.264  -4.649  28.160  0.00  0.00    +0.179 C 
ATOM      5  C   UNL     1       1.828  -4.984  26.728  0.00  0.00    +0.177 C 
ATOM      6  C   UNL     1       2.062  -3.810  25.767  0.00  0.00    +0.180 C 
ENDROOT
BRANCH   6   7
ATOM      7  O   UNL     1       1.714  -4.262  24.452  0.00  0.00    -0.386 OA
ATOM      8  H   UNL     1       2.003  -3.610  23.781  0.00  0.00    +0.210 HD
ENDBRANCH   6   7
BRANCH   5   9
ATOM      9  O   UNL     1       0.445  -5.377  26.706  0.00  0.00    -0.386 OA
ATOM     10  H   UNL     1       0.333  -5.900  25.887  0.00  0.00    +0.210 HD
ENDBRANCH   5   9
BRANCH   2  11
ATOM     11  O   UNL     1       5.175  -2.560  27.588  0.00  0.00    -0.453 OA
BRANCH  11  12
ATOM     12  C   UNL     1       5.718  -1.342  27.224  0.00  0.00    +0.214 A 
ATOM     13  C   UNL     1       4.977  -0.045  27.459  0.00  0.00    +0.238 A 
ATOM     14  O   UNL     1       3.860  -0.026  27.964  0.00  0.00    -0.283 OA
ATOM     15  C   UNL     1       5.657   1.206  27.074  0.00  0.00    +0.109 A 
ATOM     16  C   UNL     1       6.817   1.076  26.335  0.00  0.00    +0.147 A 
ATOM     17  C   UNL     1       7.554   2.185  25.948  0.00  0.00    +0.093 A 
ATOM     18  C   UNL     1       7.259   3.436  26.467  0.00  0.00    +0.131 A 
ATOM     19  C   UNL     1       6.051   3.603  27.153  0.00  0.00    +0.092 A 
ATOM     20  O   UNL     1       7.376  -0.114  25.997  0.00  0.00    -0.451 OA
ATOM     21  C   UNL     1       5.228   2.495  27.411  0.00  0.00    +0.135 A 
ATOM     22  C   UNL     1       6.908  -1.282  26.568  0.00  0.00    +0.181 A 
BRANCH  22  23
ATOM     23  C   UNL     1       7.869  -2.409  26.296  0.00  0.00    +0.025 A 
ATOM     24  C   UNL     1       8.905  -2.301  25.351  0.00  0.00    +0.015 A 
ATOM     25  C   UNL     1       9.722  -3.392  25.017  0.00  0.00    +0.050 A 
ATOM     26  C   UNL     1       9.502  -4.619  25.619  0.00  0.00    +0.158 A 
ATOM     27  C   UNL     1       8.507  -4.762  26.571  0.00  0.00    +0.159 A 
ATOM     28  C   UNL     1       7.689  -3.679  26.907  0.00  0.00    +0.060 A 
BRANCH  27  29
ATOM     29  O   UNL     1       8.353  -5.995  27.143  0.00  0.00    -0.503 OA
ATOM     30  H   UNL     1       7.500  -6.342  26.831  0.00  0.00    +0.292 HD
ENDBRANCH  27  29
BRANCH  26  31
ATOM     31  O   UNL     1      10.273  -5.688  25.262  0.00  0.00    -0.503 OA
ATOM     32  H   UNL     1      10.489  -6.133  26.106  0.00  0.00    +0.292 HD
ENDBRANCH  26  31
ENDBRANCH  22  23
BRANCH  21  33
ATOM     33  O   UNL     1       4.036   2.689  28.047  0.00  0.00    -0.506 OA
ATOM     34  H   UNL     1       4.192   3.089  28.919  0.00  0.00    +0.292 HD
ENDBRANCH  21  33
BRANCH  18  35
ATOM     35  O   UNL     1       8.132   4.495  26.435  0.00  0.00    -0.461 OA
BRANCH  35  36
ATOM     36  C   UNL     1       7.702   5.698  25.740  0.00  0.00    +0.339 C 
ATOM     37  O   UNL     1       6.659   5.535  24.772  0.00  0.00    -0.331 OA
ATOM     38  C   UNL     1       6.971   4.646  23.690  0.00  0.00    +0.179 C 
ATOM     39  C   UNL     1       8.221   5.103  22.924  0.00  0.00    +0.177 C 
ATOM     40  C   UNL     1       9.372   5.479  23.864  0.00  0.00    +0.180 C 
ATOM     41  C   UNL     1       8.896   6.358  25.031  0.00  0.00    +0.214 C 
BRANCH  41  42
ATOM     42  O   UNL     1       9.993   6.620  25.916  0.00  0.00    -0.383 OA
ATOM     43  H   UNL     1      10.762   6.858  25.364  0.00  0.00    +0.210 HD
ENDBRANCH  41  42
BRANCH  40  44
ATOM     44  O   UNL     1      10.363   6.171  23.077  0.00  0.00    -0.386 OA
ATOM     45  H   UNL     1      10.224   5.907  22.146  0.00  0.00    +0.210 HD
ENDBRANCH  40  44
BRANCH  39  46
ATOM     46  O   UNL     1       7.926   6.249  22.109  0.00  0.00    -0.386 OA
ATOM     47  H   UNL     1       8.293   7.011  22.604  0.00  0.00    +0.210 HD
ENDBRANCH  39  46
BRANCH  38  48
ATOM     48  C   UNL     1       5.749   4.563  22.752  0.00  0.00    +0.190 C 
BRANCH  48  49
ATOM     49  O   UNL     1       5.934   3.629  21.688  0.00  0.00    -0.392 OA
ATOM     50  H   UNL     1       5.469   2.807  21.906  0.00  0.00    +0.210 HD
ENDBRANCH  48  49
ENDBRANCH  38  48
ENDBRANCH  35  36
ENDBRANCH  18  35
ENDBRANCH  11  12
ENDBRANCH   2  11
BRANCH   1  51
ATOM     51  O   UNL     1       4.574  -4.073  25.350  0.00  0.00    -0.336 OA
BRANCH  51  57
ATOM     52  C   UNL     1       6.475  -4.351  23.695  0.00  0.00    +0.263 C 
ATOM     53  C   UNL     1       6.528  -5.882  23.665  0.00  0.00    +0.191 C 
ATOM     54  C   UNL     1       5.502  -6.465  22.694  0.00  0.00    +0.178 C 
ATOM     55  C   UNL     1       4.096  -5.886  22.919  0.00  0.00    +0.178 C 
ATOM     56  O   UNL     1       4.097  -4.454  23.088  0.00  0.00    -0.340 OA
ATOM     57  C   UNL     1       5.035  -3.863  24.012  0.00  0.00    +0.295 C 
BRANCH  54  58
ATOM     58  O   UNL     1       5.914  -6.191  21.346  0.00  0.00    -0.386 OA
ATOM     59  H   UNL     1       5.105  -6.018  20.826  0.00  0.00    +0.210 HD
ENDBRANCH  54  58
BRANCH  53  60
ATOM     60  O   UNL     1       6.348  -6.412  24.975  0.00  0.00    -0.385 OA
ATOM     61  H   UNL     1       6.001  -7.321  24.879  0.00  0.00    +0.210 HD
ENDBRANCH  53  60
BRANCH  52  62
ATOM     62  O   UNL     1       6.876  -3.854  22.394  0.00  0.00    -0.450 OA
BRANCH  62  63
ATOM     63  C   UNL     1       6.336  -2.665  22.052  0.00  0.00    +0.332 C 
ATOM     64  O   UNL     1       5.356  -2.509  21.341  0.00  0.00    -0.246 OA
BRANCH  63  66
ATOM     65  C   UNL     1       8.140  -1.035  21.909  0.00  0.00    +0.015 C 
ATOM     66  C   UNL     1       7.163  -1.589  22.642  0.00  0.00    +0.092 C 
BRANCH  65  68
ATOM     67  C   UNL     1       9.874  -0.135  23.515  0.00  0.00    +0.011 A 
ATOM     68  C   UNL     1       9.069   0.005  22.376  0.00  0.00    -0.025 A 
ATOM     69  C   UNL     1       9.107   1.218  21.671  0.00  0.00    +0.011 A 
ATOM     70  C   UNL     1       9.942   2.259  22.084  0.00  0.00    +0.046 A 
ATOM     71  C   UNL     1      10.731   2.099  23.213  0.00  0.00    +0.117 A 
ATOM     72  C   UNL     1      10.708   0.910  23.933  0.00  0.00    +0.046 A 
BRANCH  71  73
ATOM     73  O   UNL     1      11.517   3.147  23.590  0.00  0.00    -0.507 OA
ATOM     74  H   UNL     1      12.089   3.392  22.843  0.00  0.00    +0.292 HD
ENDBRANCH  71  73
ENDBRANCH  65  68
ENDBRANCH  63  66
ENDBRANCH  62  63
ENDBRANCH  52  62
BRANCH  55  75
ATOM     75  C   UNL     1       3.312  -6.625  24.014  0.00  0.00    +0.190 C 
BRANCH  75  76
ATOM     76  O   UNL     1       3.950  -7.861  24.321  0.00  0.00    -0.392 OA
ATOM     77  H   UNL     1       3.322  -8.359  24.876  0.00  0.00    +0.210 HD
ENDBRANCH  75  76
ENDBRANCH  55  75
ENDBRANCH  51  57
ENDBRANCH   1  51
BRANCH   4  78
ATOM     78  C   UNL     1       1.247  -3.815  28.968  0.00  0.00    +0.190 C 
BRANCH  78  79
ATOM     79  O   UNL     1       0.541  -4.598  29.928  0.00  0.00    -0.392 OA
ATOM     80  H   UNL     1       1.198  -5.206  30.335  0.00  0.00    +0.210 HD
ENDBRANCH  78  79
ENDBRANCH   4  78
TORSDOF 28
ENDMDL
MODEL 2
REMARK VINA RESULT:      -6.3      3.068     10.006
REMARK  Name = 
REMARK  28 active torsions:
REMARK  status: ('A' for Active; 'I' for Inactive)
REMARK    1  A    between atoms: C_3  and  O_74
REMARK    2  A    between atoms: C_6  and  C_7
REMARK    3  A    between atoms: C_8  and  C_9
REMARK    4  A    between atoms: C_9  and  O_11
REMARK    5  A    between atoms: O_11  and  C_12
REMARK    6  A    between atoms: C_13  and  O_24
REMARK    7  A    between atoms: C_16  and  C_22
REMARK    8  A    between atoms: C_17  and  O_21
REMARK    9  A    between atoms: C_19  and  O_20
REMARK   10  A    between atoms: C_22  and  O_23
REMARK   11  A    between atoms: O_24  and  C_25
REMARK   12  A    between atoms: C_26  and  O_73
REMARK   13  A    between atoms: C_28  and  O_72
REMARK   14  A    between atoms: C_30  and  C_70
REMARK   15  A    between atoms: C_32  and  O_34
REMARK   16  A    between atoms: O_34  and  C_35
REMARK   17  A    between atoms: C_36  and  C_62
REMARK   18  A    between atoms: C_40  and  O_47
REMARK   19  A    between atoms: C_42  and  O_46
REMARK   20  A    between atoms: O_47  and  C_48
REMARK   21  A    between atoms: C_50  and  O_61
REMARK   22  A    between atoms: C_51  and  O_60
REMARK   23  A    between atoms: C_52  and  O_59
REMARK   24  A    between atoms: C_54  and  C_57
REMARK   25  A    between atoms: C_57  and  O_58
REMARK   26  A    between atoms: C_64  and  O_69
REMARK   27  A    between atoms: C_65  and  O_68
REMARK   28  A    between atoms: C_70  and  O_71
REMARK                            x       y       z     vdW  Elec       q    Type
REMARK                         _______ _______ _______ _____ _____    ______ ____
ROOT
ATOM      1  C   UNL     1       6.004   2.221  23.901  0.00  0.00    +0.221 C 
ATOM      2  C   UNL     1       7.219   1.450  24.530  0.00  0.00    +0.340 C 
ATOM      3  O   UNL     1       8.206   2.383  25.018  0.00  0.00    -0.331 OA
ATOM      4  C   UNL     1       8.776   3.263  24.046  0.00  0.00    +0.179 C 
ATOM      5  C   UNL     1       7.688   4.071  23.328  0.00  0.00    +0.177 C 
ATOM      6  C   UNL     1       6.554   3.176  22.811  0.00  0.00    +0.180 C 
ENDROOT
BRANCH   6   7
ATOM      7  O   UNL     1       5.556   4.038  22.250  0.00  0.00    -0.386 OA
ATOM      8  H   UNL     1       5.926   4.933  22.099  0.00  0.00    +0.210 HD
ENDBRANCH   6   7
BRANCH   5   9
ATOM      9  O   UNL     1       8.260   4.827  22.246  0.00  0.00    -0.386 OA
ATOM     10  H   UNL     1       8.469   4.172  21.550  0.00  0.00    +0.210 HD
ENDBRANCH   5   9
BRANCH   2  11
ATOM     11  O   UNL     1       6.831   0.671  25.678  0.00  0.00    -0.453 OA
BRANCH  11  12
ATOM     12  C   UNL     1       6.085  -0.491  25.607  0.00  0.00    +0.214 A 
ATOM     13  C   UNL     1       4.766  -0.628  26.334  0.00  0.00    +0.238 A 
ATOM     14  O   UNL     1       4.320   0.277  27.030  0.00  0.00    -0.283 OA
ATOM     15  C   UNL     1       4.024  -1.891  26.163  0.00  0.00    +0.109 A 
ATOM     16  C   UNL     1       4.694  -2.920  25.531  0.00  0.00    +0.147 A 
ATOM     17  C   UNL     1       4.079  -4.139  25.289  0.00  0.00    +0.093 A 
ATOM     18  C   UNL     1       2.716  -4.286  25.487  0.00  0.00    +0.131 A 
ATOM     19  C   UNL     1       2.035  -3.288  26.194  0.00  0.00    +0.092 A 
ATOM     20  O   UNL     1       5.950  -2.816  25.027  0.00  0.00    -0.451 OA
ATOM     21  C   UNL     1       2.705  -2.114  26.574  0.00  0.00    +0.135 A 
ATOM     22  C   UNL     1       6.557  -1.578  24.940  0.00  0.00    +0.181 A 
BRANCH  22  23
ATOM     23  C   UNL     1       7.785  -1.667  24.072  0.00  0.00    +0.025 A 
ATOM     24  C   UNL     1       8.972  -2.279  24.512  0.00  0.00    +0.015 A 
ATOM     25  C   UNL     1      10.148  -2.254  23.747  0.00  0.00    +0.050 A 
ATOM     26  C   UNL     1      10.155  -1.600  22.527  0.00  0.00    +0.158 A 
ATOM     27  C   UNL     1       9.001  -1.003  22.048  0.00  0.00    +0.159 A 
ATOM     28  C   UNL     1       7.826  -1.024  22.806  0.00  0.00    +0.060 A 
BRANCH  27  29
ATOM     29  O   UNL     1       9.068  -0.389  20.827  0.00  0.00    -0.503 OA
ATOM     30  H   UNL     1       9.163   0.563  20.999  0.00  0.00    +0.292 HD
ENDBRANCH  27  29
BRANCH  26  31
ATOM     31  O   UNL     1      11.311  -1.543  21.803  0.00  0.00    -0.503 OA
ATOM     32  H   UNL     1      11.440  -2.453  21.467  0.00  0.00    +0.292 HD
ENDBRANCH  26  31
ENDBRANCH  22  23
BRANCH  21  33
ATOM     33  O   UNL     1       2.030  -1.172  27.296  0.00  0.00    -0.506 OA
ATOM     34  H   UNL     1       1.964  -0.350  26.781  0.00  0.00    +0.292 HD
ENDBRANCH  21  33
BRANCH  18  35
ATOM     35  O   UNL     1       1.976  -5.306  24.942  0.00  0.00    -0.461 OA
BRANCH  35  36
ATOM     36  C   UNL     1       2.701  -6.439  24.387  0.00  0.00    +0.339 C 
ATOM     37  O   UNL     1       2.228  -6.943  23.133  0.00  0.00    -0.331 OA
ATOM     38  C   UNL     1       0.874  -7.415  23.142  0.00  0.00    +0.179 C 
ATOM     39  C   UNL     1       0.670  -8.532  24.175  0.00  0.00    +0.177 C 
ATOM     40  C   UNL     1       1.290  -8.187  25.534  0.00  0.00    +0.180 C 
ATOM     41  C   UNL     1       2.706  -7.607  25.386  0.00  0.00    +0.214 C 
BRANCH  41  42
ATOM     42  O   UNL     1       3.211  -7.235  26.675  0.00  0.00    -0.383 OA
ATOM     43  H   UNL     1       2.481  -7.339  27.315  0.00  0.00    +0.210 HD
ENDBRANCH  41  42
BRANCH  40  44
ATOM     44  O   UNL     1       1.314  -9.397  26.317  0.00  0.00    -0.386 OA
ATOM     45  H   UNL     1       0.780 -10.059  25.836  0.00  0.00    +0.210 HD
ENDBRANCH  40  44
BRANCH  39  46
ATOM     46  O   UNL     1       1.263  -9.759  23.720  0.00  0.00    -0.386 OA
ATOM     47  H   UNL     1       1.247  -9.699  22.741  0.00  0.00    +0.210 HD
ENDBRANCH  39  46
BRANCH  38  48
ATOM     48  C   UNL     1       0.512  -7.903  21.723  0.00  0.00    +0.190 C 
BRANCH  48  49
ATOM     49  O   UNL     1       1.568  -8.641  21.108  0.00  0.00    -0.392 OA
ATOM     50  H   UNL     1       1.388  -9.588  21.205  0.00  0.00    +0.210 HD
ENDBRANCH  48  49
ENDBRANCH  38  48
ENDBRANCH  35  36
ENDBRANCH  18  35
ENDBRANCH  11  12
ENDBRANCH   2  11
BRANCH   1  51
ATOM     51  O   UNL     1       5.241   2.826  24.980  0.00  0.00    -0.336 OA
BRANCH  51  57
ATOM     52  C   UNL     1       2.783   3.170  25.500  0.00  0.00    +0.263 C 
ATOM     53  C   UNL     1       2.924   3.685  26.937  0.00  0.00    +0.191 C 
ATOM     54  C   UNL     1       3.217   5.184  26.974  0.00  0.00    +0.178 C 
ATOM     55  C   UNL     1       4.379   5.573  26.047  0.00  0.00    +0.178 C 
ATOM     56  O   UNL     1       4.292   4.956  24.746  0.00  0.00    -0.340 OA
ATOM     57  C   UNL     1       4.040   3.536  24.665  0.00  0.00    +0.295 C 
BRANCH  54  58
ATOM     58  O   UNL     1       2.039   5.907  26.582  0.00  0.00    -0.386 OA
ATOM     59  H   UNL     1       1.756   6.436  27.354  0.00  0.00    +0.210 HD
ENDBRANCH  54  58
BRANCH  53  60
ATOM     60  O   UNL     1       3.930   2.953  27.631  0.00  0.00    -0.385 OA
ATOM     61  H   UNL     1       4.170   2.184  27.077  0.00  0.00    +0.210 HD
ENDBRANCH  53  60
BRANCH  52  62
ATOM     62  O   UNL     1       1.614   3.787  24.907  0.00  0.00    -0.450 OA
BRANCH  62  63
ATOM     63  C   UNL     1       0.907   2.983  24.085  0.00  0.00    +0.332 C 
ATOM     64  O   UNL     1       0.466   1.882  24.377  0.00  0.00    -0.246 OA
BRANCH  63  66
ATOM     65  C   UNL     1       1.858   3.621  21.936  0.00  0.00    +0.015 C 
ATOM     66  C   UNL     1       0.803   3.639  22.763  0.00  0.00    +0.092 C 
BRANCH  65  68
ATOM     67  C   UNL     1       1.916   5.659  20.441  0.00  0.00    +0.011 A 
ATOM     68  C   UNL     1       1.918   4.269  20.617  0.00  0.00    -0.025 A 
ATOM     69  C   UNL     1       1.922   3.447  19.479  0.00  0.00    +0.011 A 
ATOM     70  C   UNL     1       1.942   4.001  18.197  0.00  0.00    +0.046 A 
ATOM     71  C   UNL     1       1.941   5.379  18.046  0.00  0.00    +0.117 A 
ATOM     72  C   UNL     1       1.931   6.216  19.155  0.00  0.00    +0.046 A 
BRANCH  71  73
ATOM     73  O   UNL     1       1.943   5.877  16.776  0.00  0.00    -0.507 OA
ATOM     74  H   UNL     1       1.611   6.790  16.799  0.00  0.00    +0.292 HD
ENDBRANCH  71  73
ENDBRANCH  65  68
ENDBRANCH  63  66
ENDBRANCH  62  63
ENDBRANCH  52  62
BRANCH  55  75
ATOM     75  C   UNL     1       5.755   5.404  26.707  0.00  0.00    +0.190 C 
BRANCH  75  76
ATOM     76  O   UNL     1       6.741   6.121  25.970  0.00  0.00    -0.392 OA
ATOM     77  H   UNL     1       6.294   6.916  25.625  0.00  0.00    +0.210 HD
ENDBRANCH  75  76
ENDBRANCH  55  75
ENDBRANCH  51  57
ENDBRANCH   1  51
BRANCH   4  78
ATOM     78  C   UNL     1       9.787   2.564  23.111  0.00  0.00    +0.190 C 
BRANCH  78  79
ATOM     79  O   UNL     1      10.660   1.682  23.814  0.00  0.00    -0.392 OA
ATOM     80  H   UNL     1      11.389   2.235  24.173  0.00  0.00    +0.210 HD
ENDBRANCH  78  79
ENDBRANCH   4  78
TORSDOF 28
ENDMDL
MODEL 3
REMARK VINA RESULT:      -5.9      1.567      2.101
REMARK  Name = 
REMARK  28 active torsions:
REMARK  status: ('A' for Active; 'I' for Inactive)
REMARK    1  A    between atoms: C_3  and  O_74
REMARK    2  A    between atoms: C_6  and  C_7
REMARK    3  A    between atoms: C_8  and  C_9
REMARK    4  A    between atoms: C_9  and  O_11
REMARK    5  A    between atoms: O_11  and  C_12
REMARK    6  A    between atoms: C_13  and  O_24
REMARK    7  A    between atoms: C_16  and  C_22
REMARK    8  A    between atoms: C_17  and  O_21
REMARK    9  A    between atoms: C_19  and  O_20
REMARK   10  A    between atoms: C_22  and  O_23
REMARK   11  A    between atoms: O_24  and  C_25
REMARK   12  A    between atoms: C_26  and  O_73
REMARK   13  A    between atoms: C_28  and  O_72
REMARK   14  A    between atoms: C_30  and  C_70
REMARK   15  A    between atoms: C_32  and  O_34
REMARK   16  A    between atoms: O_34  and  C_35
REMARK   17  A    between atoms: C_36  and  C_62
REMARK   18  A    between atoms: C_40  and  O_47
REMARK   19  A    between atoms: C_42  and  O_46
REMARK   20  A    between atoms: O_47  and  C_48
REMARK   21  A    between atoms: C_50  and  O_61
REMARK   22  A    between atoms: C_51  and  O_60
REMARK   23  A    between atoms: C_52  and  O_59
REMARK   24  A    between atoms: C_54  and  C_57
REMARK   25  A    between atoms: C_57  and  O_58
REMARK   26  A    between atoms: C_64  and  O_69
REMARK   27  A    between atoms: C_65  and  O_68
REMARK   28  A    between atoms: C_70  and  O_71
REMARK                            x       y       z     vdW  Elec       q    Type
REMARK                         _______ _______ _______ _____ _____    ______ ____
ROOT
ATOM      1  C   UNL     1       3.023  -4.441  26.455  0.00  0.00    +0.221 C 
ATOM      2  C   UNL     1       3.549  -4.564  27.930  0.00  0.00    +0.340 C 
ATOM      3  O   UNL     1       3.626  -5.951  28.320  0.00  0.00    -0.331 OA
ATOM      4  C   UNL     1       2.398  -6.683  28.292  0.00  0.00    +0.179 C 
ATOM      5  C   UNL     1       1.754  -6.627  26.901  0.00  0.00    +0.177 C 
ATOM      6  C   UNL     1       1.670  -5.191  26.364  0.00  0.00    +0.180 C 
ENDROOT
BRANCH   6   7
ATOM      7  O   UNL     1       1.148  -5.267  25.032  0.00  0.00    -0.386 OA
ATOM      8  H   UNL     1       1.201  -4.391  24.596  0.00  0.00    +0.210 HD
ENDBRANCH   6   7
BRANCH   5   9
ATOM      9  O   UNL     1       0.446  -7.224  26.931  0.00  0.00    -0.386 OA
ATOM     10  H   UNL     1       0.048  -7.029  26.060  0.00  0.00    +0.210 HD
ENDBRANCH   5   9
BRANCH   2  11
ATOM     11  O   UNL     1       4.888  -4.053  28.073  0.00  0.00    -0.453 OA
BRANCH  11  12
ATOM     12  C   UNL     1       5.229  -2.723  27.917  0.00  0.00    +0.214 A 
ATOM     13  C   UNL     1       4.362  -1.615  28.470  0.00  0.00    +0.238 A 
ATOM     14  O   UNL     1       3.314  -1.854  29.061  0.00  0.00    -0.283 OA
ATOM     15  C   UNL     1       4.832  -0.229  28.288  0.00  0.00    +0.109 A 
ATOM     16  C   UNL     1       5.908  -0.047  27.443  0.00  0.00    +0.147 A 
ATOM     17  C   UNL     1       6.452   1.210  27.226  0.00  0.00    +0.093 A 
ATOM     18  C   UNL     1       6.062   2.284  28.009  0.00  0.00    +0.131 A 
ATOM     19  C   UNL     1       4.926   2.142  28.815  0.00  0.00    +0.092 A 
ATOM     20  O   UNL     1       6.572  -1.058  26.826  0.00  0.00    -0.451 OA
ATOM     21  C   UNL     1       4.284   0.898  28.913  0.00  0.00    +0.135 A 
ATOM     22  C   UNL     1       6.321  -2.368  27.187  0.00  0.00    +0.181 A 
BRANCH  22  23
ATOM     23  C   UNL     1       7.380  -3.272  26.613  0.00  0.00    +0.025 A 
ATOM     24  C   UNL     1       7.613  -4.566  27.111  0.00  0.00    +0.015 A 
ATOM     25  C   UNL     1       8.677  -5.359  26.652  0.00  0.00    +0.050 A 
ATOM     26  C   UNL     1       9.537  -4.856  25.690  0.00  0.00    +0.158 A 
ATOM     27  C   UNL     1       9.329  -3.594  25.159  0.00  0.00    +0.159 A 
ATOM     28  C   UNL     1       8.271  -2.801  25.612  0.00  0.00    +0.060 A 
BRANCH  27  29
ATOM     29  O   UNL     1      10.202  -3.163  24.198  0.00  0.00    -0.503 OA
ATOM     30  H   UNL     1      10.910  -2.682  24.660  0.00  0.00    +0.292 HD
ENDBRANCH  27  29
BRANCH  26  31
ATOM     31  O   UNL     1      10.594  -5.613  25.276  0.00  0.00    -0.503 OA
ATOM     32  H   UNL     1      11.060  -5.863  26.099  0.00  0.00    +0.292 HD
ENDBRANCH  26  31
ENDBRANCH  22  23
BRANCH  21  33
ATOM     33  O   UNL     1       3.156   0.794  29.674  0.00  0.00    -0.506 OA
ATOM     34  H   UNL     1       2.612   1.592  29.564  0.00  0.00    +0.292 HD
ENDBRANCH  21  33
BRANCH  18  35
ATOM     35  O   UNL     1       6.785   3.446  28.116  0.00  0.00    -0.461 OA
BRANCH  35  36
ATOM     36  C   UNL     1       6.113   4.690  27.774  0.00  0.00    +0.339 C 
ATOM     37  O   UNL     1       5.397   4.704  26.533  0.00  0.00    -0.331 OA
ATOM     38  C   UNL     1       6.197   4.452  25.370  0.00  0.00    +0.179 C 
ATOM     39  C   UNL     1       7.339   5.469  25.235  0.00  0.00    +0.177 C 
ATOM     40  C   UNL     1       8.088   5.679  26.556  0.00  0.00    +0.180 C 
ATOM     41  C   UNL     1       7.123   5.848  27.741  0.00  0.00    +0.214 C 
BRANCH  41  42
ATOM     42  O   UNL     1       7.871   5.968  28.959  0.00  0.00    -0.383 OA
ATOM     43  H   UNL     1       7.625   5.214  29.527  0.00  0.00    +0.210 HD
ENDBRANCH  41  42
BRANCH  40  44
ATOM     44  O   UNL     1       8.915   6.850  26.403  0.00  0.00    -0.386 OA
ATOM     45  H   UNL     1       8.536   7.545  26.977  0.00  0.00    +0.210 HD
ENDBRANCH  40  44
BRANCH  39  46
ATOM     46  O   UNL     1       6.834   6.745  24.808  0.00  0.00    -0.386 OA
ATOM     47  H   UNL     1       6.615   7.220  25.638  0.00  0.00    +0.210 HD
ENDBRANCH  39  46
BRANCH  38  48
ATOM     48  C   UNL     1       5.283   4.481  24.126  0.00  0.00    +0.190 C 
BRANCH  48  49
ATOM     49  O   UNL     1       4.271   5.485  24.210  0.00  0.00    -0.392 OA
ATOM     50  H   UNL     1       3.835   5.420  25.073  0.00  0.00    +0.210 HD
ENDBRANCH  48  49
ENDBRANCH  38  48
ENDBRANCH  35  36
ENDBRANCH  18  35
ENDBRANCH  11  12
ENDBRANCH   2  11
BRANCH   1  51
ATOM     51  O   UNL     1       4.079  -4.878  25.558  0.00  0.00    -0.336 OA
BRANCH  51  57
ATOM     52  C   UNL     1       5.902  -4.025  24.015  0.00  0.00    +0.263 C 
ATOM     53  C   UNL     1       6.329  -5.365  23.405  0.00  0.00    +0.191 C 
ATOM     54  C   UNL     1       5.428  -5.767  22.238  0.00  0.00    +0.178 C 
ATOM     55  C   UNL     1       3.936  -5.684  22.598  0.00  0.00    +0.178 C 
ATOM     56  O   UNL     1       3.594  -4.471  23.302  0.00  0.00    -0.340 OA
ATOM     57  C   UNL     1       4.405  -4.067  24.425  0.00  0.00    +0.295 C 
BRANCH  54  58
ATOM     58  O   UNL     1       5.690  -4.906  21.117  0.00  0.00    -0.386 OA
ATOM     59  H   UNL     1       6.282  -5.394  20.512  0.00  0.00    +0.210 HD
ENDBRANCH  54  58
BRANCH  53  60
ATOM     60  O   UNL     1       6.352  -6.382  24.402  0.00  0.00    -0.385 OA
ATOM     61  H   UNL     1       7.073  -7.001  24.174  0.00  0.00    +0.210 HD
ENDBRANCH  53  60
BRANCH  52  62
ATOM     62  O   UNL     1       6.101  -2.988  23.023  0.00  0.00    -0.450 OA
BRANCH  62  63
ATOM     63  C   UNL     1       5.904  -1.731  23.474  0.00  0.00    +0.332 C 
ATOM     64  O   UNL     1       4.925  -1.345  24.093  0.00  0.00    -0.246 OA
BRANCH  63  66
ATOM     65  C   UNL     1       7.372   0.191  23.762  0.00  0.00    +0.015 C 
ATOM     66  C   UNL     1       7.047  -0.894  23.045  0.00  0.00    +0.092 C 
BRANCH  65  68
ATOM     67  C   UNL     1       9.133   1.131  22.210  0.00  0.00    +0.011 A 
ATOM     68  C   UNL     1       8.447   1.139  23.432  0.00  0.00    -0.025 A 
ATOM     69  C   UNL     1       8.838   2.060  24.416  0.00  0.00    +0.011 A 
ATOM     70  C   UNL     1       9.876   2.963  24.178  0.00  0.00    +0.046 A 
ATOM     71  C   UNL     1      10.541   2.940  22.961  0.00  0.00    +0.117 A 
ATOM     72  C   UNL     1      10.178   2.034  21.972  0.00  0.00    +0.046 A 
BRANCH  71  73
ATOM     73  O   UNL     1      11.559   3.827  22.779  0.00  0.00    -0.507 OA
ATOM     74  H   UNL     1      12.137   3.803  23.560  0.00  0.00    +0.292 HD
ENDBRANCH  71  73
ENDBRANCH  65  68
ENDBRANCH  63  66
ENDBRANCH  62  63
ENDBRANCH  52  62
BRANCH  55  75
ATOM     75  C   UNL     1       3.415  -6.953  23.289  0.00  0.00    +0.190 C 
BRANCH  75  76
ATOM     76  O   UNL     1       2.094  -7.243  22.842  0.00  0.00    -0.392 OA
ATOM     77  H   UNL     1       1.496  -6.934  23.548  0.00  0.00    +0.210 HD
ENDBRANCH  75  76
ENDBRANCH  55  75
ENDBRANCH  51  57
ENDBRANCH   1  51
BRANCH   4  78
ATOM     78  C   UNL     1       1.450  -6.328  29.459  0.00  0.00    +0.190 C 
BRANCH  78  79
ATOM     79  O   UNL     1       2.097  -5.557  30.470  0.00  0.00    -0.392 OA
ATOM     80  H   UNL     1       1.678  -5.805  31.324  0.00  0.00    +0.210 HD
ENDBRANCH  78  79
ENDBRANCH   4  78
TORSDOF 28
ENDMDL
MODEL 4
REMARK VINA RESULT:      -5.7      2.787      9.797
REMARK  Name = 
REMARK  28 active torsions:
REMARK  status: ('A' for Active; 'I' for Inactive)
REMARK    1  A    between atoms: C_3  and  O_74
REMARK    2  A    between atoms: C_6  and  C_7
REMARK    3  A    between atoms: C_8  and  C_9
REMARK    4  A    between atoms: C_9  and  O_11
REMARK    5  A    between atoms: O_11  and  C_12
REMARK    6  A    between atoms: C_13  and  O_24
REMARK    7  A    between atoms: C_16  and  C_22
REMARK    8  A    between atoms: C_17  and  O_21
REMARK    9  A    between atoms: C_19  and  O_20
REMARK   10  A    between atoms: C_22  and  O_23
REMARK   11  A    between atoms: O_24  and  C_25
REMARK   12  A    between atoms: C_26  and  O_73
REMARK   13  A    between atoms: C_28  and  O_72
REMARK   14  A    between atoms: C_30  and  C_70
REMARK   15  A    between atoms: C_32  and  O_34
REMARK   16  A    between atoms: O_34  and  C_35
REMARK   17  A    between atoms: C_36  and  C_62
REMARK   18  A    between atoms: C_40  and  O_47
REMARK   19  A    between atoms: C_42  and  O_46
REMARK   20  A    between atoms: O_47  and  C_48
REMARK   21  A    between atoms: C_50  and  O_61
REMARK   22  A    between atoms: C_51  and  O_60
REMARK   23  A    between atoms: C_52  and  O_59
REMARK   24  A    between atoms: C_54  and  C_57
REMARK   25  A    between atoms: C_57  and  O_58
REMARK   26  A    between atoms: C_64  and  O_69
REMARK   27  A    between atoms: C_65  and  O_68
REMARK   28  A    between atoms: C_70  and  O_71
REMARK                            x       y       z     vdW  Elec       q    Type
REMARK                         _______ _______ _______ _____ _____    ______ ____
ROOT
ATOM      1  C   UNL     1       6.447   2.739  24.257  0.00  0.00    +0.221 C 
ATOM      2  C   UNL     1       7.685   1.920  24.769  0.00  0.00    +0.340 C 
ATOM      3  O   UNL     1       8.729   2.812  25.210  0.00  0.00    -0.331 OA
ATOM      4  C   UNL     1       9.248   3.709  24.225  0.00  0.00    +0.179 C 
ATOM      5  C   UNL     1       8.131   4.566  23.615  0.00  0.00    +0.177 C 
ATOM      6  C   UNL     1       6.939   3.715  23.158  0.00  0.00    +0.180 C 
ENDROOT
BRANCH   6   7
ATOM      7  O   UNL     1       5.925   4.617  22.700  0.00  0.00    -0.386 OA
ATOM      8  H   UNL     1       5.620   4.360  21.805  0.00  0.00    +0.210 HD
ENDBRANCH   6   7
BRANCH   5   9
ATOM      9  O   UNL     1       8.640   5.342  22.517  0.00  0.00    -0.386 OA
ATOM     10  H   UNL     1       7.903   5.923  22.242  0.00  0.00    +0.210 HD
ENDBRANCH   5   9
BRANCH   2  11
ATOM     11  O   UNL     1       7.363   1.113  25.919  0.00  0.00    -0.453 OA
BRANCH  11  12
ATOM     12  C   UNL     1       6.485   0.045  25.893  0.00  0.00    +0.214 A 
ATOM     13  C   UNL     1       5.230   0.035  26.736  0.00  0.00    +0.238 A 
ATOM     14  O   UNL     1       4.954   0.963  27.488  0.00  0.00    -0.283 OA
ATOM     15  C   UNL     1       4.336  -1.131  26.608  0.00  0.00    +0.109 A 
ATOM     16  C   UNL     1       4.824  -2.209  25.896  0.00  0.00    +0.147 A 
ATOM     17  C   UNL     1       4.054  -3.343  25.686  0.00  0.00    +0.093 A 
ATOM     18  C   UNL     1       2.706  -3.342  26.006  0.00  0.00    +0.131 A 
ATOM     19  C   UNL     1       2.210  -2.296  26.793  0.00  0.00    +0.092 A 
ATOM     20  O   UNL     1       6.034  -2.232  25.281  0.00  0.00    -0.451 OA
ATOM     21  C   UNL     1       3.041  -1.217  27.133  0.00  0.00    +0.135 A 
ATOM     22  C   UNL     1       6.768  -1.067  25.163  0.00  0.00    +0.181 A 
BRANCH  22  23
ATOM     23  C   UNL     1       7.896  -1.266  24.185  0.00  0.00    +0.025 A 
ATOM     24  C   UNL     1       9.039  -2.022  24.501  0.00  0.00    +0.015 A 
ATOM     25  C   UNL     1      10.137  -2.107  23.632  0.00  0.00    +0.050 A 
ATOM     26  C   UNL     1      10.111  -1.419  22.430  0.00  0.00    +0.158 A 
ATOM     27  C   UNL     1       8.996  -0.680  22.073  0.00  0.00    +0.159 A 
ATOM     28  C   UNL     1       7.899  -0.592  22.935  0.00  0.00    +0.060 A 
BRANCH  27  29
ATOM     29  O   UNL     1       9.025  -0.040  20.864  0.00  0.00    -0.503 OA
ATOM     30  H   UNL     1       8.159  -0.190  20.449  0.00  0.00    +0.292 HD
ENDBRANCH  27  29
BRANCH  26  31
ATOM     31  O   UNL     1      11.198  -1.470  21.605  0.00  0.00    -0.503 OA
ATOM     32  H   UNL     1      10.893  -1.971  20.822  0.00  0.00    +0.292 HD
ENDBRANCH  26  31
ENDBRANCH  22  23
BRANCH  21  33
ATOM     33  O   UNL     1       2.546  -0.228  27.933  0.00  0.00    -0.506 OA
ATOM     34  H   UNL     1       2.702  -0.452  28.866  0.00  0.00    +0.292 HD
ENDBRANCH  21  33
BRANCH  18  35
ATOM     35  O   UNL     1       1.809  -4.256  25.511  0.00  0.00    -0.461 OA
BRANCH  35  36
ATOM     36  C   UNL     1       1.757  -5.561  26.152  0.00  0.00    +0.339 C 
ATOM     37  O   UNL     1       2.882  -5.916  26.963  0.00  0.00    -0.331 OA
ATOM     38  C   UNL     1       4.138  -5.958  26.271  0.00  0.00    +0.179 C 
ATOM     39  C   UNL     1       4.106  -6.949  25.099  0.00  0.00    +0.177 C 
ATOM     40  C   UNL     1       2.848  -6.788  24.237  0.00  0.00    +0.180 C 
ATOM     41  C   UNL     1       1.578  -6.664  25.095  0.00  0.00    +0.214 C 
BRANCH  41  42
ATOM     42  O   UNL     1       0.443  -6.443  24.247  0.00  0.00    -0.383 OA
ATOM     43  H   UNL     1       0.641  -6.854  23.384  0.00  0.00    +0.210 HD
ENDBRANCH  41  42
BRANCH  40  44
ATOM     44  O   UNL     1       2.766  -7.940  23.373  0.00  0.00    -0.386 OA
ATOM     45  H   UNL     1       2.116  -7.727  22.675  0.00  0.00    +0.210 HD
ENDBRANCH  40  44
BRANCH  39  46
ATOM     46  O   UNL     1       4.141  -8.303  25.577  0.00  0.00    -0.386 OA
ATOM     47  H   UNL     1       4.642  -8.799  24.895  0.00  0.00    +0.210 HD
ENDBRANCH  39  46
BRANCH  38  48
ATOM     48  C   UNL     1       5.244  -6.333  27.279  0.00  0.00    +0.190 C 
BRANCH  48  49
ATOM     49  O   UNL     1       4.926  -7.500  28.038  0.00  0.00    -0.392 OA
ATOM     50  H   UNL     1       3.968  -7.532  28.179  0.00  0.00    +0.210 HD
ENDBRANCH  48  49
ENDBRANCH  38  48
ENDBRANCH  35  36
ENDBRANCH  18  35
ENDBRANCH  11  12
ENDBRANCH   2  11
BRANCH   1  51
ATOM     51  O   UNL     1       5.782   3.327  25.408  0.00  0.00    -0.336 OA
BRANCH  51  57
ATOM     52  C   UNL     1       3.438   3.619  26.328  0.00  0.00    +0.263 C 
ATOM     53  C   UNL     1       3.794   4.337  27.635  0.00  0.00    +0.191 C 
ATOM     54  C   UNL     1       3.976   5.839  27.422  0.00  0.00    +0.178 C 
ATOM     55  C   UNL     1       4.922   6.151  26.252  0.00  0.00    +0.178 C 
ATOM     56  O   UNL     1       4.651   5.352  25.081  0.00  0.00    -0.340 OA
ATOM     57  C   UNL     1       4.495   3.925  25.234  0.00  0.00    +0.295 C 
BRANCH  54  58
ATOM     58  O   UNL     1       2.697   6.441  27.167  0.00  0.00    -0.386 OA
ATOM     59  H   UNL     1       2.664   7.276  27.674  0.00  0.00    +0.210 HD
ENDBRANCH  54  58
BRANCH  53  60
ATOM     60  O   UNL     1       4.959   3.761  28.218  0.00  0.00    -0.385 OA
ATOM     61  H   UNL     1       5.708   3.939  27.616  0.00  0.00    +0.210 HD
ENDBRANCH  53  60
BRANCH  52  62
ATOM     62  O   UNL     1       2.139   4.088  25.889  0.00  0.00    -0.450 OA
BRANCH  62  63
ATOM     63  C   UNL     1       1.496   3.257  25.041  0.00  0.00    +0.332 C 
ATOM     64  O   UNL     1       1.101   2.134  25.312  0.00  0.00    -0.246 OA
BRANCH  63  66
ATOM     65  C   UNL     1       1.910   3.307  22.642  0.00  0.00    +0.015 C 
ATOM     66  C   UNL     1       1.400   3.919  23.721  0.00  0.00    +0.092 C 
BRANCH  65  68
ATOM     67  C   UNL     1       1.940   5.237  21.008  0.00  0.00    +0.011 A 
ATOM     68  C   UNL     1       1.931   3.862  21.280  0.00  0.00    -0.025 A 
ATOM     69  C   UNL     1       1.884   2.964  20.202  0.00  0.00    +0.011 A 
ATOM     70  C   UNL     1       1.866   3.428  18.885  0.00  0.00    +0.046 A 
ATOM     71  C   UNL     1       1.877   4.792  18.638  0.00  0.00    +0.117 A 
ATOM     72  C   UNL     1       1.917   5.704  19.687  0.00  0.00    +0.046 A 
BRANCH  71  73
ATOM     73  O   UNL     1       1.840   5.201  17.338  0.00  0.00    -0.507 OA
ATOM     74  H   UNL     1       2.558   4.760  16.852  0.00  0.00    +0.292 HD
ENDBRANCH  71  73
ENDBRANCH  65  68
ENDBRANCH  63  66
ENDBRANCH  62  63
ENDBRANCH  52  62
BRANCH  55  75
ATOM     75  C   UNL     1       6.403   6.144  26.661  0.00  0.00    +0.190 C 
BRANCH  75  76
ATOM     76  O   UNL     1       6.526   6.432  28.051  0.00  0.00    -0.392 OA
ATOM     77  H   UNL     1       5.795   7.040  28.266  0.00  0.00    +0.210 HD
ENDBRANCH  75  76
ENDBRANCH  55  75
ENDBRANCH  51  57
ENDBRANCH   1  51
BRANCH   4  78
ATOM     78  C   UNL     1      10.168   3.017  23.195  0.00  0.00    +0.190 C 
BRANCH  78  79
ATOM     79  O   UNL     1       9.489   2.709  21.979  0.00  0.00    -0.392 OA
ATOM     80  H   UNL     1      10.182   2.595  21.291  0.00  0.00    +0.210 HD
ENDBRANCH  78  79
ENDBRANCH   4  78
TORSDOF 28
ENDMDL
MODEL 5
REMARK VINA RESULT:      -5.6      2.069      5.180
REMARK  Name = 
REMARK  28 active torsions:
REMARK  status: ('A' for Active; 'I' for Inactive)
REMARK    1  A    between atoms: C_3  and  O_74
REMARK    2  A    between atoms: C_6  and  C_7
REMARK    3  A    between atoms: C_8  and  C_9
REMARK    4  A    between atoms: C_9  and  O_11
REMARK    5  A    between atoms: O_11  and  C_12
REMARK    6  A    between atoms: C_13  and  O_24
REMARK    7  A    between atoms: C_16  and  C_22
REMARK    8  A    between atoms: C_17  and  O_21
REMARK    9  A    between atoms: C_19  and  O_20
REMARK   10  A    between atoms: C_22  and  O_23
REMARK   11  A    between atoms: O_24  and  C_25
REMARK   12  A    between atoms: C_26  and  O_73
REMARK   13  A    between atoms: C_28  and  O_72
REMARK   14  A    between atoms: C_30  and  C_70
REMARK   15  A    between atoms: C_32  and  O_34
REMARK   16  A    between atoms: O_34  and  C_35
REMARK   17  A    between atoms: C_36  and  C_62
REMARK   18  A    between atoms: C_40  and  O_47
REMARK   19  A    between atoms: C_42  and  O_46
REMARK   20  A    between atoms: O_47  and  C_48
REMARK   21  A    between atoms: C_50  and  O_61
REMARK   22  A    between atoms: C_51  and  O_60
REMARK   23  A    between atoms: C_52  and  O_59
REMARK   24  A    between atoms: C_54  and  C_57
REMARK   25  A    between atoms: C_57  and  O_58
REMARK   26  A    between atoms: C_64  and  O_69
REMARK   27  A    between atoms: C_65  and  O_68
REMARK   28  A    between atoms: C_70  and  O_71
REMARK                            x       y       z     vdW  Elec       q    Type
REMARK                         _______ _______ _______ _____ _____    ______ ____
ROOT
ATOM      1  C   UNL     1       5.029  -3.568  27.386  0.00  0.00    +0.221 C 
ATOM      2  C   UNL     1       4.808  -3.674  25.834  0.00  0.00    +0.340 C 
ATOM      3  O   UNL     1       3.864  -4.722  25.532  0.00  0.00    -0.331 OA
ATOM      4  C   UNL     1       4.228  -6.039  25.955  0.00  0.00    +0.179 C 
ATOM      5  C   UNL     1       4.499  -6.079  27.464  0.00  0.00    +0.177 C 
ATOM      6  C   UNL     1       5.458  -4.964  27.905  0.00  0.00    +0.180 C 
ENDROOT
BRANCH   6   7
ATOM      7  O   UNL     1       5.562  -5.035  29.332  0.00  0.00    -0.386 OA
ATOM      8  H   UNL     1       5.516  -4.136  29.722  0.00  0.00    +0.210 HD
ENDBRANCH   6   7
BRANCH   5   9
ATOM      9  O   UNL     1       5.021  -7.364  27.845  0.00  0.00    -0.386 OA
ATOM     10  H   UNL     1       5.225  -7.293  28.798  0.00  0.00    +0.210 HD
ENDBRANCH   5   9
BRANCH   2  11
ATOM     11  O   UNL     1       4.232  -2.473  25.285  0.00  0.00    -0.453 OA
BRANCH  11  12
ATOM     12  C   UNL     1       4.973  -1.431  24.758  0.00  0.00    +0.214 A 
ATOM     13  C   UNL     1       4.778  -0.007  25.228  0.00  0.00    +0.238 A 
ATOM     14  O   UNL     1       3.943   0.280  26.078  0.00  0.00    -0.283 OA
ATOM     15  C   UNL     1       5.645   1.028  24.635  0.00  0.00    +0.109 A 
ATOM     16  C   UNL     1       6.409   0.647  23.550  0.00  0.00    +0.147 A 
ATOM     17  C   UNL     1       7.284   1.531  22.937  0.00  0.00    +0.093 A 
ATOM     18  C   UNL     1       7.567   2.754  23.523  0.00  0.00    +0.131 A 
ATOM     19  C   UNL     1       6.753   3.191  24.575  0.00  0.00    +0.092 A 
ATOM     20  O   UNL     1       6.441  -0.613  23.045  0.00  0.00    -0.451 OA
ATOM     21  C   UNL     1       5.760   2.345  25.095  0.00  0.00    +0.135 A 
ATOM     22  C   UNL     1       5.849  -1.649  23.741  0.00  0.00    +0.181 A 
BRANCH  22  23
ATOM     23  C   UNL     1       6.281  -2.971  23.163  0.00  0.00    +0.025 A 
ATOM     24  C   UNL     1       5.567  -3.610  22.134  0.00  0.00    +0.015 A 
ATOM     25  C   UNL     1       5.906  -4.895  21.681  0.00  0.00    +0.050 A 
ATOM     26  C   UNL     1       6.965  -5.567  22.267  0.00  0.00    +0.158 A 
ATOM     27  C   UNL     1       7.707  -4.964  23.269  0.00  0.00    +0.159 A 
ATOM     28  C   UNL     1       7.374  -3.685  23.723  0.00  0.00    +0.060 A 
BRANCH  27  29
ATOM     29  O   UNL     1       8.753  -5.673  23.793  0.00  0.00    -0.503 OA
ATOM     30  H   UNL     1       8.722  -6.556  23.386  0.00  0.00    +0.292 HD
ENDBRANCH  27  29
BRANCH  26  31
ATOM     31  O   UNL     1       7.267  -6.833  21.853  0.00  0.00    -0.503 OA
ATOM     32  H   UNL     1       6.945  -7.414  22.571  0.00  0.00    +0.292 HD
ENDBRANCH  26  31
ENDBRANCH  22  23
BRANCH  21  33
ATOM     33  O   UNL     1       4.954   2.808  26.095  0.00  0.00    -0.506 OA
ATOM     34  H   UNL     1       4.525   3.633  25.813  0.00  0.00    +0.292 HD
ENDBRANCH  21  33
BRANCH  18  35
ATOM     35  O   UNL     1       8.662   3.516  23.198  0.00  0.00    -0.461 OA
BRANCH  35  36
ATOM     36  C   UNL     1       9.691   3.678  24.213  0.00  0.00    +0.339 C 
ATOM     37  O   UNL     1       9.461   4.695  25.195  0.00  0.00    -0.331 OA
ATOM     38  C   UNL     1       9.329   6.024  24.670  0.00  0.00    +0.179 C 
ATOM     39  C   UNL     1      10.573   6.447  23.876  0.00  0.00    +0.177 C 
ATOM     40  C   UNL     1      11.033   5.360  22.897  0.00  0.00    +0.180 C 
ATOM     41  C   UNL     1      11.048   3.969  23.551  0.00  0.00    +0.214 C 
BRANCH  41  42
ATOM     42  O   UNL     1      11.414   2.983  22.577  0.00  0.00    -0.383 OA
ATOM     43  H   UNL     1      10.591   2.564  22.262  0.00  0.00    +0.210 HD
ENDBRANCH  41  42
BRANCH  40  44
ATOM     44  O   UNL     1      12.352   5.721  22.440  0.00  0.00    -0.386 OA
ATOM     45  H   UNL     1      12.319   5.745  21.464  0.00  0.00    +0.210 HD
ENDBRANCH  40  44
BRANCH  39  46
ATOM     46  O   UNL     1      11.667   6.733  24.762  0.00  0.00    -0.386 OA
ATOM     47  H   UNL     1      12.383   7.064  24.180  0.00  0.00    +0.210 HD
ENDBRANCH  39  46
BRANCH  38  48
ATOM     48  C   UNL     1       9.067   6.993  25.842  0.00  0.00    +0.190 C 
BRANCH  48  49
ATOM     49  O   UNL     1       9.727   6.595  27.045  0.00  0.00    -0.392 OA
ATOM     50  H   UNL     1       9.102   6.103  27.598  0.00  0.00    +0.210 HD
ENDBRANCH  48  49
ENDBRANCH  38  48
ENDBRANCH  35  36
ENDBRANCH  18  35
ENDBRANCH  11  12
ENDBRANCH   2  11
BRANCH   1  51
ATOM     51  O   UNL     1       3.836  -2.985  27.976  0.00  0.00    -0.336 OA
BRANCH  51  57
ATOM     52  C   UNL     1       3.755  -0.512  28.529  0.00  0.00    +0.263 C 
ATOM     53  C   UNL     1       2.270  -0.263  28.240  0.00  0.00    +0.191 C 
ATOM     54  C   UNL     1       1.392  -0.633  29.435  0.00  0.00    +0.178 C 
ATOM     55  C   UNL     1       1.704  -2.039  29.973  0.00  0.00    +0.178 C 
ATOM     56  O   UNL     1       3.119  -2.293  30.097  0.00  0.00    -0.340 OA
ATOM     57  C   UNL     1       3.982  -1.979  28.982  0.00  0.00    +0.295 C 
BRANCH  54  58
ATOM     58  O   UNL     1       1.590   0.328  30.485  0.00  0.00    -0.386 OA
ATOM     59  H   UNL     1       2.234  -0.058  31.111  0.00  0.00    +0.210 HD
ENDBRANCH  54  58
BRANCH  53  60
ATOM     60  O   UNL     1       1.864  -0.971  27.073  0.00  0.00    -0.385 OA
ATOM     61  H   UNL     1       1.520  -1.840  27.360  0.00  0.00    +0.210 HD
ENDBRANCH  53  60
BRANCH  52  62
ATOM     62  O   UNL     1       4.172   0.389  29.584  0.00  0.00    -0.450 OA
BRANCH  62  63
ATOM     63  C   UNL     1       5.389   0.944  29.403  0.00  0.00    +0.332 C 
ATOM     64  O   UNL     1       5.837   1.891  30.030  0.00  0.00    -0.246 OA
BRANCH  63  66
ATOM     65  C   UNL     1       7.377   0.426  28.095  0.00  0.00    +0.015 C 
ATOM     66  C   UNL     1       6.063   0.243  28.287  0.00  0.00    +0.092 C 
BRANCH  65  68
ATOM     67  C   UNL     1       8.957   0.594  26.128  0.00  0.00    +0.011 A 
ATOM     68  C   UNL     1       8.167  -0.163  27.003  0.00  0.00    -0.025 A 
ATOM     69  C   UNL     1       8.078  -1.549  26.800  0.00  0.00    +0.011 A 
ATOM     70  C   UNL     1       8.776  -2.166  25.760  0.00  0.00    +0.046 A 
ATOM     71  C   UNL     1       9.554  -1.398  24.906  0.00  0.00    +0.117 A 
ATOM     72  C   UNL     1       9.654  -0.022  25.080  0.00  0.00    +0.046 A 
BRANCH  71  73
ATOM     73  O   UNL     1      10.204  -2.038  23.892  0.00  0.00    -0.507 OA
ATOM     74  H   UNL     1      10.092  -1.523  23.076  0.00  0.00    +0.292 HD
ENDBRANCH  71  73
ENDBRANCH  65  68
ENDBRANCH  63  66
ENDBRANCH  62  63
ENDBRANCH  52  62
BRANCH  55  75
ATOM     75  C   UNL     1       0.953  -3.148  29.222  0.00  0.00    +0.190 C 
BRANCH  75  76
ATOM     76  O   UNL     1       1.674  -4.374  29.315  0.00  0.00    -0.392 OA
ATOM     77  H   UNL     1       2.366  -4.229  29.987  0.00  0.00    +0.210 HD
ENDBRANCH  75  76
ENDBRANCH  55  75
ENDBRANCH  51  57
ENDBRANCH   1  51
BRANCH   4  78
ATOM     78  C   UNL     1       5.331  -6.676  25.082  0.00  0.00    +0.190 C 
BRANCH  78  79
ATOM     79  O   UNL     1       4.806  -7.305  23.915  0.00  0.00    -0.392 OA
ATOM     80  H   UNL     1       5.558  -7.415  23.292  0.00  0.00    +0.210 HD
ENDBRANCH  78  79
ENDBRANCH   4  78
TORSDOF 28
ENDMDL
MODEL 6
REMARK VINA RESULT:      -5.3      3.252     10.047
REMARK  Name = 
REMARK  28 active torsions:
REMARK  status: ('A' for Active; 'I' for Inactive)
REMARK    1  A    between atoms: C_3  and  O_74
REMARK    2  A    between atoms: C_6  and  C_7
REMARK    3  A    between atoms: C_8  and  C_9
REMARK    4  A    between atoms: C_9  and  O_11
REMARK    5  A    between atoms: O_11  and  C_12
REMARK    6  A    between atoms: C_13  and  O_24
REMARK    7  A    between atoms: C_16  and  C_22
REMARK    8  A    between atoms: C_17  and  O_21
REMARK    9  A    between atoms: C_19  and  O_20
REMARK   10  A    between atoms: C_22  and  O_23
REMARK   11  A    between atoms: O_24  and  C_25
REMARK   12  A    between atoms: C_26  and  O_73
REMARK   13  A    between atoms: C_28  and  O_72
REMARK   14  A    between atoms: C_30  and  C_70
REMARK   15  A    between atoms: C_32  and  O_34
REMARK   16  A    between atoms: O_34  and  C_35
REMARK   17  A    between atoms: C_36  and  C_62
REMARK   18  A    between atoms: C_40  and  O_47
REMARK   19  A    between atoms: C_42  and  O_46
REMARK   20  A    between atoms: O_47  and  C_48
REMARK   21  A    between atoms: C_50  and  O_61
REMARK   22  A    between atoms: C_51  and  O_60
REMARK   23  A    between atoms: C_52  and  O_59
REMARK   24  A    between atoms: C_54  and  C_57
REMARK   25  A    between atoms: C_57  and  O_58
REMARK   26  A    between atoms: C_64  and  O_69
REMARK   27  A    between atoms: C_65  and  O_68
REMARK   28  A    between atoms: C_70  and  O_71
REMARK                            x       y       z     vdW  Elec       q    Type
REMARK                         _______ _______ _______ _____ _____    ______ ____
ROOT
ATOM      1  C   UNL     1       6.707   3.133  23.554  0.00  0.00    +0.221 C 
ATOM      2  C   UNL     1       6.994   2.036  24.641  0.00  0.00    +0.340 C 
ATOM      3  O   UNL     1       8.090   2.442  25.487  0.00  0.00    -0.331 OA
ATOM      4  C   UNL     1       9.342   2.665  24.831  0.00  0.00    +0.179 C 
ATOM      5  C   UNL     1       9.203   3.708  23.716  0.00  0.00    +0.177 C 
ATOM      6  C   UNL     1       8.025   3.399  22.782  0.00  0.00    +0.180 C 
ENDROOT
BRANCH   6   7
ATOM      7  O   UNL     1       7.930   4.480  21.847  0.00  0.00    -0.386 OA
ATOM      8  H   UNL     1       8.619   4.392  21.155  0.00  0.00    +0.210 HD
ENDBRANCH   6   7
BRANCH   5   9
ATOM      9  O   UNL     1      10.425   3.800  22.963  0.00  0.00    -0.386 OA
ATOM     10  H   UNL     1      10.853   2.925  23.049  0.00  0.00    +0.210 HD
ENDBRANCH   5   9
BRANCH   2  11
ATOM     11  O   UNL     1       5.876   1.850  25.531  0.00  0.00    -0.453 OA
BRANCH  11  12
ATOM     12  C   UNL     1       5.447   0.617  25.985  0.00  0.00    +0.214 A 
ATOM     13  C   UNL     1       4.390   0.495  27.059  0.00  0.00    +0.238 A 
ATOM     14  O   UNL     1       3.888   1.484  27.581  0.00  0.00    -0.283 OA
ATOM     15  C   UNL     1       3.969  -0.865  27.447  0.00  0.00    +0.109 A 
ATOM     16  C   UNL     1       4.726  -1.910  26.955  0.00  0.00    +0.147 A 
ATOM     17  C   UNL     1       4.399  -3.229  27.230  0.00  0.00    +0.093 A 
ATOM     18  C   UNL     1       3.190  -3.539  27.832  0.00  0.00    +0.131 A 
ATOM     19  C   UNL     1       2.446  -2.500  28.404  0.00  0.00    +0.092 A 
ATOM     20  O   UNL     1       5.780  -1.757  26.113  0.00  0.00    -0.451 OA
ATOM     21  C   UNL     1       2.865  -1.169  28.252  0.00  0.00    +0.135 A 
ATOM     22  C   UNL     1       6.024  -0.528  25.531  0.00  0.00    +0.181 A 
BRANCH  22  23
ATOM     23  C   UNL     1       7.024  -0.677  24.414  0.00  0.00    +0.025 A 
ATOM     24  C   UNL     1       6.812  -0.125  23.139  0.00  0.00    +0.015 A 
ATOM     25  C   UNL     1       7.689  -0.367  22.070  0.00  0.00    +0.050 A 
ATOM     26  C   UNL     1       8.792  -1.182  22.263  0.00  0.00    +0.158 A 
ATOM     27  C   UNL     1       9.048  -1.727  23.509  0.00  0.00    +0.159 A 
ATOM     28  C   UNL     1       8.177  -1.490  24.577  0.00  0.00    +0.060 A 
BRANCH  27  29
ATOM     29  O   UNL     1      10.164  -2.508  23.639  0.00  0.00    -0.503 OA
ATOM     30  H   UNL     1      10.609  -2.502  22.775  0.00  0.00    +0.292 HD
ENDBRANCH  27  29
BRANCH  26  31
ATOM     31  O   UNL     1       9.620  -1.447  21.211  0.00  0.00    -0.503 OA
ATOM     32  H   UNL     1      10.243  -2.123  21.548  0.00  0.00    +0.292 HD
ENDBRANCH  26  31
ENDBRANCH  22  23
BRANCH  21  33
ATOM     33  O   UNL     1       2.144  -0.177  28.852  0.00  0.00    -0.506 OA
ATOM     34  H   UNL     1       1.754   0.400  28.173  0.00  0.00    +0.292 HD
ENDBRANCH  21  33
BRANCH  18  35
ATOM     35  O   UNL     1       2.632  -4.793  27.809  0.00  0.00    -0.461 OA
BRANCH  35  36
ATOM     36  C   UNL     1       3.514  -5.915  27.527  0.00  0.00    +0.339 C 
ATOM     37  O   UNL     1       3.887  -6.102  26.157  0.00  0.00    -0.331 OA
ATOM     38  C   UNL     1       2.793  -6.333  25.258  0.00  0.00    +0.179 C 
ATOM     39  C   UNL     1       1.973  -7.564  25.667  0.00  0.00    +0.177 C 
ATOM     40  C   UNL     1       1.649  -7.575  27.165  0.00  0.00    +0.180 C 
ATOM     41  C   UNL     1       2.879  -7.226  28.020  0.00  0.00    +0.214 C 
BRANCH  41  42
ATOM     42  O   UNL     1       2.506  -7.178  29.403  0.00  0.00    -0.383 OA
ATOM     43  H   UNL     1       3.307  -6.949  29.913  0.00  0.00    +0.210 HD
ENDBRANCH  41  42
BRANCH  40  44
ATOM     44  O   UNL     1       1.159  -8.891  27.492  0.00  0.00    -0.386 OA
ATOM     45  H   UNL     1       0.574  -9.168  26.759  0.00  0.00    +0.210 HD
ENDBRANCH  40  44
BRANCH  39  46
ATOM     46  O   UNL     1       2.687  -8.773  25.363  0.00  0.00    -0.386 OA
ATOM     47  H   UNL     1       2.096  -9.497  25.660  0.00  0.00    +0.210 HD
ENDBRANCH  39  46
BRANCH  38  48
ATOM     48  C   UNL     1       3.355  -6.494  23.829  0.00  0.00    +0.190 C 
BRANCH  48  49
ATOM     49  O   UNL     1       2.516  -7.293  22.994  0.00  0.00    -0.392 OA
ATOM     50  H   UNL     1       1.613  -7.273  23.345  0.00  0.00    +0.210 HD
ENDBRANCH  48  49
ENDBRANCH  38  48
ENDBRANCH  35  36
ENDBRANCH  18  35
ENDBRANCH  11  12
ENDBRANCH   2  11
BRANCH   1  51
ATOM     51  O   UNL     1       6.088   4.273  24.209  0.00  0.00    -0.336 OA
BRANCH  51  57
ATOM     52  C   UNL     1       3.558   4.198  24.368  0.00  0.00    +0.263 C 
ATOM     53  C   UNL     1       3.403   4.736  25.794  0.00  0.00    +0.191 C 
ATOM     54  C   UNL     1       3.433   6.263  25.828  0.00  0.00    +0.178 C 
ATOM     55  C   UNL     1       4.634   6.839  25.063  0.00  0.00    +0.178 C 
ATOM     56  O   UNL     1       4.840   6.209  23.781  0.00  0.00    -0.340 OA
ATOM     57  C   UNL     1       4.843   4.767  23.708  0.00  0.00    +0.295 C 
BRANCH  54  58
ATOM     58  O   UNL     1       2.219   6.774  25.254  0.00  0.00    -0.386 OA
ATOM     59  H   UNL     1       2.309   6.707  24.283  0.00  0.00    +0.210 HD
ENDBRANCH  54  58
BRANCH  53  60
ATOM     60  O   UNL     1       4.407   4.189  26.645  0.00  0.00    -0.385 OA
ATOM     61  H   UNL     1       4.719   3.358  26.235  0.00  0.00    +0.210 HD
ENDBRANCH  53  60
BRANCH  52  62
ATOM     62  O   UNL     1       2.400   4.604  23.598  0.00  0.00    -0.450 OA
BRANCH  62  63
ATOM     63  C   UNL     1       2.172   3.868  22.490  0.00  0.00    +0.332 C 
ATOM     64  O   UNL     1       2.073   2.652  22.454  0.00  0.00    -0.246 OA
BRANCH  63  66
ATOM     65  C   UNL     1       1.872   4.275  20.107  0.00  0.00    +0.015 C 
ATOM     66  C   UNL     1       2.114   4.780  21.326  0.00  0.00    +0.092 C 
BRANCH  65  68
ATOM     67  C   UNL     1       2.194   6.401  18.776  0.00  0.00    +0.011 A 
ATOM     68  C   UNL     1       1.834   5.049  18.857  0.00  0.00    -0.025 A 
ATOM     69  C   UNL     1       1.360   4.410  17.701  0.00  0.00    +0.011 A 
ATOM     70  C   UNL     1       1.266   5.099  16.490  0.00  0.00    +0.046 A 
ATOM     71  C   UNL     1       1.629   6.436  16.432  0.00  0.00    +0.117 A 
ATOM     72  C   UNL     1       2.096   7.095  17.563  0.00  0.00    +0.046 A 
BRANCH  71  73
ATOM     73  O   UNL     1       1.504   7.075  15.234  0.00  0.00    -0.507 OA
ATOM     74  H   UNL     1       1.915   7.952  15.304  0.00  0.00    +0.292 HD
ENDBRANCH  71  73
ENDBRANCH  65  68
ENDBRANCH  63  66
ENDBRANCH  62  63
ENDBRANCH  52  62
BRANCH  55  75
ATOM     75  C   UNL     1       5.910   6.909  25.915  0.00  0.00    +0.190 C 
BRANCH  75  76
ATOM     76  O   UNL     1       5.570   6.994  27.296  0.00  0.00    -0.392 OA
ATOM     77  H   UNL     1       6.063   6.280  27.740  0.00  0.00    +0.210 HD
ENDBRANCH  75  76
ENDBRANCH  55  75
ENDBRANCH  51  57
ENDBRANCH   1  51
BRANCH   4  78
ATOM     78  C   UNL     1      10.049   1.358  24.411  0.00  0.00    +0.190 C 
BRANCH  78  79
ATOM     79  O   UNL     1      10.546   0.624  25.528  0.00  0.00    -0.392 OA
ATOM     80  H   UNL     1       9.902   0.753  26.259  0.00  0.00    +0.210 HD
ENDBRANCH  78  79
ENDBRANCH   4  78
TORSDOF 28
ENDMDL
MODEL 7
REMARK VINA RESULT:      -5.0      1.866      3.441
REMARK  Name = 
REMARK  28 active torsions:
REMARK  status: ('A' for Active; 'I' for Inactive)
REMARK    1  A    between atoms: C_3  and  O_74
REMARK    2  A    between atoms: C_6  and  C_7
REMARK    3  A    between atoms: C_8  and  C_9
REMARK    4  A    between atoms: C_9  and  O_11
REMARK    5  A    between atoms: O_11  and  C_12
REMARK    6  A    between atoms: C_13  and  O_24
REMARK    7  A    between atoms: C_16  and  C_22
REMARK    8  A    between atoms: C_17  and  O_21
REMARK    9  A    between atoms: C_19  and  O_20
REMARK   10  A    between atoms: C_22  and  O_23
REMARK   11  A    between atoms: O_24  and  C_25
REMARK   12  A    between atoms: C_26  and  O_73
REMARK   13  A    between atoms: C_28  and  O_72
REMARK   14  A    between atoms: C_30  and  C_70
REMARK   15  A    between atoms: C_32  and  O_34
REMARK   16  A    between atoms: O_34  and  C_35
REMARK   17  A    between atoms: C_36  and  C_62
REMARK   18  A    between atoms: C_40  and  O_47
REMARK   19  A    between atoms: C_42  and  O_46
REMARK   20  A    between atoms: O_47  and  C_48
REMARK   21  A    between atoms: C_50  and  O_61
REMARK   22  A    between atoms: C_51  and  O_60
REMARK   23  A    between atoms: C_52  and  O_59
REMARK   24  A    between atoms: C_54  and  C_57
REMARK   25  A    between atoms: C_57  and  O_58
REMARK   26  A    between atoms: C_64  and  O_69
REMARK   27  A    between atoms: C_65  and  O_68
REMARK   28  A    between atoms: C_70  and  O_71
REMARK                            x       y       z     vdW  Elec       q    Type
REMARK                         _______ _______ _______ _____ _____    ______ ____
ROOT
ATOM      1  C   UNL     1       2.400  -4.719  25.932  0.00  0.00    +0.221 C 
ATOM      2  C   UNL     1       2.590  -4.791  27.489  0.00  0.00    +0.340 C 
ATOM      3  O   UNL     1       2.877  -6.145  27.897  0.00  0.00    -0.331 OA
ATOM      4  C   UNL     1       1.877  -7.120  27.591  0.00  0.00    +0.179 C 
ATOM      5  C   UNL     1       1.570  -7.143  26.088  0.00  0.00    +0.177 C 
ATOM      6  C   UNL     1       1.300  -5.737  25.535  0.00  0.00    +0.180 C 
ENDROOT
BRANCH   6   7
ATOM      7  O   UNL     1       1.125  -5.864  24.119  0.00  0.00    -0.386 OA
ATOM      8  H   UNL     1       0.816  -5.016  23.737  0.00  0.00    +0.210 HD
ENDBRANCH   6   7
BRANCH   5   9
ATOM      9  O   UNL     1       0.452  -8.007  25.819  0.00  0.00    -0.386 OA
ATOM     10  H   UNL     1       0.829  -8.906  25.737  0.00  0.00    +0.210 HD
ENDBRANCH   5   9
BRANCH   2  11
ATOM     11  O   UNL     1       3.718  -4.013  27.935  0.00  0.00    -0.453 OA
BRANCH  11  12
ATOM     12  C   UNL     1       3.857  -2.656  27.711  0.00  0.00    +0.214 A 
ATOM     13  C   UNL     1       2.698  -1.702  27.896  0.00  0.00    +0.238 A 
ATOM     14  O   UNL     1       1.588  -2.098  28.231  0.00  0.00    -0.283 OA
ATOM     15  C   UNL     1       2.958  -0.267  27.674  0.00  0.00    +0.109 A 
ATOM     16  C   UNL     1       4.173   0.061  27.107  0.00  0.00    +0.147 A 
ATOM     17  C   UNL     1       4.534   1.381  26.885  0.00  0.00    +0.093 A 
ATOM     18  C   UNL     1       3.773   2.412  27.413  0.00  0.00    +0.131 A 
ATOM     19  C   UNL     1       2.504   2.108  27.922  0.00  0.00    +0.092 A 
ATOM     20  O   UNL     1       5.139  -0.843  26.800  0.00  0.00    -0.451 OA
ATOM     21  C   UNL     1       2.080   0.772  28.004  0.00  0.00    +0.135 A 
ATOM     22  C   UNL     1       5.027  -2.147  27.240  0.00  0.00    +0.181 A 
BRANCH  22  23
ATOM     23  C   UNL     1       6.339  -2.866  27.059  0.00  0.00    +0.025 A 
ATOM     24  C   UNL     1       7.441  -2.269  26.422  0.00  0.00    +0.015 A 
ATOM     25  C   UNL     1       8.619  -2.982  26.151  0.00  0.00    +0.050 A 
ATOM     26  C   UNL     1       8.704  -4.318  26.506  0.00  0.00    +0.158 A 
ATOM     27  C   UNL     1       7.649  -4.938  27.154  0.00  0.00    +0.159 A 
ATOM     28  C   UNL     1       6.473  -4.232  27.426  0.00  0.00    +0.060 A 
BRANCH  27  29
ATOM     29  O   UNL     1       7.804  -6.253  27.495  0.00  0.00    -0.503 OA
ATOM     30  H   UNL     1       8.220  -6.266  28.374  0.00  0.00    +0.292 HD
ENDBRANCH  27  29
BRANCH  26  31
ATOM     31  O   UNL     1       9.836  -5.019  26.204  0.00  0.00    -0.503 OA
ATOM     32  H   UNL     1      10.011  -4.819  25.263  0.00  0.00    +0.292 HD
ENDBRANCH  26  31
ENDBRANCH  22  23
BRANCH  21  33
ATOM     33  O   UNL     1       0.824   0.504  28.468  0.00  0.00    -0.506 OA
ATOM     34  H   UNL     1       0.868  -0.186  29.151  0.00  0.00    +0.292 HD
ENDBRANCH  21  33
BRANCH  18  35
ATOM     35  O   UNL     1       4.234   3.696  27.559  0.00  0.00    -0.461 OA
BRANCH  35  36
ATOM     36  C   UNL     1       4.521   4.157  28.909  0.00  0.00    +0.339 C 
ATOM     37  O   UNL     1       5.135   5.446  29.023  0.00  0.00    -0.331 OA
ATOM     38  C   UNL     1       6.408   5.569  28.375  0.00  0.00    +0.179 C 
ATOM     39  C   UNL     1       7.420   4.547  28.911  0.00  0.00    +0.177 C 
ATOM     40  C   UNL     1       6.825   3.136  29.004  0.00  0.00    +0.180 C 
ATOM     41  C   UNL     1       5.423   3.146  29.634  0.00  0.00    +0.214 C 
BRANCH  41  42
ATOM     42  O   UNL     1       4.884   1.817  29.631  0.00  0.00    -0.383 OA
ATOM     43  H   UNL     1       5.619   1.205  29.436  0.00  0.00    +0.210 HD
ENDBRANCH  41  42
BRANCH  40  44
ATOM     44  O   UNL     1       7.731   2.336  29.790  0.00  0.00    -0.386 OA
ATOM     45  H   UNL     1       7.194   1.876  30.465  0.00  0.00    +0.210 HD
ENDBRANCH  40  44
BRANCH  39  46
ATOM     46  O   UNL     1       7.871   4.920  30.223  0.00  0.00    -0.386 OA
ATOM     47  H   UNL     1       8.672   5.464  30.069  0.00  0.00    +0.210 HD
ENDBRANCH  39  46
BRANCH  38  48
ATOM     48  C   UNL     1       6.924   7.010  28.571  0.00  0.00    +0.190 C 
BRANCH  48  49
ATOM     49  O   UNL     1       8.346   7.105  28.471  0.00  0.00    -0.392 OA
ATOM     50  H   UNL     1       8.570   7.711  27.749  0.00  0.00    +0.210 HD
ENDBRANCH  48  49
ENDBRANCH  38  48
ENDBRANCH  35  36
ENDBRANCH  18  35
ENDBRANCH  11  12
ENDBRANCH   2  11
BRANCH   1  51
ATOM     51  O   UNL     1       3.702  -4.882  25.306  0.00  0.00    -0.336 OA
BRANCH  51  57
ATOM     52  C   UNL     1       5.510  -3.818  23.881  0.00  0.00    +0.263 C 
ATOM     53  C   UNL     1       6.250  -5.093  23.464  0.00  0.00    +0.191 C 
ATOM     54  C   UNL     1       5.590  -5.760  22.257  0.00  0.00    +0.178 C 
ATOM     55  C   UNL     1       4.076  -5.943  22.450  0.00  0.00    +0.178 C 
ATOM     56  O   UNL     1       3.431  -4.768  22.982  0.00  0.00    -0.340 OA
ATOM     57  C   UNL     1       4.008  -4.119  24.136  0.00  0.00    +0.295 C 
BRANCH  54  58
ATOM     58  O   UNL     1       5.823  -4.961  21.087  0.00  0.00    -0.386 OA
ATOM     59  H   UNL     1       6.506  -5.418  20.557  0.00  0.00    +0.210 HD
ENDBRANCH  54  58
BRANCH  53  60
ATOM     60  O   UNL     1       6.340  -5.999  24.560  0.00  0.00    -0.385 OA
ATOM     61  H   UNL     1       5.547  -6.570  24.535  0.00  0.00    +0.210 HD
ENDBRANCH  53  60
BRANCH  52  62
ATOM     62  O   UNL     1       5.633  -2.848  22.812  0.00  0.00    -0.450 OA
BRANCH  62  63
ATOM     63  C   UNL     1       6.874  -2.342  22.649  0.00  0.00    +0.332 C 
ATOM     64  O   UNL     1       7.825  -2.938  22.167  0.00  0.00    -0.246 OA
BRANCH  63  66
ATOM     65  C   UNL     1       8.069  -0.329  23.319  0.00  0.00    +0.015 C 
ATOM     66  C   UNL     1       6.896  -0.968  23.198  0.00  0.00    +0.092 C 
BRANCH  65  68
ATOM     67  C   UNL     1       7.701   1.412  25.116  0.00  0.00    +0.011 A 
ATOM     68  C   UNL     1       8.250   1.015  23.890  0.00  0.00    -0.025 A 
ATOM     69  C   UNL     1       8.966   1.958  23.136  0.00  0.00    +0.011 A 
ATOM     70  C   UNL     1       9.143   3.262  23.606  0.00  0.00    +0.046 A 
ATOM     71  C   UNL     1       8.593   3.633  24.824  0.00  0.00    +0.117 A 
ATOM     72  C   UNL     1       7.875   2.720  25.587  0.00  0.00    +0.046 A 
BRANCH  71  73
ATOM     73  O   UNL     1       8.776   4.920  25.235  0.00  0.00    -0.507 OA
ATOM     74  H   UNL     1       9.256   5.403  24.541  0.00  0.00    +0.292 HD
ENDBRANCH  71  73
ENDBRANCH  65  68
ENDBRANCH  63  66
ENDBRANCH  62  63
ENDBRANCH  52  62
BRANCH  55  75
ATOM     75  C   UNL     1       3.720  -7.228  23.212  0.00  0.00    +0.190 C 
BRANCH  75  76
ATOM     76  O   UNL     1       4.577  -7.379  24.340  0.00  0.00    -0.392 OA
ATOM     77  H   UNL     1       4.538  -6.533  24.824  0.00  0.00    +0.210 HD
ENDBRANCH  75  76
ENDBRANCH  55  75
ENDBRANCH  51  57
ENDBRANCH   1  51
BRANCH   4  78
ATOM     78  C   UNL     1       0.634  -7.026  28.503  0.00  0.00    +0.190 C 
BRANCH  78  79
ATOM     79  O   UNL     1       0.970  -6.685  29.846  0.00  0.00    -0.392 OA
ATOM     80  H   UNL     1       1.029  -5.704  29.882  0.00  0.00    +0.210 HD
ENDBRANCH  78  79
ENDBRANCH   4  78
TORSDOF 28
ENDMDL
MODEL 8
REMARK VINA RESULT:      -4.4      1.934      6.238
REMARK  Name = 
REMARK  28 active torsions:
REMARK  status: ('A' for Active; 'I' for Inactive)
REMARK    1  A    between atoms: C_3  and  O_74
REMARK    2  A    between atoms: C_6  and  C_7
REMARK    3  A    between atoms: C_8  and  C_9
REMARK    4  A    between atoms: C_9  and  O_11
REMARK    5  A    between atoms: O_11  and  C_12
REMARK    6  A    between atoms: C_13  and  O_24
REMARK    7  A    between atoms: C_16  and  C_22
REMARK    8  A    between atoms: C_17  and  O_21
REMARK    9  A    between atoms: C_19  and  O_20
REMARK   10  A    between atoms: C_22  and  O_23
REMARK   11  A    between atoms: O_24  and  C_25
REMARK   12  A    between atoms: C_26  and  O_73
REMARK   13  A    between atoms: C_28  and  O_72
REMARK   14  A    between atoms: C_30  and  C_70
REMARK   15  A    between atoms: C_32  and  O_34
REMARK   16  A    between atoms: O_34  and  C_35
REMARK   17  A    between atoms: C_36  and  C_62
REMARK   18  A    between atoms: C_40  and  O_47
REMARK   19  A    between atoms: C_42  and  O_46
REMARK   20  A    between atoms: O_47  and  C_48
REMARK   21  A    between atoms: C_50  and  O_61
REMARK   22  A    between atoms: C_51  and  O_60
REMARK   23  A    between atoms: C_52  and  O_59
REMARK   24  A    between atoms: C_54  and  C_57
REMARK   25  A    between atoms: C_57  and  O_58
REMARK   26  A    between atoms: C_64  and  O_69
REMARK   27  A    between atoms: C_65  and  O_68
REMARK   28  A    between atoms: C_70  and  O_71
REMARK                            x       y       z     vdW  Elec       q    Type
REMARK                         _______ _______ _______ _____ _____    ______ ____
ROOT
ATOM      1  C   UNL     1       5.685  -2.809  27.008  0.00  0.00    +0.221 C 
ATOM      2  C   UNL     1       5.623  -2.268  25.534  0.00  0.00    +0.340 C 
ATOM      3  O   UNL     1       4.964  -3.222  24.677  0.00  0.00    -0.331 OA
ATOM      4  C   UNL     1       5.576  -4.511  24.583  0.00  0.00    +0.179 C 
ATOM      5  C   UNL     1       5.724  -5.155  25.968  0.00  0.00    +0.177 C 
ATOM      6  C   UNL     1       6.370  -4.199  26.979  0.00  0.00    +0.180 C 
ENDROOT
BRANCH   6   7
ATOM      7  O   UNL     1       6.369  -4.861  28.249  0.00  0.00    -0.386 OA
ATOM      8  H   UNL     1       6.766  -4.284  28.935  0.00  0.00    +0.210 HD
ENDBRANCH   6   7
BRANCH   5   9
ATOM      9  O   UNL     1       6.485  -6.371  25.875  0.00  0.00    -0.386 OA
ATOM     10  H   UNL     1       6.105  -6.971  26.546  0.00  0.00    +0.210 HD
ENDBRANCH   5   9
BRANCH   2  11
ATOM     11  O   UNL     1       4.841  -1.061  25.432  0.00  0.00    -0.453 OA
BRANCH  11  12
ATOM     12  C   UNL     1       5.355   0.210  25.603  0.00  0.00    +0.214 A 
ATOM     13  C   UNL     1       4.531   1.320  26.215  0.00  0.00    +0.238 A 
ATOM     14  O   UNL     1       3.370   1.140  26.565  0.00  0.00    -0.283 OA
ATOM     15  C   UNL     1       5.183   2.631  26.393  0.00  0.00    +0.109 A 
ATOM     16  C   UNL     1       6.414   2.796  25.791  0.00  0.00    +0.147 A 
ATOM     17  C   UNL     1       7.130   3.976  25.922  0.00  0.00    +0.093 A 
ATOM     18  C   UNL     1       6.724   4.943  26.828  0.00  0.00    +0.131 A 
ATOM     19  C   UNL     1       5.446   4.832  27.390  0.00  0.00    +0.092 A 
ATOM     20  O   UNL     1       7.063   1.821  25.103  0.00  0.00    -0.451 OA
ATOM     21  C   UNL     1       4.659   3.699  27.131  0.00  0.00    +0.135 A 
ATOM     22  C   UNL     1       6.599   0.521  25.150  0.00  0.00    +0.181 A 
BRANCH  22  23
ATOM     23  C   UNL     1       7.638  -0.416  24.590  0.00  0.00    +0.025 A 
ATOM     24  C   UNL     1       8.556  -1.095  25.410  0.00  0.00    +0.015 A 
ATOM     25  C   UNL     1       9.595  -1.873  24.876  0.00  0.00    +0.050 A 
ATOM     26  C   UNL     1       9.737  -1.971  23.502  0.00  0.00    +0.158 A 
ATOM     27  C   UNL     1       8.841  -1.335  22.660  0.00  0.00    +0.159 A 
ATOM     28  C   UNL     1       7.804  -0.559  23.187  0.00  0.00    +0.060 A 
BRANCH  27  29
ATOM     29  O   UNL     1       9.024  -1.488  21.313  0.00  0.00    -0.503 OA
ATOM     30  H   UNL     1       8.148  -1.397  20.901  0.00  0.00    +0.292 HD
ENDBRANCH  27  29
BRANCH  26  31
ATOM     31  O   UNL     1      10.773  -2.696  22.986  0.00  0.00    -0.503 OA
ATOM     32  H   UNL     1      10.537  -2.834  22.047  0.00  0.00    +0.292 HD
ENDBRANCH  26  31
ENDBRANCH  22  23
BRANCH  21  33
ATOM     33  O   UNL     1       3.402   3.632  27.659  0.00  0.00    -0.506 OA
ATOM     34  H   UNL     1       2.753   3.510  26.945  0.00  0.00    +0.292 HD
ENDBRANCH  21  33
BRANCH  18  35
ATOM     35  O   UNL     1       7.542   5.947  27.283  0.00  0.00    -0.461 OA
BRANCH  35  36
ATOM     36  C   UNL     1       7.794   7.065  26.387  0.00  0.00    +0.339 C 
ATOM     37  O   UNL     1       7.014   7.105  25.187  0.00  0.00    -0.331 OA
ATOM     38  C   UNL     1       7.174   5.971  24.323  0.00  0.00    +0.179 C 
ATOM     39  C   UNL     1       8.636   5.785  23.895  0.00  0.00    +0.177 C 
ATOM     40  C   UNL     1       9.605   5.893  25.079  0.00  0.00    +0.180 C 
ATOM     41  C   UNL     1       9.276   7.095  25.980  0.00  0.00    +0.214 C 
BRANCH  41  42
ATOM     42  O   UNL     1      10.163   7.108  27.107  0.00  0.00    -0.383 OA
ATOM     43  H   UNL     1      10.216   8.029  27.425  0.00  0.00    +0.210 HD
ENDBRANCH  41  42
BRANCH  40  44
ATOM     44  O   UNL     1      10.936   6.011  24.539  0.00  0.00    -0.386 OA
ATOM     45  H   UNL     1      10.974   5.440  23.746  0.00  0.00    +0.210 HD
ENDBRANCH  40  44
BRANCH  39  46
ATOM     46  O   UNL     1       9.013   6.778  22.927  0.00  0.00    -0.386 OA
ATOM     47  H   UNL     1       9.442   6.274  22.204  0.00  0.00    +0.210 HD
ENDBRANCH  39  46
BRANCH  38  48
ATOM     48  C   UNL     1       6.259   6.156  23.093  0.00  0.00    +0.190 C 
BRANCH  48  49
ATOM     49  O   UNL     1       6.709   5.418  21.956  0.00  0.00    -0.392 OA
ATOM     50  H   UNL     1       7.443   5.896  21.542  0.00  0.00    +0.210 HD
ENDBRANCH  48  49
ENDBRANCH  38  48
ENDBRANCH  35  36
ENDBRANCH  18  35
ENDBRANCH  11  12
ENDBRANCH   2  11
BRANCH   1  51
ATOM     51  O   UNL     1       4.347  -2.746  27.573  0.00  0.00    -0.336 OA
BRANCH  51  57
ATOM     52  C   UNL     1       3.501  -4.448  29.250  0.00  0.00    +0.263 C 
ATOM     53  C   UNL     1       2.548  -3.539  30.035  0.00  0.00    +0.191 C 
ATOM     54  C   UNL     1       1.185  -3.426  29.354  0.00  0.00    +0.178 C 
ATOM     55  C   UNL     1       1.308  -3.074  27.863  0.00  0.00    +0.178 C 
ATOM     56  O   UNL     1       2.317  -3.850  27.183  0.00  0.00    -0.340 OA
ATOM     57  C   UNL     1       3.626  -3.964  27.781  0.00  0.00    +0.295 C 
BRANCH  54  58
ATOM     58  O   UNL     1       0.482  -4.671  29.488  0.00  0.00    -0.386 OA
ATOM     59  H   UNL     1      -0.336  -4.488  29.990  0.00  0.00    +0.210 HD
ENDBRANCH  54  58
BRANCH  53  60
ATOM     60  O   UNL     1       3.131  -2.253  30.226  0.00  0.00    -0.385 OA
ATOM     61  H   UNL     1       3.360  -2.172  31.172  0.00  0.00    +0.210 HD
ENDBRANCH  53  60
BRANCH  52  62
ATOM     62  O   UNL     1       2.966  -5.795  29.270  0.00  0.00    -0.450 OA
BRANCH  62  63
ATOM     63  C   UNL     1       3.580  -6.658  28.433  0.00  0.00    +0.332 C 
ATOM     64  O   UNL     1       4.712  -7.096  28.569  0.00  0.00    -0.246 OA
BRANCH  63  66
ATOM     65  C   UNL     1       3.178  -7.389  26.145  0.00  0.00    +0.015 C 
ATOM     66  C   UNL     1       2.669  -6.940  27.301  0.00  0.00    +0.092 C 
BRANCH  65  68
ATOM     67  C   UNL     1       1.448  -8.685  24.832  0.00  0.00    +0.011 A 
ATOM     68  C   UNL     1       2.405  -7.665  24.924  0.00  0.00    -0.025 A 
ATOM     69  C   UNL     1       2.683  -6.899  23.782  0.00  0.00    +0.011 A 
ATOM     70  C   UNL     1       2.008  -7.134  22.582  0.00  0.00    +0.046 A 
ATOM     71  C   UNL     1       1.064  -8.147  22.513  0.00  0.00    +0.117 A 
ATOM     72  C   UNL     1       0.774  -8.925  23.628  0.00  0.00    +0.046 A 
BRANCH  71  73
ATOM     73  O   UNL     1       0.443  -8.354  21.316  0.00  0.00    -0.507 OA
ATOM     74  H   UNL     1       0.502  -7.539  20.790  0.00  0.00    +0.292 HD
ENDBRANCH  71  73
ENDBRANCH  65  68
ENDBRANCH  63  66
ENDBRANCH  62  63
ENDBRANCH  52  62
BRANCH  55  75
ATOM     75  C   UNL     1       1.433  -1.564  27.611  0.00  0.00    +0.190 C 
BRANCH  75  76
ATOM     76  O   UNL     1       1.905  -1.328  26.288  0.00  0.00    -0.392 OA
ATOM     77  H   UNL     1       2.763  -0.874  26.385  0.00  0.00    +0.210 HD
ENDBRANCH  75  76
ENDBRANCH  55  75
ENDBRANCH  51  57
ENDBRANCH   1  51
BRANCH   4  78
ATOM     78  C   UNL     1       6.862  -4.514  23.727  0.00  0.00    +0.190 C 
BRANCH  78  79
ATOM     79  O   UNL     1       6.585  -4.556  22.329  0.00  0.00    -0.392 OA
ATOM     80  H   UNL     1       7.044  -5.349  21.974  0.00  0.00    +0.210 HD
ENDBRANCH  78  79
ENDBRANCH   4  78
TORSDOF 28
ENDMDL
