MODEL 1
REMARK VINA RESULT:      -6.4      0.000      0.000
REMARK  Name = 
REMARK  13 active torsions:
REMARK  status: ('A' for Active; 'I' for Inactive)
REMARK    1  A    between atoms: C_1  and  O_2
REMARK    2  A    between atoms: O_2  and  C_3
REMARK    3  A    between atoms: C_4  and  O_37
REMARK    4  A    between atoms: C_6  and  C_9
REMARK    5  A    between atoms: C_10  and  O_22
REMARK    6  A    between atoms: C_14  and  O_21
REMARK    7  A    between atoms: C_16  and  O_20
REMARK    8  A    between atoms: O_22  and  C_23
REMARK    9  A    between atoms: C_25  and  O_36
REMARK   10  A    between atoms: C_26  and  O_35
REMARK   11  A    between atoms: C_27  and  O_34
REMARK   12  A    between atoms: C_29  and  C_32
REMARK   13  A    between atoms: C_32  and  O_33
REMARK                            x       y       z     vdW  Elec       q    Type
REMARK                         _______ _______ _______ _____ _____    ______ ____
ROOT
ATOM      1  C   UNL     1       9.275   1.549  23.695  0.00  0.00    +0.181 A 
ATOM      2  O   UNL     1      10.548   1.983  23.330  0.00  0.00    -0.451 OA
ATOM      3  C   UNL     1      10.883   3.296  23.467  0.00  0.00    +0.147 A 
ATOM      4  C   UNL     1       9.942   4.276  23.734  0.00  0.00    +0.109 A 
ATOM      5  C   UNL     1      10.338   5.616  23.789  0.00  0.00    +0.135 A 
ATOM      6  C   UNL     1      11.680   5.960  23.620  0.00  0.00    +0.091 A 
ATOM      7  C   UNL     1      12.618   4.962  23.397  0.00  0.00    +0.124 A 
ATOM      8  C   UNL     1       8.564   3.850  24.006  0.00  0.00    +0.238 A 
ATOM      9  O   UNL     1       7.697   4.698  24.210  0.00  0.00    -0.283 OA
ATOM     10  C   UNL     1      12.231   3.629  23.306  0.00  0.00    +0.092 A 
ATOM     11  C   UNL     1       8.284   2.382  24.101  0.00  0.00    +0.214 A 
ENDROOT
BRANCH   1  15
ATOM     12  C   UNL     1       8.417  -2.605  23.348  0.00  0.00    +0.161 A 
ATOM     13  C   UNL     1       8.418  -1.788  22.223  0.00  0.00    +0.050 A 
ATOM     14  C   UNL     1       8.834  -0.455  22.328  0.00  0.00    +0.015 A 
ATOM     15  C   UNL     1       9.259   0.075  23.555  0.00  0.00    +0.025 A 
ATOM     16  C   UNL     1       9.357  -0.774  24.659  0.00  0.00    +0.060 A 
ATOM     17  C   UNL     1       8.955  -2.110  24.541  0.00  0.00    +0.159 A 
BRANCH  12  19
ATOM     18  C   UNL     1       7.100  -4.193  22.226  0.00  0.00    +0.277 C 
ATOM     19  O   UNL     1       7.922  -3.885  23.364  0.00  0.00    -0.491 OA
ENDBRANCH  12  19
BRANCH  17  20
ATOM     20  O   UNL     1       9.040  -2.921  25.643  0.00  0.00    -0.503 OA
ATOM     21  H   UNL     1       8.143  -2.925  26.031  0.00  0.00    +0.292 HD
ENDBRANCH  17  20
ENDBRANCH   1  15
BRANCH   5  22
ATOM     22  O   UNL     1       9.462   6.641  24.014  0.00  0.00    -0.506 OA
ATOM     23  H   UNL     1       8.856   6.369  24.742  0.00  0.00    +0.292 HD
ENDBRANCH   5  22
BRANCH   7  24
ATOM     24  O   UNL     1      13.944   5.245  23.262  0.00  0.00    -0.507 OA
ATOM     25  H   UNL     1      14.357   4.564  22.703  0.00  0.00    +0.292 HD
ENDBRANCH   7  24
BRANCH  11  26
ATOM     26  O   UNL     1       7.027   2.079  24.599  0.00  0.00    -0.453 OA
BRANCH  26  27
ATOM     27  C   UNL     1       6.887   2.070  26.018  0.00  0.00    +0.340 C 
ATOM     28  O   UNL     1       7.004   0.744  26.536  0.00  0.00    -0.331 OA
ATOM     29  C   UNL     1       5.894  -0.133  26.277  0.00  0.00    +0.179 C 
ATOM     30  C   UNL     1       4.618   0.446  26.895  0.00  0.00    +0.177 C 
ATOM     31  C   UNL     1       4.338   1.834  26.325  0.00  0.00    +0.180 C 
ATOM     32  C   UNL     1       5.560   2.740  26.479  0.00  0.00    +0.214 C 
BRANCH  30  33
ATOM     33  O   UNL     1       3.491  -0.402  26.668  0.00  0.00    -0.386 OA
ATOM     34  H   UNL     1       2.707   0.156  26.852  0.00  0.00    +0.210 HD
ENDBRANCH  30  33
BRANCH  31  35
ATOM     35  O   UNL     1       3.213   2.389  27.034  0.00  0.00    -0.386 OA
ATOM     36  H   UNL     1       2.903   3.153  26.509  0.00  0.00    +0.210 HD
ENDBRANCH  31  35
BRANCH  32  37
ATOM     37  O   UNL     1       5.289   3.996  25.838  0.00  0.00    -0.383 OA
ATOM     38  H   UNL     1       5.091   4.652  26.536  0.00  0.00    +0.210 HD
ENDBRANCH  32  37
BRANCH  29  39
ATOM     39  C   UNL     1       5.700  -0.515  24.792  0.00  0.00    +0.190 C 
BRANCH  39  40
ATOM     40  O   UNL     1       5.108  -1.801  24.639  0.00  0.00    -0.392 OA
ATOM     41  H   UNL     1       4.716  -1.841  23.747  0.00  0.00    +0.210 HD
ENDBRANCH  39  40
ENDBRANCH  29  39
ENDBRANCH  26  27
ENDBRANCH  11  26
TORSDOF 12
ENDMDL
MODEL 2
REMARK VINA RESULT:      -6.3      2.588      6.371
REMARK  Name = 
REMARK  13 active torsions:
REMARK  status: ('A' for Active; 'I' for Inactive)
REMARK    1  A    between atoms: C_1  and  O_2
REMARK    2  A    between atoms: O_2  and  C_3
REMARK    3  A    between atoms: C_4  and  O_37
REMARK    4  A    between atoms: C_6  and  C_9
REMARK    5  A    between atoms: C_10  and  O_22
REMARK    6  A    between atoms: C_14  and  O_21
REMARK    7  A    between atoms: C_16  and  O_20
REMARK    8  A    between atoms: O_22  and  C_23
REMARK    9  A    between atoms: C_25  and  O_36
REMARK   10  A    between atoms: C_26  and  O_35
REMARK   11  A    between atoms: C_27  and  O_34
REMARK   12  A    between atoms: C_29  and  C_32
REMARK   13  A    between atoms: C_32  and  O_33
REMARK                            x       y       z     vdW  Elec       q    Type
REMARK                         _______ _______ _______ _____ _____    ______ ____
ROOT
ATOM      1  C   UNL     1       6.743  -0.920  25.214  0.00  0.00    +0.181 A 
ATOM      2  O   UNL     1       7.265   0.369  25.123  0.00  0.00    -0.451 OA
ATOM      3  C   UNL     1       8.087   0.697  24.087  0.00  0.00    +0.147 A 
ATOM      4  C   UNL     1       8.622  -0.255  23.238  0.00  0.00    +0.109 A 
ATOM      5  C   UNL     1       9.518   0.137  22.238  0.00  0.00    +0.135 A 
ATOM      6  C   UNL     1       9.837   1.486  22.069  0.00  0.00    +0.091 A 
ATOM      7  C   UNL     1       9.257   2.434  22.902  0.00  0.00    +0.124 A 
ATOM      8  C   UNL     1       8.175  -1.644  23.392  0.00  0.00    +0.238 A 
ATOM      9  O   UNL     1       8.659  -2.521  22.677  0.00  0.00    -0.283 OA
ATOM     10  C   UNL     1       8.391   2.051  23.920  0.00  0.00    +0.092 A 
ATOM     11  C   UNL     1       7.079  -1.929  24.371  0.00  0.00    +0.214 A 
ENDROOT
BRANCH   1  15
ATOM     12  C   UNL     1       3.600  -1.463  28.031  0.00  0.00    +0.161 A 
ATOM     13  C   UNL     1       4.676  -2.342  27.997  0.00  0.00    +0.050 A 
ATOM     14  C   UNL     1       5.768  -2.077  27.161  0.00  0.00    +0.015 A 
ATOM     15  C   UNL     1       5.800  -0.929  26.356  0.00  0.00    +0.025 A 
ATOM     16  C   UNL     1       4.768   0.004  26.470  0.00  0.00    +0.060 A 
ATOM     17  C   UNL     1       3.687  -0.260  27.321  0.00  0.00    +0.159 A 
BRANCH  12  19
ATOM     18  C   UNL     1       1.606  -2.699  28.130  0.00  0.00    +0.277 C 
ATOM     19  O   UNL     1       2.442  -1.696  28.731  0.00  0.00    -0.491 OA
ENDBRANCH  12  19
BRANCH  17  20
ATOM     20  O   UNL     1       2.676   0.660  27.402  0.00  0.00    -0.503 OA
ATOM     21  H   UNL     1       1.953   0.208  27.880  0.00  0.00    +0.292 HD
ENDBRANCH  17  20
ENDBRANCH   1  15
BRANCH   5  22
ATOM     22  O   UNL     1      10.114  -0.749  21.383  0.00  0.00    -0.506 OA
ATOM     23  H   UNL     1       9.413  -1.337  21.019  0.00  0.00    +0.292 HD
ENDBRANCH   5  22
BRANCH   7  24
ATOM     24  O   UNL     1       9.508   3.765  22.753  0.00  0.00    -0.507 OA
ATOM     25  H   UNL     1      10.272   4.004  23.304  0.00  0.00    +0.292 HD
ENDBRANCH   7  24
BRANCH  11  26
ATOM     26  O   UNL     1       6.554  -3.208  24.276  0.00  0.00    -0.453 OA
BRANCH  26  27
ATOM     27  C   UNL     1       5.267  -3.328  23.675  0.00  0.00    +0.340 C 
ATOM     28  O   UNL     1       4.317  -3.861  24.598  0.00  0.00    -0.331 OA
ATOM     29  C   UNL     1       4.460  -5.258  24.910  0.00  0.00    +0.179 C 
ATOM     30  C   UNL     1       4.317  -6.093  23.634  0.00  0.00    +0.177 C 
ATOM     31  C   UNL     1       5.366  -5.672  22.607  0.00  0.00    +0.180 C 
ATOM     32  C   UNL     1       5.309  -4.164  22.362  0.00  0.00    +0.214 C 
BRANCH  30  33
ATOM     33  O   UNL     1       4.443  -7.491  23.902  0.00  0.00    -0.386 OA
ATOM     34  H   UNL     1       4.651  -7.553  24.857  0.00  0.00    +0.210 HD
ENDBRANCH  30  33
BRANCH  31  35
ATOM     35  O   UNL     1       5.103  -6.386  21.383  0.00  0.00    -0.386 OA
ATOM     36  H   UNL     1       5.928  -6.859  21.155  0.00  0.00    +0.210 HD
ENDBRANCH  31  35
BRANCH  32  37
ATOM     37  O   UNL     1       6.376  -3.799  21.474  0.00  0.00    -0.383 OA
ATOM     38  H   UNL     1       7.193  -3.715  22.004  0.00  0.00    +0.210 HD
ENDBRANCH  32  37
BRANCH  29  39
ATOM     39  C   UNL     1       5.737  -5.620  25.703  0.00  0.00    +0.190 C 
BRANCH  39  40
ATOM     40  O   UNL     1       5.539  -6.741  26.559  0.00  0.00    -0.392 OA
ATOM     41  H   UNL     1       6.412  -7.007  26.902  0.00  0.00    +0.210 HD
ENDBRANCH  39  40
ENDBRANCH  29  39
ENDBRANCH  26  27
ENDBRANCH  11  26
TORSDOF 12
ENDMDL
MODEL 3
REMARK VINA RESULT:      -6.2      2.016      7.047
REMARK  Name = 
REMARK  13 active torsions:
REMARK  status: ('A' for Active; 'I' for Inactive)
REMARK    1  A    between atoms: C_1  and  O_2
REMARK    2  A    between atoms: O_2  and  C_3
REMARK    3  A    between atoms: C_4  and  O_37
REMARK    4  A    between atoms: C_6  and  C_9
REMARK    5  A    between atoms: C_10  and  O_22
REMARK    6  A    between atoms: C_14  and  O_21
REMARK    7  A    between atoms: C_16  and  O_20
REMARK    8  A    between atoms: O_22  and  C_23
REMARK    9  A    between atoms: C_25  and  O_36
REMARK   10  A    between atoms: C_26  and  O_35
REMARK   11  A    between atoms: C_27  and  O_34
REMARK   12  A    between atoms: C_29  and  C_32
REMARK   13  A    between atoms: C_32  and  O_33
REMARK                            x       y       z     vdW  Elec       q    Type
REMARK                         _______ _______ _______ _____ _____    ______ ____
ROOT
ATOM      1  C   UNL     1       7.958  -1.805  24.079  0.00  0.00    +0.181 A 
ATOM      2  O   UNL     1       7.964  -2.760  23.063  0.00  0.00    -0.451 OA
ATOM      3  C   UNL     1       7.070  -3.787  23.093  0.00  0.00    +0.147 A 
ATOM      4  C   UNL     1       6.302  -4.068  24.209  0.00  0.00    +0.109 A 
ATOM      5  C   UNL     1       5.457  -5.182  24.203  0.00  0.00    +0.135 A 
ATOM      6  C   UNL     1       5.355  -5.981  23.063  0.00  0.00    +0.091 A 
ATOM      7  C   UNL     1       6.100  -5.660  21.936  0.00  0.00    +0.124 A 
ATOM      8  C   UNL     1       6.370  -3.138  25.342  0.00  0.00    +0.238 A 
ATOM      9  O   UNL     1       5.727  -3.378  26.364  0.00  0.00    -0.283 OA
ATOM     10  C   UNL     1       6.969  -4.575  21.943  0.00  0.00    +0.092 A 
ATOM     11  C   UNL     1       7.166  -1.880  25.178  0.00  0.00    +0.214 A 
ENDROOT
BRANCH   1  15
ATOM     12  C   UNL     1      10.304   1.688  23.439  0.00  0.00    +0.161 A 
ATOM     13  C   UNL     1      10.504   0.900  24.566  0.00  0.00    +0.050 A 
ATOM     14  C   UNL     1       9.825  -0.316  24.699  0.00  0.00    +0.015 A 
ATOM     15  C   UNL     1       8.942  -0.763  23.705  0.00  0.00    +0.025 A 
ATOM     16  C   UNL     1       8.822  -0.023  22.527  0.00  0.00    +0.060 A 
ATOM     17  C   UNL     1       9.519   1.185  22.395  0.00  0.00    +0.159 A 
BRANCH  12  19
ATOM     18  C   UNL     1      10.028   3.984  23.844  0.00  0.00    +0.277 C 
ATOM     19  O   UNL     1      10.838   2.942  23.275  0.00  0.00    -0.491 OA
ENDBRANCH  12  19
BRANCH  17  20
ATOM     20  O   UNL     1       9.371   1.905  21.239  0.00  0.00    -0.503 OA
ATOM     21  H   UNL     1      10.273   2.192  20.996  0.00  0.00    +0.292 HD
ENDBRANCH  17  20
ENDBRANCH   1  15
BRANCH   5  22
ATOM     22  O   UNL     1       4.693  -5.542  25.279  0.00  0.00    -0.506 OA
ATOM     23  H   UNL     1       4.849  -6.499  25.455  0.00  0.00    +0.292 HD
ENDBRANCH   5  22
BRANCH   7  24
ATOM     24  O   UNL     1       6.007  -6.389  20.788  0.00  0.00    -0.507 OA
ATOM     25  H   UNL     1       5.519  -7.209  20.974  0.00  0.00    +0.292 HD
ENDBRANCH   7  24
BRANCH  11  26
ATOM     26  O   UNL     1       6.975  -0.955  26.191  0.00  0.00    -0.453 OA
BRANCH  26  27
ATOM     27  C   UNL     1       6.328   0.263  25.831  0.00  0.00    +0.340 C 
ATOM     28  O   UNL     1       7.081   1.394  26.272  0.00  0.00    -0.331 OA
ATOM     29  C   UNL     1       7.074   1.641  27.689  0.00  0.00    +0.179 C 
ATOM     30  C   UNL     1       5.638   1.883  28.167  0.00  0.00    +0.177 C 
ATOM     31  C   UNL     1       4.762   0.677  27.837  0.00  0.00    +0.180 C 
ATOM     32  C   UNL     1       4.862   0.324  26.353  0.00  0.00    +0.214 C 
BRANCH  30  33
ATOM     33  O   UNL     1       5.588   2.142  29.571  0.00  0.00    -0.386 OA
ATOM     34  H   UNL     1       4.802   2.712  29.700  0.00  0.00    +0.210 HD
ENDBRANCH  30  33
BRANCH  31  35
ATOM     35  O   UNL     1       3.402   1.007  28.181  0.00  0.00    -0.386 OA
ATOM     36  H   UNL     1       3.242   0.632  29.069  0.00  0.00    +0.210 HD
ENDBRANCH  31  35
BRANCH  32  37
ATOM     37  O   UNL     1       4.108  -0.873  26.110  0.00  0.00    -0.383 OA
ATOM     38  H   UNL     1       3.411  -0.932  26.792  0.00  0.00    +0.210 HD
ENDBRANCH  32  37
BRANCH  29  39
ATOM     39  C   UNL     1       7.799   0.573  28.539  0.00  0.00    +0.190 C 
BRANCH  39  40
ATOM     40  O   UNL     1       8.347   1.118  29.735  0.00  0.00    -0.392 OA
ATOM     41  H   UNL     1       7.619   1.218  30.375  0.00  0.00    +0.210 HD
ENDBRANCH  39  40
ENDBRANCH  29  39
ENDBRANCH  26  27
ENDBRANCH  11  26
TORSDOF 12
ENDMDL
MODEL 4
REMARK VINA RESULT:      -6.1      2.362      6.687
REMARK  Name = 
REMARK  13 active torsions:
REMARK  status: ('A' for Active; 'I' for Inactive)
REMARK    1  A    between atoms: C_1  and  O_2
REMARK    2  A    between atoms: O_2  and  C_3
REMARK    3  A    between atoms: C_4  and  O_37
REMARK    4  A    between atoms: C_6  and  C_9
REMARK    5  A    between atoms: C_10  and  O_22
REMARK    6  A    between atoms: C_14  and  O_21
REMARK    7  A    between atoms: C_16  and  O_20
REMARK    8  A    between atoms: O_22  and  C_23
REMARK    9  A    between atoms: C_25  and  O_36
REMARK   10  A    between atoms: C_26  and  O_35
REMARK   11  A    between atoms: C_27  and  O_34
REMARK   12  A    between atoms: C_29  and  C_32
REMARK   13  A    between atoms: C_32  and  O_33
REMARK                            x       y       z     vdW  Elec       q    Type
REMARK                         _______ _______ _______ _____ _____    ______ ____
ROOT
ATOM      1  C   UNL     1       6.641  -1.670  25.605  0.00  0.00    +0.181 A 
ATOM      2  O   UNL     1       5.689  -2.375  26.340  0.00  0.00    -0.451 OA
ATOM      3  C   UNL     1       5.029  -1.760  27.361  0.00  0.00    +0.147 A 
ATOM      4  C   UNL     1       5.422  -0.531  27.863  0.00  0.00    +0.109 A 
ATOM      5  C   UNL     1       4.749   0.014  28.961  0.00  0.00    +0.135 A 
ATOM      6  C   UNL     1       3.659  -0.656  29.520  0.00  0.00    +0.091 A 
ATOM      7  C   UNL     1       3.250  -1.867  28.978  0.00  0.00    +0.124 A 
ATOM      8  C   UNL     1       6.506   0.178  27.174  0.00  0.00    +0.238 A 
ATOM      9  O   UNL     1       6.903   1.256  27.616  0.00  0.00    -0.283 OA
ATOM     10  C   UNL     1       3.933  -2.434  27.908  0.00  0.00    +0.092 A 
ATOM     11  C   UNL     1       7.037  -0.407  25.902  0.00  0.00    +0.214 A 
ENDROOT
BRANCH   1  15
ATOM     12  C   UNL     1       7.240  -4.645  22.622  0.00  0.00    +0.161 A 
ATOM     13  C   UNL     1       6.439  -3.539  22.364  0.00  0.00    +0.050 A 
ATOM     14  C   UNL     1       6.358  -2.502  23.300  0.00  0.00    +0.015 A 
ATOM     15  C   UNL     1       7.081  -2.554  24.501  0.00  0.00    +0.025 A 
ATOM     16  C   UNL     1       7.965  -3.614  24.711  0.00  0.00    +0.060 A 
ATOM     17  C   UNL     1       8.053  -4.640  23.762  0.00  0.00    +0.159 A 
BRANCH  12  19
ATOM     18  C   UNL     1       6.192  -5.849  20.900  0.00  0.00    +0.277 C 
ATOM     19  O   UNL     1       7.294  -5.757  21.818  0.00  0.00    -0.491 OA
ENDBRANCH  12  19
BRANCH  17  20
ATOM     20  O   UNL     1       8.912  -5.681  23.997  0.00  0.00    -0.503 OA
ATOM     21  H   UNL     1       9.184  -5.585  24.931  0.00  0.00    +0.292 HD
ENDBRANCH  17  20
ENDBRANCH   1  15
BRANCH   5  22
ATOM     22  O   UNL     1       5.099   1.205  29.532  0.00  0.00    -0.506 OA
ATOM     23  H   UNL     1       4.328   1.814  29.464  0.00  0.00    +0.292 HD
ENDBRANCH   5  22
BRANCH   7  24
ATOM     24  O   UNL     1       2.170  -2.540  29.466  0.00  0.00    -0.507 OA
ATOM     25  H   UNL     1       1.367  -2.207  29.029  0.00  0.00    +0.292 HD
ENDBRANCH   7  24
BRANCH  11  26
ATOM     26  O   UNL     1       7.874   0.442  25.196  0.00  0.00    -0.453 OA
BRANCH  26  27
ATOM     27  C   UNL     1       7.245   1.406  24.354  0.00  0.00    +0.340 C 
ATOM     28  O   UNL     1       7.116   0.914  23.019  0.00  0.00    -0.331 OA
ATOM     29  C   UNL     1       8.335   0.833  22.259  0.00  0.00    +0.179 C 
ATOM     30  C   UNL     1       8.963   2.225  22.133  0.00  0.00    +0.177 C 
ATOM     31  C   UNL     1       9.243   2.804  23.518  0.00  0.00    +0.180 C 
ATOM     32  C   UNL     1       7.982   2.777  24.382  0.00  0.00    +0.214 C 
BRANCH  30  33
ATOM     33  O   UNL     1      10.174   2.190  21.375  0.00  0.00    -0.386 OA
ATOM     34  H   UNL     1      10.543   1.295  21.519  0.00  0.00    +0.210 HD
ENDBRANCH  30  33
BRANCH  31  35
ATOM     35  O   UNL     1       9.702   4.160  23.349  0.00  0.00    -0.386 OA
ATOM     36  H   UNL     1       9.764   4.545  24.245  0.00  0.00    +0.210 HD
ENDBRANCH  31  35
BRANCH  32  37
ATOM     37  O   UNL     1       8.315   3.232  25.702  0.00  0.00    -0.383 OA
ATOM     38  H   UNL     1       8.258   2.466  26.306  0.00  0.00    +0.210 HD
ENDBRANCH  32  37
BRANCH  29  39
ATOM     39  C   UNL     1       9.348  -0.220  22.764  0.00  0.00    +0.190 C 
BRANCH  39  40
ATOM     40  O   UNL     1      10.046  -0.851  21.695  0.00  0.00    -0.392 OA
ATOM     41  H   UNL     1      11.000  -0.739  21.859  0.00  0.00    +0.210 HD
ENDBRANCH  39  40
ENDBRANCH  29  39
ENDBRANCH  26  27
ENDBRANCH  11  26
TORSDOF 12
ENDMDL
MODEL 5
REMARK VINA RESULT:      -6.1      2.585      6.490
REMARK  Name = 
REMARK  13 active torsions:
REMARK  status: ('A' for Active; 'I' for Inactive)
REMARK    1  A    between atoms: C_1  and  O_2
REMARK    2  A    between atoms: O_2  and  C_3
REMARK    3  A    between atoms: C_4  and  O_37
REMARK    4  A    between atoms: C_6  and  C_9
REMARK    5  A    between atoms: C_10  and  O_22
REMARK    6  A    between atoms: C_14  and  O_21
REMARK    7  A    between atoms: C_16  and  O_20
REMARK    8  A    between atoms: O_22  and  C_23
REMARK    9  A    between atoms: C_25  and  O_36
REMARK   10  A    between atoms: C_26  and  O_35
REMARK   11  A    between atoms: C_27  and  O_34
REMARK   12  A    between atoms: C_29  and  C_32
REMARK   13  A    between atoms: C_32  and  O_33
REMARK                            x       y       z     vdW  Elec       q    Type
REMARK                         _______ _______ _______ _____ _____    ______ ____
ROOT
ATOM      1  C   UNL     1       6.540  -0.851  25.187  0.00  0.00    +0.181 A 
ATOM      2  O   UNL     1       7.102   0.417  25.048  0.00  0.00    -0.451 OA
ATOM      3  C   UNL     1       8.054   0.637  24.098  0.00  0.00    +0.147 A 
ATOM      4  C   UNL     1       8.666  -0.397  23.411  0.00  0.00    +0.109 A 
ATOM      5  C   UNL     1       9.688  -0.112  22.501  0.00  0.00    +0.135 A 
ATOM      6  C   UNL     1      10.060   1.211  22.254  0.00  0.00    +0.091 A 
ATOM      7  C   UNL     1       9.407   2.240  22.919  0.00  0.00    +0.124 A 
ATOM      8  C   UNL     1       8.167  -1.760  23.631  0.00  0.00    +0.238 A 
ATOM      9  O   UNL     1       8.713  -2.705  23.063  0.00  0.00    -0.283 OA
ATOM     10  C   UNL     1       8.412   1.965  23.851  0.00  0.00    +0.092 A 
ATOM     11  C   UNL     1       6.951  -1.937  24.486  0.00  0.00    +0.214 A 
ENDROOT
BRANCH   1  15
ATOM     12  C   UNL     1       4.017  -0.173  28.547  0.00  0.00    +0.161 A 
ATOM     13  C   UNL     1       4.176   0.807  27.575  0.00  0.00    +0.050 A 
ATOM     14  C   UNL     1       4.896   0.525  26.408  0.00  0.00    +0.015 A 
ATOM     15  C   UNL     1       5.462  -0.741  26.197  0.00  0.00    +0.025 A 
ATOM     16  C   UNL     1       5.214  -1.755  27.125  0.00  0.00    +0.060 A 
ATOM     17  C   UNL     1       4.477  -1.468  28.281  0.00  0.00    +0.159 A 
BRANCH  12  19
ATOM     18  C   UNL     1       3.155   1.433  30.027  0.00  0.00    +0.277 C 
ATOM     19  O   UNL     1       3.426   0.045  29.767  0.00  0.00    -0.491 OA
ENDBRANCH  12  19
BRANCH  17  20
ATOM     20  O   UNL     1       4.262  -2.472  29.188  0.00  0.00    -0.503 OA
ATOM     21  H   UNL     1       3.592  -3.053  28.777  0.00  0.00    +0.292 HD
ENDBRANCH  17  20
ENDBRANCH   1  15
BRANCH   5  22
ATOM     22  O   UNL     1      10.362  -1.080  21.810  0.00  0.00    -0.506 OA
ATOM     23  H   UNL     1      11.249  -1.189  22.225  0.00  0.00    +0.292 HD
ENDBRANCH   5  22
BRANCH   7  24
ATOM     24  O   UNL     1       9.710   3.547  22.685  0.00  0.00    -0.507 OA
ATOM     25  H   UNL     1      10.365   3.841  23.341  0.00  0.00    +0.292 HD
ENDBRANCH   7  24
BRANCH  11  26
ATOM     26  O   UNL     1       6.409  -3.211  24.440  0.00  0.00    -0.453 OA
BRANCH  26  27
ATOM     27  C   UNL     1       5.159  -3.351  23.769  0.00  0.00    +0.340 C 
ATOM     28  O   UNL     1       4.174  -3.924  24.631  0.00  0.00    -0.331 OA
ATOM     29  C   UNL     1       4.335  -5.322  24.926  0.00  0.00    +0.179 C 
ATOM     30  C   UNL     1       4.280  -6.137  23.629  0.00  0.00    +0.177 C 
ATOM     31  C   UNL     1       5.371  -5.672  22.668  0.00  0.00    +0.180 C 
ATOM     32  C   UNL     1       5.291  -4.161  22.446  0.00  0.00    +0.214 C 
BRANCH  30  33
ATOM     33  O   UNL     1       4.426  -7.536  23.880  0.00  0.00    -0.386 OA
ATOM     34  H   UNL     1       3.626  -7.793  24.382  0.00  0.00    +0.210 HD
ENDBRANCH  30  33
BRANCH  31  35
ATOM     35  O   UNL     1       5.191  -6.369  21.419  0.00  0.00    -0.386 OA
ATOM     36  H   UNL     1       5.841  -7.100  21.414  0.00  0.00    +0.210 HD
ENDBRANCH  31  35
BRANCH  32  37
ATOM     37  O   UNL     1       6.394  -3.755  21.622  0.00  0.00    -0.383 OA
ATOM     38  H   UNL     1       6.636  -2.842  21.874  0.00  0.00    +0.210 HD
ENDBRANCH  32  37
BRANCH  29  39
ATOM     39  C   UNL     1       5.576  -5.669  25.779  0.00  0.00    +0.190 C 
BRANCH  39  40
ATOM     40  O   UNL     1       5.382  -6.844  26.560  0.00  0.00    -0.392 OA
ATOM     41  H   UNL     1       5.948  -7.544  26.186  0.00  0.00    +0.210 HD
ENDBRANCH  39  40
ENDBRANCH  29  39
ENDBRANCH  26  27
ENDBRANCH  11  26
TORSDOF 12
ENDMDL
MODEL 6
REMARK VINA RESULT:      -6.1      2.300      8.018
REMARK  Name = 
REMARK  13 active torsions:
REMARK  status: ('A' for Active; 'I' for Inactive)
REMARK    1  A    between atoms: C_1  and  O_2
REMARK    2  A    between atoms: O_2  and  C_3
REMARK    3  A    between atoms: C_4  and  O_37
REMARK    4  A    between atoms: C_6  and  C_9
REMARK    5  A    between atoms: C_10  and  O_22
REMARK    6  A    between atoms: C_14  and  O_21
REMARK    7  A    between atoms: C_16  and  O_20
REMARK    8  A    between atoms: O_22  and  C_23
REMARK    9  A    between atoms: C_25  and  O_36
REMARK   10  A    between atoms: C_26  and  O_35
REMARK   11  A    between atoms: C_27  and  O_34
REMARK   12  A    between atoms: C_29  and  C_32
REMARK   13  A    between atoms: C_32  and  O_33
REMARK                            x       y       z     vdW  Elec       q    Type
REMARK                         _______ _______ _______ _____ _____    ______ ____
ROOT
ATOM      1  C   UNL     1       6.039  -1.564  25.121  0.00  0.00    +0.181 A 
ATOM      2  O   UNL     1       5.423  -2.763  25.476  0.00  0.00    -0.451 OA
ATOM      3  C   UNL     1       5.432  -3.814  24.609  0.00  0.00    +0.147 A 
ATOM      4  C   UNL     1       5.824  -3.680  23.288  0.00  0.00    +0.109 A 
ATOM      5  C   UNL     1       5.741  -4.780  22.429  0.00  0.00    +0.135 A 
ATOM      6  C   UNL     1       5.308  -6.017  22.910  0.00  0.00    +0.091 A 
ATOM      7  C   UNL     1       4.961  -6.145  24.249  0.00  0.00    +0.124 A 
ATOM      8  C   UNL     1       6.368  -2.386  22.860  0.00  0.00    +0.238 A 
ATOM      9  O   UNL     1       6.691  -2.224  21.684  0.00  0.00    -0.283 OA
ATOM     10  C   UNL     1       5.007  -5.050  25.104  0.00  0.00    +0.092 A 
ATOM     11  C   UNL     1       6.583  -1.331  23.900  0.00  0.00    +0.214 A 
ENDROOT
BRANCH   1  15
ATOM     12  C   UNL     1       6.107   1.574  27.995  0.00  0.00    +0.161 A 
ATOM     13  C   UNL     1       4.983   1.366  27.204  0.00  0.00    +0.050 A 
ATOM     14  C   UNL     1       4.919   0.250  26.361  0.00  0.00    +0.015 A 
ATOM     15  C   UNL     1       5.974  -0.673  26.302  0.00  0.00    +0.025 A 
ATOM     16  C   UNL     1       7.054  -0.519  27.173  0.00  0.00    +0.060 A 
ATOM     17  C   UNL     1       7.102   0.591  28.025  0.00  0.00    +0.159 A 
BRANCH  12  19
ATOM     18  C   UNL     1       5.375   2.809  29.853  0.00  0.00    +0.277 C 
ATOM     19  O   UNL     1       6.306   2.694  28.764  0.00  0.00    -0.491 OA
ENDBRANCH  12  19
BRANCH  17  20
ATOM     20  O   UNL     1       8.182   0.733  28.857  0.00  0.00    -0.503 OA
ATOM     21  H   UNL     1       8.142  -0.032  29.465  0.00  0.00    +0.292 HD
ENDBRANCH  17  20
ENDBRANCH   1  15
BRANCH   5  22
ATOM     22  O   UNL     1       6.077  -4.717  21.105  0.00  0.00    -0.506 OA
ATOM     23  H   UNL     1       6.563  -5.543  20.876  0.00  0.00    +0.292 HD
ENDBRANCH   5  22
BRANCH   7  24
ATOM     24  O   UNL     1       4.568  -7.340  24.773  0.00  0.00    -0.507 OA
ATOM     25  H   UNL     1       5.174  -7.583  25.493  0.00  0.00    +0.292 HD
ENDBRANCH   7  24
BRANCH  11  26
ATOM     26  O   UNL     1       7.321  -0.244  23.458  0.00  0.00    -0.453 OA
BRANCH  26  27
ATOM     27  C   UNL     1       8.725  -0.285  23.698  0.00  0.00    +0.340 C 
ATOM     28  O   UNL     1       9.060   0.401  24.905  0.00  0.00    -0.331 OA
ATOM     29  C   UNL     1       8.964   1.835  24.860  0.00  0.00    +0.179 C 
ATOM     30  C   UNL     1       9.911   2.387  23.790  0.00  0.00    +0.177 C 
ATOM     31  C   UNL     1       9.569   1.792  22.425  0.00  0.00    +0.180 C 
ATOM     32  C   UNL     1       9.541   0.265  22.491  0.00  0.00    +0.214 C 
BRANCH  30  33
ATOM     33  O   UNL     1       9.853   3.813  23.719  0.00  0.00    -0.386 OA
ATOM     34  H   UNL     1      10.719   4.123  24.055  0.00  0.00    +0.210 HD
ENDBRANCH  30  33
BRANCH  31  35
ATOM     35  O   UNL     1      10.568   2.233  21.485  0.00  0.00    -0.386 OA
ATOM     36  H   UNL     1      10.950   1.425  21.088  0.00  0.00    +0.210 HD
ENDBRANCH  31  35
BRANCH  32  37
ATOM     37  O   UNL     1       9.116  -0.246  21.219  0.00  0.00    -0.383 OA
ATOM     38  H   UNL     1       9.531  -1.121  21.094  0.00  0.00    +0.210 HD
ENDBRANCH  32  37
BRANCH  29  39
ATOM     39  C   UNL     1       7.528   2.387  24.707  0.00  0.00    +0.190 C 
BRANCH  39  40
ATOM     40  O   UNL     1       7.381   3.677  25.292  0.00  0.00    -0.392 OA
ATOM     41  H   UNL     1       8.148   3.826  25.874  0.00  0.00    +0.210 HD
ENDBRANCH  39  40
ENDBRANCH  29  39
ENDBRANCH  26  27
ENDBRANCH  11  26
TORSDOF 12
ENDMDL
MODEL 7
REMARK VINA RESULT:      -6.1      2.625      7.944
REMARK  Name = 
REMARK  13 active torsions:
REMARK  status: ('A' for Active; 'I' for Inactive)
REMARK    1  A    between atoms: C_1  and  O_2
REMARK    2  A    between atoms: O_2  and  C_3
REMARK    3  A    between atoms: C_4  and  O_37
REMARK    4  A    between atoms: C_6  and  C_9
REMARK    5  A    between atoms: C_10  and  O_22
REMARK    6  A    between atoms: C_14  and  O_21
REMARK    7  A    between atoms: C_16  and  O_20
REMARK    8  A    between atoms: O_22  and  C_23
REMARK    9  A    between atoms: C_25  and  O_36
REMARK   10  A    between atoms: C_26  and  O_35
REMARK   11  A    between atoms: C_27  and  O_34
REMARK   12  A    between atoms: C_29  and  C_32
REMARK   13  A    between atoms: C_32  and  O_33
REMARK                            x       y       z     vdW  Elec       q    Type
REMARK                         _______ _______ _______ _____ _____    ______ ____
ROOT
ATOM      1  C   UNL     1       6.649  -0.966  26.550  0.00  0.00    +0.181 A 
ATOM      2  O   UNL     1       6.012  -2.058  27.137  0.00  0.00    -0.451 OA
ATOM      3  C   UNL     1       6.225  -3.312  26.647  0.00  0.00    +0.147 A 
ATOM      4  C   UNL     1       6.865  -3.535  25.440  0.00  0.00    +0.109 A 
ATOM      5  C   UNL     1       6.987  -4.841  24.956  0.00  0.00    +0.135 A 
ATOM      6  C   UNL     1       6.507  -5.917  25.705  0.00  0.00    +0.091 A 
ATOM      7  C   UNL     1       5.907  -5.679  26.934  0.00  0.00    +0.124 A 
ATOM      8  C   UNL     1       7.442  -2.380  24.743  0.00  0.00    +0.238 A 
ATOM      9  O   UNL     1       7.985  -2.541  23.651  0.00  0.00    -0.283 OA
ATOM     10  C   UNL     1       5.749  -4.382  27.409  0.00  0.00    +0.092 A 
ATOM     11  C   UNL     1       7.415  -1.052  25.434  0.00  0.00    +0.214 A 
ENDROOT
BRANCH   1  15
ATOM     12  C   UNL     1       6.061   2.867  28.303  0.00  0.00    +0.161 A 
ATOM     13  C   UNL     1       5.127   2.347  27.414  0.00  0.00    +0.050 A 
ATOM     14  C   UNL     1       5.261   1.033  26.950  0.00  0.00    +0.015 A 
ATOM     15  C   UNL     1       6.324   0.222  27.373  0.00  0.00    +0.025 A 
ATOM     16  C   UNL     1       7.200   0.710  28.345  0.00  0.00    +0.060 A 
ATOM     17  C   UNL     1       7.049   2.020  28.816  0.00  0.00    +0.159 A 
BRANCH  12  19
ATOM     18  C   UNL     1       6.175   5.118  27.642  0.00  0.00    +0.277 C 
ATOM     19  O   UNL     1       6.074   4.175  28.722  0.00  0.00    -0.491 OA
ENDBRANCH  12  19
BRANCH  17  20
ATOM     20  O   UNL     1       7.931   2.485  29.755  0.00  0.00    -0.503 OA
ATOM     21  H   UNL     1       7.412   2.570  30.579  0.00  0.00    +0.292 HD
ENDBRANCH  17  20
ENDBRANCH   1  15
BRANCH   5  22
ATOM     22  O   UNL     1       7.576  -5.138  23.758  0.00  0.00    -0.506 OA
ATOM     23  H   UNL     1       7.981  -6.033  23.832  0.00  0.00    +0.292 HD
ENDBRANCH   5  22
BRANCH   7  24
ATOM     24  O   UNL     1       5.455  -6.698  27.718  0.00  0.00    -0.507 OA
ATOM     25  H   UNL     1       5.865  -7.529  27.421  0.00  0.00    +0.292 HD
ENDBRANCH   7  24
BRANCH  11  26
ATOM     26  O   UNL     1       8.191  -0.082  24.822  0.00  0.00    -0.453 OA
BRANCH  26  27
ATOM     27  C   UNL     1       7.504   0.877  24.022  0.00  0.00    +0.340 C 
ATOM     28  O   UNL     1       7.538   0.512  22.641  0.00  0.00    -0.331 OA
ATOM     29  C   UNL     1       8.808   0.660  21.983  0.00  0.00    +0.179 C 
ATOM     30  C   UNL     1       9.255   2.124  22.039  0.00  0.00    +0.177 C 
ATOM     31  C   UNL     1       9.356   2.590  23.489  0.00  0.00    +0.180 C 
ATOM     32  C   UNL     1       8.050   2.319  24.237  0.00  0.00    +0.214 C 
BRANCH  30  33
ATOM     33  O   UNL     1      10.511   2.317  21.386  0.00  0.00    -0.386 OA
ATOM     34  H   UNL     1      10.333   2.960  20.669  0.00  0.00    +0.210 HD
ENDBRANCH  30  33
BRANCH  31  35
ATOM     35  O   UNL     1       9.643   4.002  23.484  0.00  0.00    -0.386 OA
ATOM     36  H   UNL     1       9.295   4.359  24.326  0.00  0.00    +0.210 HD
ENDBRANCH  31  35
BRANCH  32  37
ATOM     37  O   UNL     1       8.224   2.675  25.617  0.00  0.00    -0.383 OA
ATOM     38  H   UNL     1       7.452   3.209  25.888  0.00  0.00    +0.210 HD
ENDBRANCH  32  37
BRANCH  29  39
ATOM     39  C   UNL     1       9.911  -0.305  22.473  0.00  0.00    +0.190 C 
BRANCH  39  40
ATOM     40  O   UNL     1      10.041  -1.447  21.632  0.00  0.00    -0.392 OA
ATOM     41  H   UNL     1       9.893  -2.237  22.182  0.00  0.00    +0.210 HD
ENDBRANCH  39  40
ENDBRANCH  29  39
ENDBRANCH  26  27
ENDBRANCH  11  26
TORSDOF 12
ENDMDL
MODEL 8
REMARK VINA RESULT:      -5.9      1.409      2.083
REMARK  Name = 
REMARK  13 active torsions:
REMARK  status: ('A' for Active; 'I' for Inactive)
REMARK    1  A    between atoms: C_1  and  O_2
REMARK    2  A    between atoms: O_2  and  C_3
REMARK    3  A    between atoms: C_4  and  O_37
REMARK    4  A    between atoms: C_6  and  C_9
REMARK    5  A    between atoms: C_10  and  O_22
REMARK    6  A    between atoms: C_14  and  O_21
REMARK    7  A    between atoms: C_16  and  O_20
REMARK    8  A    between atoms: O_22  and  C_23
REMARK    9  A    between atoms: C_25  and  O_36
REMARK   10  A    between atoms: C_26  and  O_35
REMARK   11  A    between atoms: C_27  and  O_34
REMARK   12  A    between atoms: C_29  and  C_32
REMARK   13  A    between atoms: C_32  and  O_33
REMARK                            x       y       z     vdW  Elec       q    Type
REMARK                         _______ _______ _______ _____ _____    ______ ____
ROOT
ATOM      1  C   UNL     1       8.832   2.121  24.252  0.00  0.00    +0.181 A 
ATOM      2  O   UNL     1      10.087   2.342  23.686  0.00  0.00    -0.451 OA
ATOM      3  C   UNL     1      10.652   3.581  23.750  0.00  0.00    +0.147 A 
ATOM      4  C   UNL     1       9.939   4.699  24.147  0.00  0.00    +0.109 A 
ATOM      5  C   UNL     1      10.554   5.954  24.121  0.00  0.00    +0.135 A 
ATOM      6  C   UNL     1      11.892   6.074  23.739  0.00  0.00    +0.091 A 
ATOM      7  C   UNL     1      12.605   4.937  23.386  0.00  0.00    +0.124 A 
ATOM      8  C   UNL     1       8.570   4.504  24.637  0.00  0.00    +0.238 A 
ATOM      9  O   UNL     1       7.897   5.482  24.963  0.00  0.00    -0.283 OA
ATOM     10  C   UNL     1      11.993   3.688  23.375  0.00  0.00    +0.092 A 
ATOM     11  C   UNL     1       8.069   3.102  24.796  0.00  0.00    +0.214 A 
ENDROOT
BRANCH   1  15
ATOM     12  C   UNL     1       8.400  -1.979  23.197  0.00  0.00    +0.161 A 
ATOM     13  C   UNL     1       9.552  -1.531  23.831  0.00  0.00    +0.050 A 
ATOM     14  C   UNL     1       9.628  -0.213  24.295  0.00  0.00    +0.015 A 
ATOM     15  C   UNL     1       8.551   0.672  24.137  0.00  0.00    +0.025 A 
ATOM     16  C   UNL     1       7.357   0.191  23.595  0.00  0.00    +0.060 A 
ATOM     17  C   UNL     1       7.285  -1.134  23.148  0.00  0.00    +0.159 A 
BRANCH  12  19
ATOM     18  C   UNL     1       8.007  -4.266  23.553  0.00  0.00    +0.277 C 
ATOM     19  O   UNL     1       8.277  -3.215  22.612  0.00  0.00    -0.491 OA
ENDBRANCH  12  19
BRANCH  17  20
ATOM     20  O   UNL     1       6.110  -1.579  22.601  0.00  0.00    -0.503 OA
ATOM     21  H   UNL     1       5.473  -0.848  22.726  0.00  0.00    +0.292 HD
ENDBRANCH  17  20
ENDBRANCH   1  15
BRANCH   5  22
ATOM     22  O   UNL     1       9.906   7.108  24.466  0.00  0.00    -0.506 OA
ATOM     23  H   UNL     1       8.942   6.913  24.510  0.00  0.00    +0.292 HD
ENDBRANCH   5  22
BRANCH   7  24
ATOM     24  O   UNL     1      13.922   4.998  23.041  0.00  0.00    -0.507 OA
ATOM     25  H   UNL     1      13.992   5.292  22.116  0.00  0.00    +0.292 HD
ENDBRANCH   7  24
BRANCH  11  26
ATOM     26  O   UNL     1       6.873   3.005  25.489  0.00  0.00    -0.453 OA
BRANCH  26  27
ATOM     27  C   UNL     1       6.916   2.337  26.748  0.00  0.00    +0.340 C 
ATOM     28  O   UNL     1       5.972   1.266  26.794  0.00  0.00    -0.331 OA
ATOM     29  C   UNL     1       4.589   1.651  26.883  0.00  0.00    +0.179 C 
ATOM     30  C   UNL     1       4.357   2.467  28.158  0.00  0.00    +0.177 C 
ATOM     31  C   UNL     1       5.250   3.705  28.162  0.00  0.00    +0.180 C 
ATOM     32  C   UNL     1       6.713   3.320  27.939  0.00  0.00    +0.214 C 
BRANCH  30  33
ATOM     33  O   UNL     1       2.990   2.862  28.291  0.00  0.00    -0.386 OA
ATOM     34  H   UNL     1       2.606   2.766  27.395  0.00  0.00    +0.210 HD
ENDBRANCH  30  33
BRANCH  31  35
ATOM     35  O   UNL     1       5.097   4.361  29.436  0.00  0.00    -0.386 OA
ATOM     36  H   UNL     1       4.331   4.963  29.347  0.00  0.00    +0.210 HD
ENDBRANCH  31  35
BRANCH  32  37
ATOM     37  O   UNL     1       7.499   4.517  27.846  0.00  0.00    -0.383 OA
ATOM     38  H   UNL     1       8.260   4.423  28.451  0.00  0.00    +0.210 HD
ENDBRANCH  32  37
BRANCH  29  39
ATOM     39  C   UNL     1       4.029   2.359  25.629  0.00  0.00    +0.190 C 
BRANCH  39  40
ATOM     40  O   UNL     1       2.630   2.144  25.468  0.00  0.00    -0.392 OA
ATOM     41  H   UNL     1       2.488   1.184  25.377  0.00  0.00    +0.210 HD
ENDBRANCH  39  40
ENDBRANCH  29  39
ENDBRANCH  26  27
ENDBRANCH  11  26
TORSDOF 12
ENDMDL
MODEL 9
REMARK VINA RESULT:      -5.9      3.066      6.886
REMARK  Name = 
REMARK  13 active torsions:
REMARK  status: ('A' for Active; 'I' for Inactive)
REMARK    1  A    between atoms: C_1  and  O_2
REMARK    2  A    between atoms: O_2  and  C_3
REMARK    3  A    between atoms: C_4  and  O_37
REMARK    4  A    between atoms: C_6  and  C_9
REMARK    5  A    between atoms: C_10  and  O_22
REMARK    6  A    between atoms: C_14  and  O_21
REMARK    7  A    between atoms: C_16  and  O_20
REMARK    8  A    between atoms: O_22  and  C_23
REMARK    9  A    between atoms: C_25  and  O_36
REMARK   10  A    between atoms: C_26  and  O_35
REMARK   11  A    between atoms: C_27  and  O_34
REMARK   12  A    between atoms: C_29  and  C_32
REMARK   13  A    between atoms: C_32  and  O_33
REMARK                            x       y       z     vdW  Elec       q    Type
REMARK                         _______ _______ _______ _____ _____    ______ ____
ROOT
ATOM      1  C   UNL     1       5.080  -1.521  25.905  0.00  0.00    +0.181 A 
ATOM      2  O   UNL     1       3.959  -1.402  26.724  0.00  0.00    -0.451 OA
ATOM      3  C   UNL     1       3.626  -0.189  27.247  0.00  0.00    +0.147 A 
ATOM      4  C   UNL     1       4.482   0.897  27.197  0.00  0.00    +0.109 A 
ATOM      5  C   UNL     1       4.113   2.095  27.818  0.00  0.00    +0.135 A 
ATOM      6  C   UNL     1       2.871   2.208  28.445  0.00  0.00    +0.091 A 
ATOM      7  C   UNL     1       2.006   1.122  28.448  0.00  0.00    +0.124 A 
ATOM      8  C   UNL     1       5.729   0.757  26.437  0.00  0.00    +0.238 A 
ATOM      9  O   UNL     1       6.528   1.692  26.403  0.00  0.00    -0.283 OA
ATOM     10  C   UNL     1       2.377  -0.084  27.864  0.00  0.00    +0.092 A 
ATOM     11  C   UNL     1       5.944  -0.504  25.660  0.00  0.00    +0.214 A 
ENDROOT
BRANCH   1  15
ATOM     12  C   UNL     1       5.686  -5.226  23.900  0.00  0.00    +0.161 A 
ATOM     13  C   UNL     1       6.526  -4.840  24.938  0.00  0.00    +0.050 A 
ATOM     14  C   UNL     1       6.237  -3.688  25.678  0.00  0.00    +0.015 A 
ATOM     15  C   UNL     1       5.103  -2.912  25.396  0.00  0.00    +0.025 A 
ATOM     16  C   UNL     1       4.206  -3.359  24.424  0.00  0.00    +0.060 A 
ATOM     17  C   UNL     1       4.493  -4.522  23.699  0.00  0.00    +0.159 A 
BRANCH  12  19
ATOM     18  C   UNL     1       6.995  -5.992  22.108  0.00  0.00    +0.277 C 
ATOM     19  O   UNL     1       5.948  -6.273  23.051  0.00  0.00    -0.491 OA
ENDBRANCH  12  19
BRANCH  17  20
ATOM     20  O   UNL     1       3.609  -4.931  22.737  0.00  0.00    -0.503 OA
ATOM     21  H   UNL     1       2.722  -4.775  23.117  0.00  0.00    +0.292 HD
ENDBRANCH  17  20
ENDBRANCH   1  15
BRANCH   5  22
ATOM     22  O   UNL     1       4.918   3.200  27.840  0.00  0.00    -0.506 OA
ATOM     23  H   UNL     1       5.661   3.048  27.211  0.00  0.00    +0.292 HD
ENDBRANCH   5  22
BRANCH   7  24
ATOM     24  O   UNL     1       0.770   1.196  29.016  0.00  0.00    -0.507 OA
ATOM     25  H   UNL     1       0.858   1.548  29.919  0.00  0.00    +0.292 HD
ENDBRANCH   7  24
BRANCH  11  26
ATOM     26  O   UNL     1       7.017  -0.452  24.784  0.00  0.00    -0.453 OA
BRANCH  26  27
ATOM     27  C   UNL     1       6.707  -0.451  23.393  0.00  0.00    +0.340 C 
ATOM     28  O   UNL     1       6.936  -1.736  22.814  0.00  0.00    -0.331 OA
ATOM     29  C   UNL     1       8.314  -2.117  22.654  0.00  0.00    +0.179 C 
ATOM     30  C   UNL     1       9.028  -1.114  21.741  0.00  0.00    +0.177 C 
ATOM     31  C   UNL     1       8.933   0.293  22.326  0.00  0.00    +0.180 C 
ATOM     32  C   UNL     1       7.479   0.660  22.622  0.00  0.00    +0.214 C 
BRANCH  30  33
ATOM     33  O   UNL     1      10.400  -1.462  21.547  0.00  0.00    -0.386 OA
ATOM     34  H   UNL     1      10.896  -0.932  22.205  0.00  0.00    +0.210 HD
ENDBRANCH  30  33
BRANCH  31  35
ATOM     35  O   UNL     1       9.495   1.212  21.369  0.00  0.00    -0.386 OA
ATOM     36  H   UNL     1       8.748   1.542  20.831  0.00  0.00    +0.210 HD
ENDBRANCH  31  35
BRANCH  32  37
ATOM     37  O   UNL     1       7.448   1.944  23.265  0.00  0.00    -0.383 OA
ATOM     38  H   UNL     1       8.047   1.907  24.036  0.00  0.00    +0.210 HD
ENDBRANCH  32  37
BRANCH  29  39
ATOM     39  C   UNL     1       9.083  -2.350  23.974  0.00  0.00    +0.190 C 
BRANCH  39  40
ATOM     40  O   UNL     1      10.318  -3.029  23.766  0.00  0.00    -0.392 OA
ATOM     41  H   UNL     1      10.288  -3.429  22.878  0.00  0.00    +0.210 HD
ENDBRANCH  39  40
ENDBRANCH  29  39
ENDBRANCH  26  27
ENDBRANCH  11  26
TORSDOF 12
ENDMDL
