MODEL 1
REMARK VINA RESULT:      -6.7      0.000      0.000
REMARK  Name = 
REMARK  10 active torsions:
REMARK  status: ('A' for Active; 'I' for Inactive)
REMARK    1  A    between atoms: C_1  and  C_2
REMARK    2  A    between atoms: C_2  and  C_27
REMARK    3  A    between atoms: C_3  and  C_4
REMARK    4  A    between atoms: C_4  and  C_5
REMARK    5  A    between atoms: C_8  and  O_12
REMARK    6  A    between atoms: C_10  and  O_11
REMARK    7  A    between atoms: C_15  and  O_26
REMARK    8  A    between atoms: C_16  and  C_18
REMARK    9  A    between atoms: C_20  and  O_25
REMARK   10  A    between atoms: C_21  and  O_24
REMARK                            x       y       z     vdW  Elec       q    Type
REMARK                         _______ _______ _______ _____ _____    ______ ____
ROOT
ATOM      1  C   UNL     1       5.675  -2.210  26.975  0.00  0.00    +0.041 A 
ATOM      2  C   UNL     1       5.066  -3.182  27.792  0.00  0.00    +0.127 A 
ATOM      3  C   UNL     1       5.589  -4.465  27.915  0.00  0.00    +0.092 A 
ATOM      4  C   UNL     1       6.738  -4.799  27.211  0.00  0.00    +0.135 A 
ATOM      5  C   UNL     1       7.350  -3.859  26.374  0.00  0.00    +0.109 A 
ATOM      6  C   UNL     1       8.567  -4.204  25.637  0.00  0.00    +0.238 A 
ATOM      7  C   UNL     1       9.152  -3.173  24.763  0.00  0.00    +0.208 A 
ATOM      8  C   UNL     1       8.545  -1.976  24.695  0.00  0.00    +0.181 A 
ATOM      9  O   UNL     1       7.405  -1.628  25.409  0.00  0.00    -0.450 OA
ATOM     10  O   UNL     1       9.094  -5.310  25.730  0.00  0.00    -0.283 OA
ATOM     11  C   UNL     1       6.823  -2.570  26.239  0.00  0.00    +0.150 A 
ENDROOT
BRANCH   8  12
ATOM     12  C   UNL     1       9.087  -0.922  23.816  0.00  0.00    +0.025 A 
ATOM     13  C   UNL     1       8.722  -0.870  22.459  0.00  0.00    +0.015 A 
ATOM     14  C   UNL     1       9.129   0.196  21.650  0.00  0.00    +0.050 A 
ATOM     15  C   UNL     1       9.895   1.211  22.199  0.00  0.00    +0.158 A 
ATOM     16  C   UNL     1      10.271   1.172  23.540  0.00  0.00    +0.159 A 
ATOM     17  C   UNL     1       9.879   0.108  24.352  0.00  0.00    +0.060 A 
BRANCH  15  18
ATOM     18  O   UNL     1      10.261   2.271  21.419  0.00  0.00    -0.503 OA
ATOM     19  H   UNL     1       9.438   2.542  20.967  0.00  0.00    +0.292 HD
ENDBRANCH  15  18
BRANCH  16  20
ATOM     20  O   UNL     1      11.005   2.221  24.021  0.00  0.00    -0.503 OA
ATOM     21  H   UNL     1      10.938   2.218  24.990  0.00  0.00    +0.292 HD
ENDBRANCH  16  20
ENDBRANCH   8  12
BRANCH   2  22
ATOM     22  O   UNL     1       3.937  -2.849  28.491  0.00  0.00    -0.506 OA
ATOM     23  H   UNL     1       4.185  -2.581  29.392  0.00  0.00    +0.292 HD
ENDBRANCH   2  22
BRANCH   4  24
ATOM     24  O   UNL     1       7.214  -6.070  27.392  0.00  0.00    -0.506 OA
ATOM     25  H   UNL     1       7.454  -6.442  26.514  0.00  0.00    +0.292 HD
ENDBRANCH   4  24
BRANCH   7  26
ATOM     26  O   UNL     1      10.297  -3.506  24.064  0.00  0.00    -0.501 OA
ATOM     27  H   UNL     1      10.802  -4.098  24.660  0.00  0.00    +0.292 HD
ENDBRANCH   7  26
BRANCH   1  28
ATOM     28  C   UNL     1       5.104  -0.811  26.920  0.00  0.00    +0.069 C 
BRANCH  28  32
ATOM     29  C   UNL     1       7.118   1.544  26.494  0.00  0.00    +0.038 C 
ATOM     30  C   UNL     1       6.542   1.108  27.812  0.00  0.00    -0.079 C 
ATOM     31  C   UNL     1       7.033   1.879  29.009  0.00  0.00    +0.038 C 
ATOM     32  C   UNL     1       5.662   0.100  27.978  0.00  0.00    -0.023 C 
ENDBRANCH  28  32
ENDBRANCH   1  28
TORSDOF 8
ENDMDL
MODEL 2
REMARK VINA RESULT:      -6.5      1.848      6.193
REMARK  Name = 
REMARK  10 active torsions:
REMARK  status: ('A' for Active; 'I' for Inactive)
REMARK    1  A    between atoms: C_1  and  C_2
REMARK    2  A    between atoms: C_2  and  C_27
REMARK    3  A    between atoms: C_3  and  C_4
REMARK    4  A    between atoms: C_4  and  C_5
REMARK    5  A    between atoms: C_8  and  O_12
REMARK    6  A    between atoms: C_10  and  O_11
REMARK    7  A    between atoms: C_15  and  O_26
REMARK    8  A    between atoms: C_16  and  C_18
REMARK    9  A    between atoms: C_20  and  O_25
REMARK   10  A    between atoms: C_21  and  O_24
REMARK                            x       y       z     vdW  Elec       q    Type
REMARK                         _______ _______ _______ _____ _____    ______ ____
ROOT
ATOM      1  C   UNL     1       8.054   1.951  25.239  0.00  0.00    +0.041 A 
ATOM      2  C   UNL     1       8.589   3.142  24.711  0.00  0.00    +0.127 A 
ATOM      3  C   UNL     1       9.198   3.179  23.462  0.00  0.00    +0.092 A 
ATOM      4  C   UNL     1       9.285   2.012  22.715  0.00  0.00    +0.135 A 
ATOM      5  C   UNL     1       8.781   0.810  23.225  0.00  0.00    +0.109 A 
ATOM      6  C   UNL     1       8.863  -0.421  22.437  0.00  0.00    +0.238 A 
ATOM      7  C   UNL     1       8.326  -1.655  23.039  0.00  0.00    +0.208 A 
ATOM      8  C   UNL     1       7.788  -1.582  24.268  0.00  0.00    +0.181 A 
ATOM      9  O   UNL     1       7.682  -0.415  25.015  0.00  0.00    -0.450 OA
ATOM     10  O   UNL     1       9.359  -0.446  21.313  0.00  0.00    -0.283 OA
ATOM     11  C   UNL     1       8.177   0.764  24.485  0.00  0.00    +0.150 A 
ENDROOT
BRANCH   8  12
ATOM     12  C   UNL     1       7.258  -2.797  24.915  0.00  0.00    +0.025 A 
ATOM     13  C   UNL     1       5.916  -3.174  24.728  0.00  0.00    +0.015 A 
ATOM     14  C   UNL     1       5.437  -4.388  25.233  0.00  0.00    +0.050 A 
ATOM     15  C   UNL     1       6.302  -5.226  25.919  0.00  0.00    +0.158 A 
ATOM     16  C   UNL     1       7.632  -4.864  26.119  0.00  0.00    +0.159 A 
ATOM     17  C   UNL     1       8.116  -3.651  25.628  0.00  0.00    +0.060 A 
BRANCH  15  18
ATOM     18  O   UNL     1       5.845  -6.427  26.380  0.00  0.00    -0.503 OA
ATOM     19  H   UNL     1       4.874  -6.323  26.425  0.00  0.00    +0.292 HD
ENDBRANCH  15  18
BRANCH  16  20
ATOM     20  O   UNL     1       8.435  -5.752  26.782  0.00  0.00    -0.503 OA
ATOM     21  H   UNL     1       8.058  -5.898  27.666  0.00  0.00    +0.292 HD
ENDBRANCH  16  20
ENDBRANCH   8  12
BRANCH   2  22
ATOM     22  O   UNL     1       8.497   4.293  25.446  0.00  0.00    -0.506 OA
ATOM     23  H   UNL     1       9.121   4.950  25.093  0.00  0.00    +0.292 HD
ENDBRANCH   2  22
BRANCH   4  24
ATOM     24  O   UNL     1       9.875   2.120  21.485  0.00  0.00    -0.506 OA
ATOM     25  H   UNL     1      10.325   1.271  21.278  0.00  0.00    +0.292 HD
ENDBRANCH   4  24
BRANCH   7  26
ATOM     26  O   UNL     1       8.412  -2.816  22.293  0.00  0.00    -0.501 OA
ATOM     27  H   UNL     1       8.549  -2.521  21.369  0.00  0.00    +0.292 HD
ENDBRANCH   7  26
BRANCH   1  28
ATOM     28  C   UNL     1       7.348   1.972  26.576  0.00  0.00    +0.069 C 
BRANCH  28  32
ATOM     29  C   UNL     1       4.947   0.014  27.012  0.00  0.00    +0.038 C 
ATOM     30  C   UNL     1       4.841   1.467  26.640  0.00  0.00    -0.079 C 
ATOM     31  C   UNL     1       3.437   1.972  26.435  0.00  0.00    +0.038 C 
ATOM     32  C   UNL     1       5.886   2.302  26.470  0.00  0.00    -0.023 C 
ENDBRANCH  28  32
ENDBRANCH   1  28
TORSDOF 8
ENDMDL
MODEL 3
REMARK VINA RESULT:      -6.2      1.282      1.420
REMARK  Name = 
REMARK  10 active torsions:
REMARK  status: ('A' for Active; 'I' for Inactive)
REMARK    1  A    between atoms: C_1  and  C_2
REMARK    2  A    between atoms: C_2  and  C_27
REMARK    3  A    between atoms: C_3  and  C_4
REMARK    4  A    between atoms: C_4  and  C_5
REMARK    5  A    between atoms: C_8  and  O_12
REMARK    6  A    between atoms: C_10  and  O_11
REMARK    7  A    between atoms: C_15  and  O_26
REMARK    8  A    between atoms: C_16  and  C_18
REMARK    9  A    between atoms: C_20  and  O_25
REMARK   10  A    between atoms: C_21  and  O_24
REMARK                            x       y       z     vdW  Elec       q    Type
REMARK                         _______ _______ _______ _____ _____    ______ ____
ROOT
ATOM      1  C   UNL     1       6.057  -2.862  26.827  0.00  0.00    +0.041 A 
ATOM      2  C   UNL     1       5.880  -4.107  27.459  0.00  0.00    +0.127 A 
ATOM      3  C   UNL     1       6.764  -5.162  27.261  0.00  0.00    +0.092 A 
ATOM      4  C   UNL     1       7.850  -4.985  26.414  0.00  0.00    +0.135 A 
ATOM      5  C   UNL     1       8.038  -3.765  25.755  0.00  0.00    +0.109 A 
ATOM      6  C   UNL     1       9.187  -3.571  24.868  0.00  0.00    +0.238 A 
ATOM      7  C   UNL     1       9.318  -2.268  24.194  0.00  0.00    +0.208 A 
ATOM      8  C   UNL     1       8.386  -1.330  24.433  0.00  0.00    +0.181 A 
ATOM      9  O   UNL     1       7.306  -1.493  25.293  0.00  0.00    -0.450 OA
ATOM     10  O   UNL     1      10.021  -4.454  24.678  0.00  0.00    -0.283 OA
ATOM     11  C   UNL     1       7.146  -2.704  25.943  0.00  0.00    +0.150 A 
ENDROOT
BRANCH   8  12
ATOM     12  C   UNL     1       8.469  -0.018  23.764  0.00  0.00    +0.025 A 
ATOM     13  C   UNL     1       7.902   0.167  22.489  0.00  0.00    +0.015 A 
ATOM     14  C   UNL     1       7.865   1.436  21.902  0.00  0.00    +0.050 A 
ATOM     15  C   UNL     1       8.387   2.519  22.590  0.00  0.00    +0.158 A 
ATOM     16  C   UNL     1       8.957   2.352  23.850  0.00  0.00    +0.159 A 
ATOM     17  C   UNL     1       9.009   1.089  24.440  0.00  0.00    +0.060 A 
BRANCH  15  18
ATOM     18  O   UNL     1       8.317   3.764  22.033  0.00  0.00    -0.503 OA
ATOM     19  H   UNL     1       7.448   3.786  21.584  0.00  0.00    +0.292 HD
ENDBRANCH  15  18
BRANCH  16  20
ATOM     20  O   UNL     1       9.429   3.469  24.483  0.00  0.00    -0.503 OA
ATOM     21  H   UNL     1       8.809   4.198  24.313  0.00  0.00    +0.292 HD
ENDBRANCH  16  20
ENDBRANCH   8  12
BRANCH   2  22
ATOM     22  O   UNL     1       4.812  -4.278  28.300  0.00  0.00    -0.506 OA
ATOM     23  H   UNL     1       4.835  -5.177  28.669  0.00  0.00    +0.292 HD
ENDBRANCH   2  22
BRANCH   4  24
ATOM     24  O   UNL     1       8.696  -6.053  26.279  0.00  0.00    -0.506 OA
ATOM     25  H   UNL     1       8.602  -6.413  25.369  0.00  0.00    +0.292 HD
ENDBRANCH   4  24
BRANCH   7  26
ATOM     26  O   UNL     1      10.401  -2.092  23.352  0.00  0.00    -0.501 OA
ATOM     27  H   UNL     1      10.254  -1.227  22.917  0.00  0.00    +0.292 HD
ENDBRANCH   7  26
BRANCH   1  28
ATOM     28  C   UNL     1       5.103  -1.727  27.119  0.00  0.00    +0.069 C 
BRANCH  28  32
ATOM     29  C   UNL     1       5.354   1.202  26.049  0.00  0.00    +0.038 C 
ATOM     30  C   UNL     1       5.886   0.696  27.361  0.00  0.00    -0.079 C 
ATOM     31  C   UNL     1       6.629   1.717  28.184  0.00  0.00    +0.038 C 
ATOM     32  C   UNL     1       5.757  -0.567  27.815  0.00  0.00    -0.023 C 
ENDBRANCH  28  32
ENDBRANCH   1  28
TORSDOF 8
ENDMDL
MODEL 4
REMARK VINA RESULT:      -6.0      1.826      2.709
REMARK  Name = 
REMARK  10 active torsions:
REMARK  status: ('A' for Active; 'I' for Inactive)
REMARK    1  A    between atoms: C_1  and  C_2
REMARK    2  A    between atoms: C_2  and  C_27
REMARK    3  A    between atoms: C_3  and  C_4
REMARK    4  A    between atoms: C_4  and  C_5
REMARK    5  A    between atoms: C_8  and  O_12
REMARK    6  A    between atoms: C_10  and  O_11
REMARK    7  A    between atoms: C_15  and  O_26
REMARK    8  A    between atoms: C_16  and  C_18
REMARK    9  A    between atoms: C_20  and  O_25
REMARK   10  A    between atoms: C_21  and  O_24
REMARK                            x       y       z     vdW  Elec       q    Type
REMARK                         _______ _______ _______ _____ _____    ______ ____
ROOT
ATOM      1  C   UNL     1       6.151  -2.970  26.857  0.00  0.00    +0.041 A 
ATOM      2  C   UNL     1       6.069  -4.229  27.483  0.00  0.00    +0.127 A 
ATOM      3  C   UNL     1       6.994  -5.236  27.225  0.00  0.00    +0.092 A 
ATOM      4  C   UNL     1       8.024  -4.995  26.324  0.00  0.00    +0.135 A 
ATOM      5  C   UNL     1       8.115  -3.761  25.672  0.00  0.00    +0.109 A 
ATOM      6  C   UNL     1       9.204  -3.500  24.729  0.00  0.00    +0.238 A 
ATOM      7  C   UNL     1       9.234  -2.185  24.066  0.00  0.00    +0.208 A 
ATOM      8  C   UNL     1       8.270  -1.298  24.365  0.00  0.00    +0.181 A 
ATOM      9  O   UNL     1       7.247  -1.524  25.278  0.00  0.00    -0.450 OA
ATOM     10  O   UNL     1      10.070  -4.337  24.484  0.00  0.00    -0.283 OA
ATOM     11  C   UNL     1       7.182  -2.748  25.920  0.00  0.00    +0.150 A 
ENDROOT
BRANCH   8  12
ATOM     12  C   UNL     1       8.252   0.023  23.710  0.00  0.00    +0.025 A 
ATOM     13  C   UNL     1       7.279   0.321  22.738  0.00  0.00    +0.015 A 
ATOM     14  C   UNL     1       7.175   1.609  22.203  0.00  0.00    +0.050 A 
ATOM     15  C   UNL     1       8.038   2.600  22.643  0.00  0.00    +0.158 A 
ATOM     16  C   UNL     1       9.011   2.320  23.601  0.00  0.00    +0.159 A 
ATOM     17  C   UNL     1       9.130   1.035  24.132  0.00  0.00    +0.060 A 
BRANCH  15  18
ATOM     18  O   UNL     1       7.913   3.866  22.149  0.00  0.00    -0.503 OA
ATOM     19  H   UNL     1       6.949   4.031  22.130  0.00  0.00    +0.292 HD
ENDBRANCH  15  18
BRANCH  16  20
ATOM     20  O   UNL     1       9.811   3.352  24.008  0.00  0.00    -0.503 OA
ATOM     21  H   UNL     1       9.292   4.172  23.965  0.00  0.00    +0.292 HD
ENDBRANCH  16  20
ENDBRANCH   8  12
BRANCH   2  22
ATOM     22  O   UNL     1       5.058  -4.463  28.375  0.00  0.00    -0.506 OA
ATOM     23  H   UNL     1       5.363  -4.239  29.271  0.00  0.00    +0.292 HD
ENDBRANCH   2  22
BRANCH   4  24
ATOM     24  O   UNL     1       8.913  -6.018  26.132  0.00  0.00    -0.506 OA
ATOM     25  H   UNL     1       8.814  -6.349  25.211  0.00  0.00    +0.292 HD
ENDBRANCH   4  24
BRANCH   7  26
ATOM     26  O   UNL     1      10.261  -1.946  23.171  0.00  0.00    -0.501 OA
ATOM     27  H   UNL     1      11.083  -1.982  23.703  0.00  0.00    +0.292 HD
ENDBRANCH   7  26
BRANCH   1  28
ATOM     28  C   UNL     1       5.158  -1.888  27.215  0.00  0.00    +0.069 C 
BRANCH  28  32
ATOM     29  C   UNL     1       2.375  -2.183  28.612  0.00  0.00    +0.038 C 
ATOM     30  C   UNL     1       2.621  -2.204  27.129  0.00  0.00    -0.079 C 
ATOM     31  C   UNL     1       1.394  -2.424  26.282  0.00  0.00    +0.038 C 
ATOM     32  C   UNL     1       3.825  -2.060  26.541  0.00  0.00    -0.023 C 
ENDBRANCH  28  32
ENDBRANCH   1  28
TORSDOF 8
ENDMDL
MODEL 5
REMARK VINA RESULT:      -6.0      2.760      6.100
REMARK  Name = 
REMARK  10 active torsions:
REMARK  status: ('A' for Active; 'I' for Inactive)
REMARK    1  A    between atoms: C_1  and  C_2
REMARK    2  A    between atoms: C_2  and  C_27
REMARK    3  A    between atoms: C_3  and  C_4
REMARK    4  A    between atoms: C_4  and  C_5
REMARK    5  A    between atoms: C_8  and  O_12
REMARK    6  A    between atoms: C_10  and  O_11
REMARK    7  A    between atoms: C_15  and  O_26
REMARK    8  A    between atoms: C_16  and  C_18
REMARK    9  A    between atoms: C_20  and  O_25
REMARK   10  A    between atoms: C_21  and  O_24
REMARK                            x       y       z     vdW  Elec       q    Type
REMARK                         _______ _______ _______ _____ _____    ______ ____
ROOT
ATOM      1  C   UNL     1       7.591   2.705  25.570  0.00  0.00    +0.041 A 
ATOM      2  C   UNL     1       7.943   4.062  25.701  0.00  0.00    +0.127 A 
ATOM      3  C   UNL     1       8.868   4.663  24.854  0.00  0.00    +0.092 A 
ATOM      4  C   UNL     1       9.464   3.905  23.855  0.00  0.00    +0.135 A 
ATOM      5  C   UNL     1       9.149   2.549  23.717  0.00  0.00    +0.109 A 
ATOM      6  C   UNL     1       9.768   1.748  22.659  0.00  0.00    +0.238 A 
ATOM      7  C   UNL     1       9.404   0.323  22.578  0.00  0.00    +0.208 A 
ATOM      8  C   UNL     1       8.523  -0.161  23.470  0.00  0.00    +0.181 A 
ATOM      9  O   UNL     1       7.909   0.594  24.462  0.00  0.00    -0.450 OA
ATOM     10  O   UNL     1      10.568   2.229  21.859  0.00  0.00    -0.283 OA
ATOM     11  C   UNL     1       8.227   1.937  24.572  0.00  0.00    +0.150 A 
ENDROOT
BRANCH   8  12
ATOM     12  C   UNL     1       8.146  -1.587  23.437  0.00  0.00    +0.025 A 
ATOM     13  C   UNL     1       7.046  -2.014  22.670  0.00  0.00    +0.015 A 
ATOM     14  C   UNL     1       6.757  -3.376  22.532  0.00  0.00    +0.050 A 
ATOM     15  C   UNL     1       7.570  -4.309  23.156  0.00  0.00    +0.158 A 
ATOM     16  C   UNL     1       8.659  -3.902  23.924  0.00  0.00    +0.159 A 
ATOM     17  C   UNL     1       8.948  -2.546  24.076  0.00  0.00    +0.060 A 
BRANCH  15  18
ATOM     18  O   UNL     1       7.311  -5.639  22.991  0.00  0.00    -0.503 OA
ATOM     19  H   UNL     1       7.976  -5.943  22.341  0.00  0.00    +0.292 HD
ENDBRANCH  15  18
BRANCH  16  20
ATOM     20  O   UNL     1       9.433  -4.879  24.488  0.00  0.00    -0.503 OA
ATOM     21  H   UNL     1       9.575  -4.651  25.422  0.00  0.00    +0.292 HD
ENDBRANCH  16  20
ENDBRANCH   8  12
BRANCH   2  22
ATOM     22  O   UNL     1       7.349   4.811  26.682  0.00  0.00    -0.506 OA
ATOM     23  H   UNL     1       8.037   5.203  27.246  0.00  0.00    +0.292 HD
ENDBRANCH   2  22
BRANCH   4  24
ATOM     24  O   UNL     1      10.348   4.560  23.041  0.00  0.00    -0.506 OA
ATOM     25  H   UNL     1      10.211   4.252  22.117  0.00  0.00    +0.292 HD
ENDBRANCH   4  24
BRANCH   7  26
ATOM     26  O   UNL     1       9.997  -0.430  21.582  0.00  0.00    -0.501 OA
ATOM     27  H   UNL     1       9.256  -0.858  21.104  0.00  0.00    +0.292 HD
ENDBRANCH   7  26
BRANCH   1  28
ATOM     28  C   UNL     1       6.536   2.112  26.477  0.00  0.00    +0.069 C 
BRANCH  28  32
ATOM     29  C   UNL     1       5.893   3.192  29.341  0.00  0.00    +0.038 C 
ATOM     30  C   UNL     1       6.835   2.066  29.017  0.00  0.00    -0.079 C 
ATOM     31  C   UNL     1       7.535   1.459  30.204  0.00  0.00    +0.038 C 
ATOM     32  C   UNL     1       7.091   1.602  27.777  0.00  0.00    -0.023 C 
ENDBRANCH  28  32
ENDBRANCH   1  28
TORSDOF 8
ENDMDL
MODEL 6
REMARK VINA RESULT:      -6.0      2.001      2.845
REMARK  Name = 
REMARK  10 active torsions:
REMARK  status: ('A' for Active; 'I' for Inactive)
REMARK    1  A    between atoms: C_1  and  C_2
REMARK    2  A    between atoms: C_2  and  C_27
REMARK    3  A    between atoms: C_3  and  C_4
REMARK    4  A    between atoms: C_4  and  C_5
REMARK    5  A    between atoms: C_8  and  O_12
REMARK    6  A    between atoms: C_10  and  O_11
REMARK    7  A    between atoms: C_15  and  O_26
REMARK    8  A    between atoms: C_16  and  C_18
REMARK    9  A    between atoms: C_20  and  O_25
REMARK   10  A    between atoms: C_21  and  O_24
REMARK                            x       y       z     vdW  Elec       q    Type
REMARK                         _______ _______ _______ _____ _____    ______ ____
ROOT
ATOM      1  C   UNL     1       6.071  -2.702  25.577  0.00  0.00    +0.041 A 
ATOM      2  C   UNL     1       6.040  -4.093  25.795  0.00  0.00    +0.127 A 
ATOM      3  C   UNL     1       7.108  -4.913  25.443  0.00  0.00    +0.092 A 
ATOM      4  C   UNL     1       8.233  -4.346  24.858  0.00  0.00    +0.135 A 
ATOM      5  C   UNL     1       8.281  -2.970  24.611  0.00  0.00    +0.109 A 
ATOM      6  C   UNL     1       9.469  -2.367  24.003  0.00  0.00    +0.238 A 
ATOM      7  C   UNL     1       9.449  -0.915  23.756  0.00  0.00    +0.208 A 
ATOM      8  C   UNL     1       8.350  -0.224  24.106  0.00  0.00    +0.181 A 
ATOM      9  O   UNL     1       7.227  -0.780  24.707  0.00  0.00    -0.450 OA
ATOM     10  O   UNL     1      10.456  -3.033  23.700  0.00  0.00    -0.283 OA
ATOM     11  C   UNL     1       7.206  -2.142  24.953  0.00  0.00    +0.150 A 
ENDROOT
BRANCH   8  12
ATOM     12  C   UNL     1       8.280   1.228  23.858  0.00  0.00    +0.025 A 
ATOM     13  C   UNL     1       9.160   2.105  24.519  0.00  0.00    +0.015 A 
ATOM     14  C   UNL     1       9.186   3.467  24.198  0.00  0.00    +0.050 A 
ATOM     15  C   UNL     1       8.338   3.949  23.214  0.00  0.00    +0.158 A 
ATOM     16  C   UNL     1       7.457   3.094  22.554  0.00  0.00    +0.159 A 
ATOM     17  C   UNL     1       7.416   1.738  22.875  0.00  0.00    +0.060 A 
BRANCH  15  18
ATOM     18  O   UNL     1       8.390   5.270  22.874  0.00  0.00    -0.503 OA
ATOM     19  H   UNL     1       9.321   5.529  23.024  0.00  0.00    +0.292 HD
ENDBRANCH  15  18
BRANCH  16  20
ATOM     20  O   UNL     1       6.668   3.634  21.575  0.00  0.00    -0.503 OA
ATOM     21  H   UNL     1       5.740   3.523  21.839  0.00  0.00    +0.292 HD
ENDBRANCH  16  20
ENDBRANCH   8  12
BRANCH   2  22
ATOM     22  O   UNL     1       4.933  -4.649  26.377  0.00  0.00    -0.506 OA
ATOM     23  H   UNL     1       5.007  -5.618  26.347  0.00  0.00    +0.292 HD
ENDBRANCH   2  22
BRANCH   4  24
ATOM     24  O   UNL     1       9.257  -5.202  24.557  0.00  0.00    -0.506 OA
ATOM     25  H   UNL     1       9.257  -5.934  25.214  0.00  0.00    +0.292 HD
ENDBRANCH   4  24
BRANCH   7  26
ATOM     26  O   UNL     1      10.570  -0.352  23.176  0.00  0.00    -0.501 OA
ATOM     27  H   UNL     1      10.646   0.541  23.570  0.00  0.00    +0.292 HD
ENDBRANCH   7  26
BRANCH   1  28
ATOM     28  C   UNL     1       4.912  -1.844  26.031  0.00  0.00    +0.069 C 
BRANCH  28  32
ATOM     29  C   UNL     1       5.116   1.246  26.472  0.00  0.00    +0.038 C 
ATOM     30  C   UNL     1       5.277   0.193  27.534  0.00  0.00    -0.079 C 
ATOM     31  C   UNL     1       5.598   0.718  28.909  0.00  0.00    +0.038 C 
ATOM     32  C   UNL     1       5.171  -1.135  27.330  0.00  0.00    -0.023 C 
ENDBRANCH  28  32
ENDBRANCH   1  28
TORSDOF 8
ENDMDL
MODEL 7
REMARK VINA RESULT:      -5.9      2.776      6.105
REMARK  Name = 
REMARK  10 active torsions:
REMARK  status: ('A' for Active; 'I' for Inactive)
REMARK    1  A    between atoms: C_1  and  C_2
REMARK    2  A    between atoms: C_2  and  C_27
REMARK    3  A    between atoms: C_3  and  C_4
REMARK    4  A    between atoms: C_4  and  C_5
REMARK    5  A    between atoms: C_8  and  O_12
REMARK    6  A    between atoms: C_10  and  O_11
REMARK    7  A    between atoms: C_15  and  O_26
REMARK    8  A    between atoms: C_16  and  C_18
REMARK    9  A    between atoms: C_20  and  O_25
REMARK   10  A    between atoms: C_21  and  O_24
REMARK                            x       y       z     vdW  Elec       q    Type
REMARK                         _______ _______ _______ _____ _____    ______ ____
ROOT
ATOM      1  C   UNL     1       7.546   2.248  25.544  0.00  0.00    +0.041 A 
ATOM      2  C   UNL     1       7.943   3.588  25.712  0.00  0.00    +0.127 A 
ATOM      3  C   UNL     1       8.862   4.192  24.860  0.00  0.00    +0.092 A 
ATOM      4  C   UNL     1       9.406   3.453  23.818  0.00  0.00    +0.135 A 
ATOM      5  C   UNL     1       9.047   2.112  23.642  0.00  0.00    +0.109 A 
ATOM      6  C   UNL     1       9.612   1.333  22.539  0.00  0.00    +0.238 A 
ATOM      7  C   UNL     1       9.202  -0.078  22.418  0.00  0.00    +0.208 A 
ATOM      8  C   UNL     1       8.332  -0.567  23.318  0.00  0.00    +0.181 A 
ATOM      9  O   UNL     1       7.769   0.170  24.353  0.00  0.00    -0.450 OA
ATOM     10  O   UNL     1      10.403   1.819  21.734  0.00  0.00    -0.283 OA
ATOM     11  C   UNL     1       8.131   1.497  24.501  0.00  0.00    +0.150 A 
ENDROOT
BRANCH   8  12
ATOM     12  C   UNL     1       7.911  -1.979  23.246  0.00  0.00    +0.025 A 
ATOM     13  C   UNL     1       6.846  -2.362  22.410  0.00  0.00    +0.015 A 
ATOM     14  C   UNL     1       6.521  -3.712  22.239  0.00  0.00    +0.050 A 
ATOM     15  C   UNL     1       7.264  -4.678  22.899  0.00  0.00    +0.158 A 
ATOM     16  C   UNL     1       8.318  -4.315  23.735  0.00  0.00    +0.159 A 
ATOM     17  C   UNL     1       8.642  -2.971  23.920  0.00  0.00    +0.060 A 
BRANCH  15  18
ATOM     18  O   UNL     1       6.972  -5.997  22.703  0.00  0.00    -0.503 OA
ATOM     19  H   UNL     1       7.729  -6.479  23.091  0.00  0.00    +0.292 HD
ENDBRANCH  15  18
BRANCH  16  20
ATOM     20  O   UNL     1       9.024  -5.323  24.333  0.00  0.00    -0.503 OA
ATOM     21  H   UNL     1       8.490  -5.674  25.065  0.00  0.00    +0.292 HD
ENDBRANCH  16  20
ENDBRANCH   8  12
BRANCH   2  22
ATOM     22  O   UNL     1       7.400   4.318  26.736  0.00  0.00    -0.506 OA
ATOM     23  H   UNL     1       8.039   4.370  27.466  0.00  0.00    +0.292 HD
ENDBRANCH   2  22
BRANCH   4  24
ATOM     24  O   UNL     1      10.287   4.111  23.002  0.00  0.00    -0.506 OA
ATOM     25  H   UNL     1      10.932   4.595  23.564  0.00  0.00    +0.292 HD
ENDBRANCH   4  24
BRANCH   7  26
ATOM     26  O   UNL     1       9.743  -0.811  21.380  0.00  0.00    -0.501 OA
ATOM     27  H   UNL     1      10.713  -0.697  21.459  0.00  0.00    +0.292 HD
ENDBRANCH   7  26
BRANCH   1  28
ATOM     28  C   UNL     1       6.500   1.653  26.459  0.00  0.00    +0.069 C 
BRANCH  28  32
ATOM     29  C   UNL     1       4.237   3.230  27.935  0.00  0.00    +0.038 C 
ATOM     30  C   UNL     1       4.105   2.538  26.606  0.00  0.00    -0.079 C 
ATOM     31  C   UNL     1       2.734   2.608  25.985  0.00  0.00    +0.038 C 
ATOM     32  C   UNL     1       5.094   1.875  25.976  0.00  0.00    -0.023 C 
ENDBRANCH  28  32
ENDBRANCH   1  28
TORSDOF 8
ENDMDL
MODEL 8
REMARK VINA RESULT:      -5.9      2.621      5.871
REMARK  Name = 
REMARK  10 active torsions:
REMARK  status: ('A' for Active; 'I' for Inactive)
REMARK    1  A    between atoms: C_1  and  C_2
REMARK    2  A    between atoms: C_2  and  C_27
REMARK    3  A    between atoms: C_3  and  C_4
REMARK    4  A    between atoms: C_4  and  C_5
REMARK    5  A    between atoms: C_8  and  O_12
REMARK    6  A    between atoms: C_10  and  O_11
REMARK    7  A    between atoms: C_15  and  O_26
REMARK    8  A    between atoms: C_16  and  C_18
REMARK    9  A    between atoms: C_20  and  O_25
REMARK   10  A    between atoms: C_21  and  O_24
REMARK                            x       y       z     vdW  Elec       q    Type
REMARK                         _______ _______ _______ _____ _____    ______ ____
ROOT
ATOM      1  C   UNL     1       6.773   1.476  24.738  0.00  0.00    +0.041 A 
ATOM      2  C   UNL     1       7.274   2.766  24.996  0.00  0.00    +0.127 A 
ATOM      3  C   UNL     1       8.611   3.087  24.788  0.00  0.00    +0.092 A 
ATOM      4  C   UNL     1       9.477   2.108  24.317  0.00  0.00    +0.135 A 
ATOM      5  C   UNL     1       9.010   0.812  24.074  0.00  0.00    +0.109 A 
ATOM      6  C   UNL     1       9.918  -0.220  23.569  0.00  0.00    +0.238 A 
ATOM      7  C   UNL     1       9.365  -1.568  23.347  0.00  0.00    +0.208 A 
ATOM      8  C   UNL     1       8.065  -1.775  23.614  0.00  0.00    +0.181 A 
ATOM      9  O   UNL     1       7.187  -0.797  24.068  0.00  0.00    -0.450 OA
ATOM     10  O   UNL     1      11.102   0.011  23.334  0.00  0.00    -0.283 OA
ATOM     11  C   UNL     1       7.668   0.481  24.291  0.00  0.00    +0.150 A 
ENDROOT
BRANCH   8  12
ATOM     12  C   UNL     1       7.476  -3.114  23.425  0.00  0.00    +0.025 A 
ATOM     13  C   UNL     1       7.249  -3.953  24.531  0.00  0.00    +0.015 A 
ATOM     14  C   UNL     1       6.577  -5.171  24.378  0.00  0.00    +0.050 A 
ATOM     15  C   UNL     1       6.128  -5.545  23.122  0.00  0.00    +0.158 A 
ATOM     16  C   UNL     1       6.350  -4.729  22.016  0.00  0.00    +0.159 A 
ATOM     17  C   UNL     1       7.028  -3.518  22.156  0.00  0.00    +0.060 A 
BRANCH  15  18
ATOM     18  O   UNL     1       5.439  -6.716  22.979  0.00  0.00    -0.503 OA
ATOM     19  H   UNL     1       5.266  -7.015  23.894  0.00  0.00    +0.292 HD
ENDBRANCH  15  18
BRANCH  16  20
ATOM     20  O   UNL     1       5.855  -5.149  20.812  0.00  0.00    -0.503 OA
ATOM     21  H   UNL     1       5.951  -4.422  20.174  0.00  0.00    +0.292 HD
ENDBRANCH  16  20
ENDBRANCH   8  12
BRANCH   2  22
ATOM     22  O   UNL     1       6.417   3.731  25.454  0.00  0.00    -0.506 OA
ATOM     23  H   UNL     1       6.612   3.915  26.388  0.00  0.00    +0.292 HD
ENDBRANCH   2  22
BRANCH   4  24
ATOM     24  O   UNL     1      10.774   2.494  24.111  0.00  0.00    -0.506 OA
ATOM     25  H   UNL     1      11.047   2.205  23.212  0.00  0.00    +0.292 HD
ENDBRANCH   4  24
BRANCH   7  26
ATOM     26  O   UNL     1      10.228  -2.540  22.877  0.00  0.00    -0.501 OA
ATOM     27  H   UNL     1      10.471  -3.073  23.663  0.00  0.00    +0.292 HD
ENDBRANCH   7  26
BRANCH   1  28
ATOM     28  C   UNL     1       5.299   1.191  24.923  0.00  0.00    +0.069 C 
BRANCH  28  32
ATOM     29  C   UNL     1       4.674  -1.686  25.981  0.00  0.00    +0.038 C 
ATOM     30  C   UNL     1       4.655  -0.425  26.799  0.00  0.00    -0.079 C 
ATOM     31  C   UNL     1       4.261  -0.607  28.242  0.00  0.00    +0.038 C 
ATOM     32  C   UNL     1       4.942   0.806  26.332  0.00  0.00    -0.023 C 
ENDBRANCH  28  32
ENDBRANCH   1  28
TORSDOF 8
ENDMDL
MODEL 9
REMARK VINA RESULT:      -5.8      2.442      4.738
REMARK  Name = 
REMARK  10 active torsions:
REMARK  status: ('A' for Active; 'I' for Inactive)
REMARK    1  A    between atoms: C_1  and  C_2
REMARK    2  A    between atoms: C_2  and  C_27
REMARK    3  A    between atoms: C_3  and  C_4
REMARK    4  A    between atoms: C_4  and  C_5
REMARK    5  A    between atoms: C_8  and  O_12
REMARK    6  A    between atoms: C_10  and  O_11
REMARK    7  A    between atoms: C_15  and  O_26
REMARK    8  A    between atoms: C_16  and  C_18
REMARK    9  A    between atoms: C_20  and  O_25
REMARK   10  A    between atoms: C_21  and  O_24
REMARK                            x       y       z     vdW  Elec       q    Type
REMARK                         _______ _______ _______ _____ _____    ______ ____
ROOT
ATOM      1  C   UNL     1       8.081  -3.001  24.068  0.00  0.00    +0.041 A 
ATOM      2  C   UNL     1       7.818  -4.361  24.323  0.00  0.00    +0.127 A 
ATOM      3  C   UNL     1       6.649  -4.774  24.954  0.00  0.00    +0.092 A 
ATOM      4  C   UNL     1       5.718  -3.821  25.346  0.00  0.00    +0.135 A 
ATOM      5  C   UNL     1       5.965  -2.462  25.126  0.00  0.00    +0.109 A 
ATOM      6  C   UNL     1       4.983  -1.455  25.530  0.00  0.00    +0.238 A 
ATOM      7  C   UNL     1       5.311  -0.040  25.281  0.00  0.00    +0.208 A 
ATOM      8  C   UNL     1       6.485   0.248  24.694  0.00  0.00    +0.181 A 
ATOM      9  O   UNL     1       7.414  -0.700  24.282  0.00  0.00    -0.450 OA
ATOM     10  O   UNL     1       3.917  -1.759  26.062  0.00  0.00    -0.283 OA
ATOM     11  C   UNL     1       7.143  -2.040  24.501  0.00  0.00    +0.150 A 
ENDROOT
BRANCH   8  12
ATOM     12  C   UNL     1       6.862   1.652  24.445  0.00  0.00    +0.025 A 
ATOM     13  C   UNL     1       7.732   2.321  25.324  0.00  0.00    +0.015 A 
ATOM     14  C   UNL     1       8.195   3.609  25.030  0.00  0.00    +0.050 A 
ATOM     15  C   UNL     1       7.791   4.223  23.855  0.00  0.00    +0.158 A 
ATOM     16  C   UNL     1       6.924   3.576  22.977  0.00  0.00    +0.159 A 
ATOM     17  C   UNL     1       6.449   2.297  23.267  0.00  0.00    +0.060 A 
BRANCH  15  18
ATOM     18  O   UNL     1       8.271   5.464  23.549  0.00  0.00    -0.503 OA
ATOM     19  H   UNL     1       9.174   5.303  23.209  0.00  0.00    +0.292 HD
ENDBRANCH  15  18
BRANCH  16  20
ATOM     20  O   UNL     1       6.589   4.232  21.824  0.00  0.00    -0.503 OA
ATOM     21  H   UNL     1       6.241   3.578  21.195  0.00  0.00    +0.292 HD
ENDBRANCH  16  20
ENDBRANCH   8  12
BRANCH   2  22
ATOM     22  O   UNL     1       8.733  -5.299  23.928  0.00  0.00    -0.506 OA
ATOM     23  H   UNL     1       9.128  -5.027  23.084  0.00  0.00    +0.292 HD
ENDBRANCH   2  22
BRANCH   4  24
ATOM     24  O   UNL     1       4.579  -4.293  25.941  0.00  0.00    -0.506 OA
ATOM     25  H   UNL     1       4.582  -4.018  26.885  0.00  0.00    +0.292 HD
ENDBRANCH   4  24
BRANCH   7  26
ATOM     26  O   UNL     1       4.383   0.907  25.672  0.00  0.00    -0.501 OA
ATOM     27  H   UNL     1       4.732   1.763  25.346  0.00  0.00    +0.292 HD
ENDBRANCH   7  26
BRANCH   1  28
ATOM     28  C   UNL     1       9.338  -2.605  23.326  0.00  0.00    +0.069 C 
BRANCH  28  32
ATOM     29  C   UNL     1       9.875   0.213  22.081  0.00  0.00    +0.038 C 
ATOM     30  C   UNL     1      10.323  -0.247  23.440  0.00  0.00    -0.079 C 
ATOM     31  C   UNL     1      11.128   0.758  24.221  0.00  0.00    +0.038 C 
ATOM     32  C   UNL     1      10.070  -1.461  23.969  0.00  0.00    -0.023 C 
ENDBRANCH  28  32
ENDBRANCH   1  28
TORSDOF 8
ENDMDL
