MODEL 1
REMARK VINA RESULT:      -7.7      0.000      0.000
REMARK  Name = 
REMARK  10 active torsions:
REMARK  status: ('A' for Active; 'I' for Inactive)
REMARK    1  A    between atoms: C_2  and  O_34
REMARK    2  A    between atoms: C_4  and  O_33
REMARK    3  A    between atoms: C_6  and  O_32
REMARK    4  A    between atoms: C_8  and  O_10
REMARK    5  A    between atoms: O_10  and  C_11
REMARK    6  A    between atoms: C_12  and  C_24
REMARK    7  A    between atoms: C_16  and  O_23
REMARK    8  A    between atoms: C_18  and  O_22
REMARK    9  A    between atoms: C_26  and  O_31
REMARK   10  A    between atoms: C_27  and  O_30
REMARK                            x       y       z     vdW  Elec       q    Type
REMARK                         _______ _______ _______ _____ _____    ______ ____
ROOT
ATOM      1  C   UNL     1       8.698  -1.991  23.316  0.00  0.00    +0.214 A 
ATOM      2  C   UNL     1       9.149  -0.771  22.577  0.00  0.00    +0.238 A 
ATOM      3  O   UNL     1       9.775  -0.851  21.526  0.00  0.00    -0.283 OA
ATOM      4  C   UNL     1       8.895   0.526  23.215  0.00  0.00    +0.109 A 
ATOM      5  C   UNL     1       8.606   0.524  24.578  0.00  0.00    +0.147 A 
ATOM      6  C   UNL     1       8.444   1.734  25.260  0.00  0.00    +0.092 A 
ATOM      7  C   UNL     1       8.574   2.934  24.563  0.00  0.00    +0.124 A 
ATOM      8  C   UNL     1       8.844   2.949  23.199  0.00  0.00    +0.091 A 
ATOM      9  O   UNL     1       8.493  -0.633  25.311  0.00  0.00    -0.451 OA
ATOM     10  C   UNL     1       8.996   1.742  22.522  0.00  0.00    +0.135 A 
ATOM     11  C   UNL     1       8.473  -1.859  24.643  0.00  0.00    +0.181 A 
ENDROOT
BRANCH  11  12
ATOM     12  C   UNL     1       8.196  -3.015  25.546  0.00  0.00    +0.025 A 
ATOM     13  C   UNL     1       9.122  -4.070  25.667  0.00  0.00    +0.015 A 
ATOM     14  C   UNL     1       8.872  -5.167  26.503  0.00  0.00    +0.050 A 
ATOM     15  C   UNL     1       7.692  -5.217  27.226  0.00  0.00    +0.158 A 
ATOM     16  C   UNL     1       6.751  -4.203  27.106  0.00  0.00    +0.159 A 
ATOM     17  C   UNL     1       6.986  -3.120  26.263  0.00  0.00    +0.060 A 
BRANCH  15  18
ATOM     18  O   UNL     1       7.458  -6.271  28.062  0.00  0.00    -0.503 OA
ATOM     19  H   UNL     1       8.305  -6.762  28.078  0.00  0.00    +0.292 HD
ENDBRANCH  15  18
BRANCH  16  20
ATOM     20  O   UNL     1       5.601  -4.312  27.840  0.00  0.00    -0.503 OA
ATOM     21  H   UNL     1       5.522  -5.236  28.140  0.00  0.00    +0.292 HD
ENDBRANCH  16  20
ENDBRANCH  11  12
BRANCH   7  22
ATOM     22  O   UNL     1       8.440   4.142  25.181  0.00  0.00    -0.507 OA
ATOM     23  H   UNL     1       8.597   4.033  26.134  0.00  0.00    +0.292 HD
ENDBRANCH   7  22
BRANCH  10  24
ATOM     24  O   UNL     1       9.219   1.766  21.175  0.00  0.00    -0.506 OA
ATOM     25  H   UNL     1       9.164   0.867  20.812  0.00  0.00    +0.292 HD
ENDBRANCH  10  24
BRANCH   1  26
ATOM     26  O   UNL     1       8.606  -3.219  22.668  0.00  0.00    -0.453 OA
BRANCH  26  29
ATOM     27  C   UNL     1       4.972  -3.169  22.592  0.00  0.00    +0.198 C 
ATOM     28  O   UNL     1       6.299  -2.789  22.943  0.00  0.00    -0.337 OA
ATOM     29  C   UNL     1       7.275  -3.668  22.366  0.00  0.00    +0.339 C 
ATOM     30  C   UNL     1       7.101  -5.110  22.900  0.00  0.00    +0.214 C 
ATOM     31  C   UNL     1       5.652  -5.567  22.648  0.00  0.00    +0.180 C 
ATOM     32  C   UNL     1       4.643  -4.540  23.174  0.00  0.00    +0.171 C 
BRANCH  30  33
ATOM     33  O   UNL     1       8.038  -6.002  22.264  0.00  0.00    -0.383 OA
ATOM     34  H   UNL     1       7.885  -5.971  21.304  0.00  0.00    +0.210 HD
ENDBRANCH  30  33
BRANCH  31  35
ATOM     35  O   UNL     1       5.406  -6.838  23.264  0.00  0.00    -0.386 OA
ATOM     36  H   UNL     1       4.551  -7.142  22.899  0.00  0.00    +0.210 HD
ENDBRANCH  31  35
BRANCH  32  37
ATOM     37  O   UNL     1       3.327  -4.962  22.811  0.00  0.00    -0.387 OA
ATOM     38  H   UNL     1       2.695  -4.414  23.314  0.00  0.00    +0.210 HD
ENDBRANCH  32  37
ENDBRANCH  26  29
ENDBRANCH   1  26
TORSDOF 10
ENDMDL
MODEL 2
REMARK VINA RESULT:      -7.5      1.723      4.496
REMARK  Name = 
REMARK  10 active torsions:
REMARK  status: ('A' for Active; 'I' for Inactive)
REMARK    1  A    between atoms: C_2  and  O_34
REMARK    2  A    between atoms: C_4  and  O_33
REMARK    3  A    between atoms: C_6  and  O_32
REMARK    4  A    between atoms: C_8  and  O_10
REMARK    5  A    between atoms: O_10  and  C_11
REMARK    6  A    between atoms: C_12  and  C_24
REMARK    7  A    between atoms: C_16  and  O_23
REMARK    8  A    between atoms: C_18  and  O_22
REMARK    9  A    between atoms: C_26  and  O_31
REMARK   10  A    between atoms: C_27  and  O_30
REMARK                            x       y       z     vdW  Elec       q    Type
REMARK                         _______ _______ _______ _____ _____    ______ ____
ROOT
ATOM      1  C   UNL     1       7.909  -2.618  25.159  0.00  0.00    +0.214 A 
ATOM      2  C   UNL     1       8.715  -1.410  25.520  0.00  0.00    +0.238 A 
ATOM      3  O   UNL     1       8.979  -1.139  26.686  0.00  0.00    -0.283 OA
ATOM      4  C   UNL     1       9.092  -0.508  24.425  0.00  0.00    +0.109 A 
ATOM      5  C   UNL     1       8.389  -0.625  23.229  0.00  0.00    +0.147 A 
ATOM      6  C   UNL     1       8.641   0.265  22.181  0.00  0.00    +0.092 A 
ATOM      7  C   UNL     1       9.600   1.263  22.347  0.00  0.00    +0.124 A 
ATOM      8  C   UNL     1      10.321   1.378  23.529  0.00  0.00    +0.091 A 
ATOM      9  O   UNL     1       7.418  -1.577  23.027  0.00  0.00    -0.451 OA
ATOM     10  C   UNL     1      10.073   0.485  24.568  0.00  0.00    +0.135 A 
ATOM     11  C   UNL     1       7.257  -2.590  23.974  0.00  0.00    +0.181 A 
ENDROOT
BRANCH  11  12
ATOM     12  C   UNL     1       6.275  -3.634  23.556  0.00  0.00    +0.025 A 
ATOM     13  C   UNL     1       4.893  -3.441  23.754  0.00  0.00    +0.015 A 
ATOM     14  C   UNL     1       3.959  -4.415  23.376  0.00  0.00    +0.050 A 
ATOM     15  C   UNL     1       4.401  -5.593  22.795  0.00  0.00    +0.158 A 
ATOM     16  C   UNL     1       5.759  -5.819  22.612  0.00  0.00    +0.159 A 
ATOM     17  C   UNL     1       6.692  -4.862  23.002  0.00  0.00    +0.060 A 
BRANCH  15  18
ATOM     18  O   UNL     1       3.493  -6.532  22.401  0.00  0.00    -0.503 OA
ATOM     19  H   UNL     1       2.935  -6.679  23.193  0.00  0.00    +0.292 HD
ENDBRANCH  15  18
BRANCH  16  20
ATOM     20  O   UNL     1       6.135  -7.004  22.040  0.00  0.00    -0.503 OA
ATOM     21  H   UNL     1       7.106  -7.009  21.967  0.00  0.00    +0.292 HD
ENDBRANCH  16  20
ENDBRANCH  11  12
BRANCH   7  22
ATOM     22  O   UNL     1       9.875   2.166  21.363  0.00  0.00    -0.507 OA
ATOM     23  H   UNL     1       9.954   1.701  20.514  0.00  0.00    +0.292 HD
ENDBRANCH   7  22
BRANCH  10  24
ATOM     24  O   UNL     1      10.817   0.579  25.710  0.00  0.00    -0.506 OA
ATOM     25  H   UNL     1      10.661  -0.197  26.273  0.00  0.00    +0.292 HD
ENDBRANCH  10  24
BRANCH   1  26
ATOM     26  O   UNL     1       7.776  -3.675  26.054  0.00  0.00    -0.453 OA
BRANCH  26  29
ATOM     27  C   UNL     1       4.653  -2.766  27.678  0.00  0.00    +0.198 C 
ATOM     28  O   UNL     1       5.982  -2.631  27.184  0.00  0.00    -0.337 OA
ATOM     29  C   UNL     1       6.466  -3.857  26.615  0.00  0.00    +0.339 C 
ATOM     30  C   UNL     1       6.533  -4.971  27.689  0.00  0.00    +0.214 C 
ATOM     31  C   UNL     1       5.149  -5.115  28.348  0.00  0.00    +0.180 C 
ATOM     32  C   UNL     1       4.617  -3.762  28.832  0.00  0.00    +0.171 C 
BRANCH  30  33
ATOM     33  O   UNL     1       6.953  -6.217  27.097  0.00  0.00    -0.383 OA
ATOM     34  H   UNL     1       6.445  -6.937  27.509  0.00  0.00    +0.210 HD
ENDBRANCH  30  33
BRANCH  31  35
ATOM     35  O   UNL     1       5.205  -6.030  29.451  0.00  0.00    -0.386 OA
ATOM     36  H   UNL     1       5.216  -5.470  30.253  0.00  0.00    +0.210 HD
ENDBRANCH  31  35
BRANCH  32  37
ATOM     37  O   UNL     1       3.289  -3.943  29.328  0.00  0.00    -0.387 OA
ATOM     38  H   UNL     1       2.674  -3.667  28.622  0.00  0.00    +0.210 HD
ENDBRANCH  32  37
ENDBRANCH  26  29
ENDBRANCH   1  26
TORSDOF 10
ENDMDL
MODEL 3
REMARK VINA RESULT:      -7.5      2.362      7.600
REMARK  Name = 
REMARK  10 active torsions:
REMARK  status: ('A' for Active; 'I' for Inactive)
REMARK    1  A    between atoms: C_2  and  O_34
REMARK    2  A    between atoms: C_4  and  O_33
REMARK    3  A    between atoms: C_6  and  O_32
REMARK    4  A    between atoms: C_8  and  O_10
REMARK    5  A    between atoms: O_10  and  C_11
REMARK    6  A    between atoms: C_12  and  C_24
REMARK    7  A    between atoms: C_16  and  O_23
REMARK    8  A    between atoms: C_18  and  O_22
REMARK    9  A    between atoms: C_26  and  O_31
REMARK   10  A    between atoms: C_27  and  O_30
REMARK                            x       y       z     vdW  Elec       q    Type
REMARK                         _______ _______ _______ _____ _____    ______ ____
ROOT
ATOM      1  C   UNL     1       7.238  -3.688  25.648  0.00  0.00    +0.214 A 
ATOM      2  C   UNL     1       6.765  -4.966  26.266  0.00  0.00    +0.238 A 
ATOM      3  O   UNL     1       7.302  -5.436  27.263  0.00  0.00    -0.283 OA
ATOM      4  C   UNL     1       5.693  -5.687  25.568  0.00  0.00    +0.109 A 
ATOM      5  C   UNL     1       5.455  -5.349  24.238  0.00  0.00    +0.147 A 
ATOM      6  C   UNL     1       4.509  -6.061  23.495  0.00  0.00    +0.092 A 
ATOM      7  C   UNL     1       3.811  -7.105  24.098  0.00  0.00    +0.124 A 
ATOM      8  C   UNL     1       4.027  -7.440  25.430  0.00  0.00    +0.091 A 
ATOM      9  O   UNL     1       6.135  -4.342  23.594  0.00  0.00    -0.451 OA
ATOM     10  C   UNL     1       4.964  -6.723  26.170  0.00  0.00    +0.135 A 
ATOM     11  C   UNL     1       6.957  -3.495  24.340  0.00  0.00    +0.181 A 
ENDROOT
BRANCH  11  12
ATOM     12  C   UNL     1       7.512  -2.363  23.540  0.00  0.00    +0.025 A 
ATOM     13  C   UNL     1       6.791  -1.161  23.400  0.00  0.00    +0.015 A 
ATOM     14  C   UNL     1       7.295  -0.093  22.645  0.00  0.00    +0.050 A 
ATOM     15  C   UNL     1       8.527  -0.219  22.024  0.00  0.00    +0.158 A 
ATOM     16  C   UNL     1       9.246  -1.402  22.125  0.00  0.00    +0.159 A 
ATOM     17  C   UNL     1       8.742  -2.473  22.859  0.00  0.00    +0.060 A 
BRANCH  15  18
ATOM     18  O   UNL     1       9.032   0.828  21.310  0.00  0.00    -0.503 OA
ATOM     19  H   UNL     1       8.249   1.374  21.090  0.00  0.00    +0.292 HD
ENDBRANCH  15  18
BRANCH  16  20
ATOM     20  O   UNL     1      10.453  -1.470  21.483  0.00  0.00    -0.503 OA
ATOM     21  H   UNL     1      11.109  -0.997  22.026  0.00  0.00    +0.292 HD
ENDBRANCH  16  20
ENDBRANCH  11  12
BRANCH   7  22
ATOM     22  O   UNL     1       2.889  -7.842  23.417  0.00  0.00    -0.507 OA
ATOM     23  H   UNL     1       2.032  -7.784  23.872  0.00  0.00    +0.292 HD
ENDBRANCH   7  22
BRANCH  10  24
ATOM     24  O   UNL     1       5.138  -7.031  27.489  0.00  0.00    -0.506 OA
ATOM     25  H   UNL     1       4.538  -6.500  28.037  0.00  0.00    +0.292 HD
ENDBRANCH  10  24
BRANCH   1  26
ATOM     26  O   UNL     1       8.008  -2.790  26.381  0.00  0.00    -0.453 OA
BRANCH  26  29
ATOM     27  C   UNL     1       5.132  -0.877  27.514  0.00  0.00    +0.198 C 
ATOM     28  O   UNL     1       5.892  -1.799  26.740  0.00  0.00    -0.337 OA
ATOM     29  C   UNL     1       7.277  -1.798  27.119  0.00  0.00    +0.339 C 
ATOM     30  C   UNL     1       7.916  -0.411  26.862  0.00  0.00    +0.214 C 
ATOM     31  C   UNL     1       7.088   0.665  27.589  0.00  0.00    +0.180 C 
ATOM     32  C   UNL     1       5.599   0.550  27.247  0.00  0.00    +0.171 C 
BRANCH  30  33
ATOM     33  O   UNL     1       9.286  -0.396  27.310  0.00  0.00    -0.383 OA
ATOM     34  H   UNL     1       9.770   0.270  26.792  0.00  0.00    +0.210 HD
ENDBRANCH  30  33
BRANCH  31  35
ATOM     35  O   UNL     1       7.556   1.978  27.253  0.00  0.00    -0.386 OA
ATOM     36  H   UNL     1       8.392   2.091  27.747  0.00  0.00    +0.210 HD
ENDBRANCH  31  35
BRANCH  32  37
ATOM     37  O   UNL     1       4.873   1.496  28.036  0.00  0.00    -0.387 OA
ATOM     38  H   UNL     1       4.123   1.811  27.496  0.00  0.00    +0.210 HD
ENDBRANCH  32  37
ENDBRANCH  26  29
ENDBRANCH   1  26
TORSDOF 10
ENDMDL
MODEL 4
REMARK VINA RESULT:      -7.3      2.171      3.289
REMARK  Name = 
REMARK  10 active torsions:
REMARK  status: ('A' for Active; 'I' for Inactive)
REMARK    1  A    between atoms: C_2  and  O_34
REMARK    2  A    between atoms: C_4  and  O_33
REMARK    3  A    between atoms: C_6  and  O_32
REMARK    4  A    between atoms: C_8  and  O_10
REMARK    5  A    between atoms: O_10  and  C_11
REMARK    6  A    between atoms: C_12  and  C_24
REMARK    7  A    between atoms: C_16  and  O_23
REMARK    8  A    between atoms: C_18  and  O_22
REMARK    9  A    between atoms: C_26  and  O_31
REMARK   10  A    between atoms: C_27  and  O_30
REMARK                            x       y       z     vdW  Elec       q    Type
REMARK                         _______ _______ _______ _____ _____    ______ ____
ROOT
ATOM      1  C   UNL     1       7.692  -3.047  24.741  0.00  0.00    +0.214 A 
ATOM      2  C   UNL     1       8.913  -2.612  23.994  0.00  0.00    +0.238 A 
ATOM      3  O   UNL     1       9.970  -3.229  24.075  0.00  0.00    -0.283 OA
ATOM      4  C   UNL     1       8.821  -1.358  23.238  0.00  0.00    +0.109 A 
ATOM      5  C   UNL     1       7.774  -0.496  23.553  0.00  0.00    +0.147 A 
ATOM      6  C   UNL     1       7.685   0.753  22.931  0.00  0.00    +0.092 A 
ATOM      7  C   UNL     1       8.651   1.121  21.996  0.00  0.00    +0.124 A 
ATOM      8  C   UNL     1       9.690   0.262  21.659  0.00  0.00    +0.091 A 
ATOM      9  O   UNL     1       6.812  -0.805  24.486  0.00  0.00    -0.451 OA
ATOM     10  C   UNL     1       9.770  -0.984  22.274  0.00  0.00    +0.135 A 
ATOM     11  C   UNL     1       6.760  -2.102  25.000  0.00  0.00    +0.181 A 
ENDROOT
BRANCH  11  12
ATOM     12  C   UNL     1       5.581  -2.335  25.886  0.00  0.00    +0.025 A 
ATOM     13  C   UNL     1       5.749  -2.518  27.273  0.00  0.00    +0.015 A 
ATOM     14  C   UNL     1       4.652  -2.749  28.115  0.00  0.00    +0.050 A 
ATOM     15  C   UNL     1       3.377  -2.797  27.575  0.00  0.00    +0.158 A 
ATOM     16  C   UNL     1       3.187  -2.646  26.208  0.00  0.00    +0.159 A 
ATOM     17  C   UNL     1       4.274  -2.435  25.364  0.00  0.00    +0.060 A 
BRANCH  15  18
ATOM     18  O   UNL     1       2.305  -2.995  28.396  0.00  0.00    -0.503 OA
ATOM     19  H   UNL     1       2.521  -2.487  29.205  0.00  0.00    +0.292 HD
ENDBRANCH  15  18
BRANCH  16  20
ATOM     20  O   UNL     1       1.905  -2.712  25.733  0.00  0.00    -0.503 OA
ATOM     21  H   UNL     1       1.340  -3.071  26.441  0.00  0.00    +0.292 HD
ENDBRANCH  16  20
ENDBRANCH  11  12
BRANCH   7  22
ATOM     22  O   UNL     1       8.621   2.332  21.370  0.00  0.00    -0.507 OA
ATOM     23  H   UNL     1       9.079   2.262  20.516  0.00  0.00    +0.292 HD
ENDBRANCH   7  22
BRANCH  10  24
ATOM     24  O   UNL     1      10.770  -1.838  21.906  0.00  0.00    -0.506 OA
ATOM     25  H   UNL     1      11.577  -1.644  22.410  0.00  0.00    +0.292 HD
ENDBRANCH  10  24
BRANCH   1  26
ATOM     26  O   UNL     1       7.578  -4.350  25.215  0.00  0.00    -0.453 OA
BRANCH  26  29
ATOM     27  C   UNL     1       5.385  -5.395  22.511  0.00  0.00    +0.198 C 
ATOM     28  O   UNL     1       6.184  -4.534  23.316  0.00  0.00    -0.337 OA
ATOM     29  C   UNL     1       6.712  -5.215  24.463  0.00  0.00    +0.339 C 
ATOM     30  C   UNL     1       5.569  -5.705  25.386  0.00  0.00    +0.214 C 
ATOM     31  C   UNL     1       4.596  -6.570  24.564  0.00  0.00    +0.180 C 
ATOM     32  C   UNL     1       4.152  -5.849  23.286  0.00  0.00    +0.171 C 
BRANCH  30  33
ATOM     33  O   UNL     1       6.103  -6.449  26.500  0.00  0.00    -0.383 OA
ATOM     34  H   UNL     1       6.602  -7.207  26.149  0.00  0.00    +0.210 HD
ENDBRANCH  30  33
BRANCH  31  35
ATOM     35  O   UNL     1       3.444  -6.916  25.343  0.00  0.00    -0.386 OA
ATOM     36  H   UNL     1       3.650  -7.786  25.739  0.00  0.00    +0.210 HD
ENDBRANCH  31  35
BRANCH  32  37
ATOM     37  O   UNL     1       3.346  -6.742  22.514  0.00  0.00    -0.387 OA
ATOM     38  H   UNL     1       2.951  -7.386  23.131  0.00  0.00    +0.210 HD
ENDBRANCH  32  37
ENDBRANCH  26  29
ENDBRANCH   1  26
TORSDOF 10
ENDMDL
MODEL 5
REMARK VINA RESULT:      -7.3      2.356      7.300
REMARK  Name = 
REMARK  10 active torsions:
REMARK  status: ('A' for Active; 'I' for Inactive)
REMARK    1  A    between atoms: C_2  and  O_34
REMARK    2  A    between atoms: C_4  and  O_33
REMARK    3  A    between atoms: C_6  and  O_32
REMARK    4  A    between atoms: C_8  and  O_10
REMARK    5  A    between atoms: O_10  and  C_11
REMARK    6  A    between atoms: C_12  and  C_24
REMARK    7  A    between atoms: C_16  and  O_23
REMARK    8  A    between atoms: C_18  and  O_22
REMARK    9  A    between atoms: C_26  and  O_31
REMARK   10  A    between atoms: C_27  and  O_30
REMARK                            x       y       z     vdW  Elec       q    Type
REMARK                         _______ _______ _______ _____ _____    ______ ____
ROOT
ATOM      1  C   UNL     1       7.951  -2.138  25.293  0.00  0.00    +0.214 A 
ATOM      2  C   UNL     1       7.439  -3.531  25.481  0.00  0.00    +0.238 A 
ATOM      3  O   UNL     1       7.546  -4.115  26.553  0.00  0.00    -0.283 OA
ATOM      4  C   UNL     1       6.894  -4.206  24.297  0.00  0.00    +0.109 A 
ATOM      5  C   UNL     1       7.217  -3.675  23.051  0.00  0.00    +0.147 A 
ATOM      6  C   UNL     1       6.802  -4.325  21.885  0.00  0.00    +0.092 A 
ATOM      7  C   UNL     1       6.064  -5.503  21.985  0.00  0.00    +0.124 A 
ATOM      8  C   UNL     1       5.719  -6.033  23.223  0.00  0.00    +0.091 A 
ATOM      9  O   UNL     1       7.963  -2.530  22.902  0.00  0.00    -0.451 OA
ATOM     10  C   UNL     1       6.127  -5.378  24.382  0.00  0.00    +0.135 A 
ATOM     11  C   UNL     1       8.248  -1.756  24.029  0.00  0.00    +0.181 A 
ENDROOT
BRANCH  11  12
ATOM     12  C   UNL     1       8.933  -0.471  23.702  0.00  0.00    +0.025 A 
ATOM     13  C   UNL     1      10.095  -0.079  24.395  0.00  0.00    +0.015 A 
ATOM     14  C   UNL     1      10.743   1.130  24.106  0.00  0.00    +0.050 A 
ATOM     15  C   UNL     1      10.234   1.956  23.118  0.00  0.00    +0.158 A 
ATOM     16  C   UNL     1       9.076   1.606  22.437  0.00  0.00    +0.159 A 
ATOM     17  C   UNL     1       8.417   0.415  22.733  0.00  0.00    +0.060 A 
BRANCH  15  18
ATOM     18  O   UNL     1      10.878   3.121  22.815  0.00  0.00    -0.503 OA
ATOM     19  H   UNL     1      11.828   2.882  22.819  0.00  0.00    +0.292 HD
ENDBRANCH  15  18
BRANCH  16  20
ATOM     20  O   UNL     1       8.616   2.467  21.478  0.00  0.00    -0.503 OA
ATOM     21  H   UNL     1       8.164   3.204  21.927  0.00  0.00    +0.292 HD
ENDBRANCH  16  20
ENDBRANCH  11  12
BRANCH   7  22
ATOM     22  O   UNL     1       5.646  -6.186  20.882  0.00  0.00    -0.507 OA
ATOM     23  H   UNL     1       6.394  -6.684  20.511  0.00  0.00    +0.292 HD
ENDBRANCH   7  22
BRANCH  10  24
ATOM     24  O   UNL     1       5.748  -5.883  25.593  0.00  0.00    -0.506 OA
ATOM     25  H   UNL     1       6.395  -5.638  26.274  0.00  0.00    +0.292 HD
ENDBRANCH  10  24
BRANCH   1  26
ATOM     26  O   UNL     1       8.189  -1.316  26.390  0.00  0.00    -0.453 OA
BRANCH  26  29
ATOM     27  C   UNL     1       4.886   0.202  26.434  0.00  0.00    +0.198 C 
ATOM     28  O   UNL     1       6.070  -0.386  25.906  0.00  0.00    -0.337 OA
ATOM     29  C   UNL     1       7.036  -0.652  26.934  0.00  0.00    +0.339 C 
ATOM     30  C   UNL     1       7.491   0.663  27.614  0.00  0.00    +0.214 C 
ATOM     31  C   UNL     1       6.251   1.416  28.129  0.00  0.00    +0.180 C 
ATOM     32  C   UNL     1       5.195   1.572  27.030  0.00  0.00    +0.171 C 
BRANCH  30  33
ATOM     33  O   UNL     1       8.408   0.383  28.691  0.00  0.00    -0.383 OA
ATOM     34  H   UNL     1       8.452  -0.581  28.812  0.00  0.00    +0.210 HD
ENDBRANCH  30  33
BRANCH  31  35
ATOM     35  O   UNL     1       6.615   2.710  28.630  0.00  0.00    -0.386 OA
ATOM     36  H   UNL     1       6.796   2.579  29.582  0.00  0.00    +0.210 HD
ENDBRANCH  31  35
BRANCH  32  37
ATOM     37  O   UNL     1       4.029   2.173  27.597  0.00  0.00    -0.387 OA
ATOM     38  H   UNL     1       4.310   2.999  28.035  0.00  0.00    +0.210 HD
ENDBRANCH  32  37
ENDBRANCH  26  29
ENDBRANCH   1  26
TORSDOF 10
ENDMDL
MODEL 6
REMARK VINA RESULT:      -7.3      1.720      4.114
REMARK  Name = 
REMARK  10 active torsions:
REMARK  status: ('A' for Active; 'I' for Inactive)
REMARK    1  A    between atoms: C_2  and  O_34
REMARK    2  A    between atoms: C_4  and  O_33
REMARK    3  A    between atoms: C_6  and  O_32
REMARK    4  A    between atoms: C_8  and  O_10
REMARK    5  A    between atoms: O_10  and  C_11
REMARK    6  A    between atoms: C_12  and  C_24
REMARK    7  A    between atoms: C_16  and  O_23
REMARK    8  A    between atoms: C_18  and  O_22
REMARK    9  A    between atoms: C_26  and  O_31
REMARK   10  A    between atoms: C_27  and  O_30
REMARK                            x       y       z     vdW  Elec       q    Type
REMARK                         _______ _______ _______ _____ _____    ______ ____
ROOT
ATOM      1  C   UNL     1       7.662  -1.311  24.855  0.00  0.00    +0.214 A 
ATOM      2  C   UNL     1       7.790   0.095  25.353  0.00  0.00    +0.238 A 
ATOM      3  O   UNL     1       7.961   0.342  26.541  0.00  0.00    -0.283 OA
ATOM      4  C   UNL     1       7.604   1.169  24.371  0.00  0.00    +0.109 A 
ATOM      5  C   UNL     1       6.975   0.840  23.173  0.00  0.00    +0.147 A 
ATOM      6  C   UNL     1       6.689   1.837  22.236  0.00  0.00    +0.092 A 
ATOM      7  C   UNL     1       7.040   3.157  22.515  0.00  0.00    +0.124 A 
ATOM      8  C   UNL     1       7.686   3.496  23.698  0.00  0.00    +0.091 A 
ATOM      9  O   UNL     1       6.588  -0.443  22.865  0.00  0.00    -0.451 OA
ATOM     10  C   UNL     1       7.976   2.498  24.625  0.00  0.00    +0.135 A 
ATOM     11  C   UNL     1       7.007  -1.492  23.686  0.00  0.00    +0.181 A 
ENDROOT
BRANCH  11  12
ATOM     12  C   UNL     1       6.642  -2.837  23.152  0.00  0.00    +0.025 A 
ATOM     13  C   UNL     1       7.615  -3.661  22.552  0.00  0.00    +0.015 A 
ATOM     14  C   UNL     1       7.285  -4.923  22.037  0.00  0.00    +0.050 A 
ATOM     15  C   UNL     1       5.977  -5.371  22.119  0.00  0.00    +0.158 A 
ATOM     16  C   UNL     1       4.994  -4.568  22.683  0.00  0.00    +0.159 A 
ATOM     17  C   UNL     1       5.312  -3.306  23.179  0.00  0.00    +0.060 A 
BRANCH  15  18
ATOM     18  O   UNL     1       5.658  -6.609  21.643  0.00  0.00    -0.503 OA
ATOM     19  H   UNL     1       6.520  -7.065  21.553  0.00  0.00    +0.292 HD
ENDBRANCH  15  18
BRANCH  16  20
ATOM     20  O   UNL     1       3.718  -5.062  22.728  0.00  0.00    -0.503 OA
ATOM     21  H   UNL     1       3.694  -5.771  23.395  0.00  0.00    +0.292 HD
ENDBRANCH  16  20
ENDBRANCH  11  12
BRANCH   7  22
ATOM     22  O   UNL     1       6.772   4.171  21.644  0.00  0.00    -0.507 OA
ATOM     23  H   UNL     1       7.533   4.775  21.611  0.00  0.00    +0.292 HD
ENDBRANCH   7  22
BRANCH  10  24
ATOM     24  O   UNL     1       8.648   2.833  25.766  0.00  0.00    -0.506 OA
ATOM     25  H   UNL     1       8.114   2.608  26.545  0.00  0.00    +0.292 HD
ENDBRANCH  10  24
BRANCH   1  26
ATOM     26  O   UNL     1       8.124  -2.378  25.619  0.00  0.00    -0.453 OA
BRANCH  26  29
ATOM     27  C   UNL     1       5.202  -3.413  27.517  0.00  0.00    +0.198 C 
ATOM     28  O   UNL     1       6.258  -2.577  27.056  0.00  0.00    -0.337 OA
ATOM     29  C   UNL     1       7.115  -3.263  26.131  0.00  0.00    +0.339 C 
ATOM     30  C   UNL     1       7.806  -4.469  26.813  0.00  0.00    +0.214 C 
ATOM     31  C   UNL     1       6.730  -5.380  27.431  0.00  0.00    +0.180 C 
ATOM     32  C   UNL     1       5.765  -4.584  28.316  0.00  0.00    +0.171 C 
BRANCH  30  33
ATOM     33  O   UNL     1       8.610  -5.195  25.861  0.00  0.00    -0.383 OA
ATOM     34  H   UNL     1       8.529  -6.145  26.054  0.00  0.00    +0.210 HD
ENDBRANCH  30  33
BRANCH  31  35
ATOM     35  O   UNL     1       7.334  -6.427  28.203  0.00  0.00    -0.386 OA
ATOM     36  H   UNL     1       7.736  -5.982  28.975  0.00  0.00    +0.210 HD
ENDBRANCH  31  35
BRANCH  32  37
ATOM     37  O   UNL     1       4.728  -5.459  28.766  0.00  0.00    -0.387 OA
ATOM     38  H   UNL     1       5.093  -6.365  28.772  0.00  0.00    +0.210 HD
ENDBRANCH  32  37
ENDBRANCH  26  29
ENDBRANCH   1  26
TORSDOF 10
ENDMDL
MODEL 7
REMARK VINA RESULT:      -6.9      2.540      7.715
REMARK  Name = 
REMARK  10 active torsions:
REMARK  status: ('A' for Active; 'I' for Inactive)
REMARK    1  A    between atoms: C_2  and  O_34
REMARK    2  A    between atoms: C_4  and  O_33
REMARK    3  A    between atoms: C_6  and  O_32
REMARK    4  A    between atoms: C_8  and  O_10
REMARK    5  A    between atoms: O_10  and  C_11
REMARK    6  A    between atoms: C_12  and  C_24
REMARK    7  A    between atoms: C_16  and  O_23
REMARK    8  A    between atoms: C_18  and  O_22
REMARK    9  A    between atoms: C_26  and  O_31
REMARK   10  A    between atoms: C_27  and  O_30
REMARK                            x       y       z     vdW  Elec       q    Type
REMARK                         _______ _______ _______ _____ _____    ______ ____
ROOT
ATOM      1  C   UNL     1       6.029  -0.916  24.162  0.00  0.00    +0.214 A 
ATOM      2  C   UNL     1       5.230  -2.119  24.552  0.00  0.00    +0.238 A 
ATOM      3  O   UNL     1       4.487  -2.108  25.527  0.00  0.00    -0.283 OA
ATOM      4  C   UNL     1       5.449  -3.346  23.777  0.00  0.00    +0.109 A 
ATOM      5  C   UNL     1       6.607  -3.417  23.006  0.00  0.00    +0.147 A 
ATOM      6  C   UNL     1       6.916  -4.594  22.317  0.00  0.00    +0.092 A 
ATOM      7  C   UNL     1       6.055  -5.686  22.409  0.00  0.00    +0.124 A 
ATOM      8  C   UNL     1       4.887  -5.620  23.159  0.00  0.00    +0.091 A 
ATOM      9  O   UNL     1       7.498  -2.375  22.905  0.00  0.00    -0.451 OA
ATOM     10  C   UNL     1       4.579  -4.444  23.838  0.00  0.00    +0.135 A 
ATOM     11  C   UNL     1       7.146  -1.130  23.430  0.00  0.00    +0.181 A 
ENDROOT
BRANCH  11  12
ATOM     12  C   UNL     1       8.139  -0.060  23.118  0.00  0.00    +0.025 A 
ATOM     13  C   UNL     1       7.951   0.794  22.013  0.00  0.00    +0.015 A 
ATOM     14  C   UNL     1       8.880   1.797  21.702  0.00  0.00    +0.050 A 
ATOM     15  C   UNL     1      10.004   1.955  22.495  0.00  0.00    +0.158 A 
ATOM     16  C   UNL     1      10.225   1.110  23.575  0.00  0.00    +0.159 A 
ATOM     17  C   UNL     1       9.316   0.100  23.878  0.00  0.00    +0.060 A 
BRANCH  15  18
ATOM     18  O   UNL     1      10.896   2.948  22.211  0.00  0.00    -0.503 OA
ATOM     19  H   UNL     1      11.217   2.737  21.310  0.00  0.00    +0.292 HD
ENDBRANCH  15  18
BRANCH  16  20
ATOM     20  O   UNL     1      11.358   1.310  24.317  0.00  0.00    -0.503 OA
ATOM     21  H   UNL     1      12.028   0.667  24.022  0.00  0.00    +0.292 HD
ENDBRANCH  16  20
ENDBRANCH  11  12
BRANCH   7  22
ATOM     22  O   UNL     1       6.314  -6.861  21.769  0.00  0.00    -0.507 OA
ATOM     23  H   UNL     1       7.263  -6.913  21.565  0.00  0.00    +0.292 HD
ENDBRANCH   7  22
BRANCH  10  24
ATOM     24  O   UNL     1       3.408  -4.375  24.538  0.00  0.00    -0.506 OA
ATOM     25  H   UNL     1       3.065  -3.466  24.524  0.00  0.00    +0.292 HD
ENDBRANCH  10  24
BRANCH   1  26
ATOM     26  O   UNL     1       5.672   0.350  24.616  0.00  0.00    -0.453 OA
BRANCH  26  29
ATOM     27  C   UNL     1       6.909   0.775  28.008  0.00  0.00    +0.198 C 
ATOM     28  O   UNL     1       6.077   0.323  26.945  0.00  0.00    -0.337 OA
ATOM     29  C   UNL     1       6.475   0.880  25.683  0.00  0.00    +0.339 C 
ATOM     30  C   UNL     1       6.337   2.422  25.694  0.00  0.00    +0.214 C 
ATOM     31  C   UNL     1       7.134   2.988  26.884  0.00  0.00    +0.180 C 
ATOM     32  C   UNL     1       6.762   2.282  28.192  0.00  0.00    +0.171 C 
BRANCH  30  33
ATOM     33  O   UNL     1       6.805   2.980  24.450  0.00  0.00    -0.383 OA
ATOM     34  H   UNL     1       7.673   3.392  24.607  0.00  0.00    +0.210 HD
ENDBRANCH  30  33
BRANCH  31  35
ATOM     35  O   UNL     1       6.908   4.398  27.021  0.00  0.00    -0.386 OA
ATOM     36  H   UNL     1       7.225   4.626  27.918  0.00  0.00    +0.210 HD
ENDBRANCH  31  35
BRANCH  32  37
ATOM     37  O   UNL     1       7.612   2.768  29.234  0.00  0.00    -0.387 OA
ATOM     38  H   UNL     1       7.905   1.997  29.755  0.00  0.00    +0.210 HD
ENDBRANCH  32  37
ENDBRANCH  26  29
ENDBRANCH   1  26
TORSDOF 10
ENDMDL
MODEL 8
REMARK VINA RESULT:      -6.8      2.894      5.550
REMARK  Name = 
REMARK  10 active torsions:
REMARK  status: ('A' for Active; 'I' for Inactive)
REMARK    1  A    between atoms: C_2  and  O_34
REMARK    2  A    between atoms: C_4  and  O_33
REMARK    3  A    between atoms: C_6  and  O_32
REMARK    4  A    between atoms: C_8  and  O_10
REMARK    5  A    between atoms: O_10  and  C_11
REMARK    6  A    between atoms: C_12  and  C_24
REMARK    7  A    between atoms: C_16  and  O_23
REMARK    8  A    between atoms: C_18  and  O_22
REMARK    9  A    between atoms: C_26  and  O_31
REMARK   10  A    between atoms: C_27  and  O_30
REMARK                            x       y       z     vdW  Elec       q    Type
REMARK                         _______ _______ _______ _____ _____    ______ ____
ROOT
ATOM      1  C   UNL     1       7.963   2.311  23.719  0.00  0.00    +0.214 A 
ATOM      2  C   UNL     1       8.179   3.773  23.486  0.00  0.00    +0.238 A 
ATOM      3  O   UNL     1       7.257   4.515  23.163  0.00  0.00    -0.283 OA
ATOM      4  C   UNL     1       9.560   4.264  23.562  0.00  0.00    +0.109 A 
ATOM      5  C   UNL     1      10.580   3.320  23.476  0.00  0.00    +0.147 A 
ATOM      6  C   UNL     1      11.915   3.735  23.452  0.00  0.00    +0.092 A 
ATOM      7  C   UNL     1      12.210   5.095  23.516  0.00  0.00    +0.124 A 
ATOM      8  C   UNL     1      11.201   6.046  23.621  0.00  0.00    +0.091 A 
ATOM      9  O   UNL     1      10.338   1.970  23.386  0.00  0.00    -0.451 OA
ATOM     10  C   UNL     1       9.873   5.629  23.653  0.00  0.00    +0.135 A 
ATOM     11  C   UNL     1       9.038   1.501  23.582  0.00  0.00    +0.181 A 
ENDROOT
BRANCH  11  12
ATOM     12  C   UNL     1       8.948   0.011  23.604  0.00  0.00    +0.025 A 
ATOM     13  C   UNL     1       9.724  -0.742  24.508  0.00  0.00    +0.015 A 
ATOM     14  C   UNL     1       9.659  -2.142  24.534  0.00  0.00    +0.050 A 
ATOM     15  C   UNL     1       8.814  -2.800  23.656  0.00  0.00    +0.158 A 
ATOM     16  C   UNL     1       8.057  -2.084  22.738  0.00  0.00    +0.159 A 
ATOM     17  C   UNL     1       8.132  -0.694  22.695  0.00  0.00    +0.060 A 
BRANCH  15  18
ATOM     18  O   UNL     1       8.727  -4.162  23.697  0.00  0.00    -0.503 OA
ATOM     19  H   UNL     1       8.264  -4.352  24.538  0.00  0.00    +0.292 HD
ENDBRANCH  15  18
BRANCH  16  20
ATOM     20  O   UNL     1       7.247  -2.791  21.891  0.00  0.00    -0.503 OA
ATOM     21  H   UNL     1       7.476  -3.734  21.973  0.00  0.00    +0.292 HD
ENDBRANCH  16  20
ENDBRANCH  11  12
BRANCH   7  22
ATOM     22  O   UNL     1      13.492   5.556  23.482  0.00  0.00    -0.507 OA
ATOM     23  H   UNL     1      14.097   4.841  23.743  0.00  0.00    +0.292 HD
ENDBRANCH   7  22
BRANCH  10  24
ATOM     24  O   UNL     1       8.891   6.566  23.799  0.00  0.00    -0.506 OA
ATOM     25  H   UNL     1       9.238   7.343  24.268  0.00  0.00    +0.292 HD
ENDBRANCH  10  24
BRANCH   1  26
ATOM     26  O   UNL     1       6.690   1.815  23.979  0.00  0.00    -0.453 OA
BRANCH  26  29
ATOM     27  C   UNL     1       6.909   2.459  27.550  0.00  0.00    +0.198 C 
ATOM     28  O   UNL     1       7.313   2.384  26.186  0.00  0.00    -0.337 OA
ATOM     29  C   UNL     1       6.291   1.808  25.359  0.00  0.00    +0.339 C 
ATOM     30  C   UNL     1       5.995   0.350  25.787  0.00  0.00    +0.214 C 
ATOM     31  C   UNL     1       5.643   0.329  27.286  0.00  0.00    +0.180 C 
ATOM     32  C   UNL     1       6.701   1.059  28.118  0.00  0.00    +0.171 C 
BRANCH  30  33
ATOM     33  O   UNL     1       4.919  -0.199  24.999  0.00  0.00    -0.383 OA
ATOM     34  H   UNL     1       4.079   0.150  25.344  0.00  0.00    +0.210 HD
ENDBRANCH  30  33
BRANCH  31  35
ATOM     35  O   UNL     1       5.510  -1.019  27.757  0.00  0.00    -0.386 OA
ATOM     36  H   UNL     1       4.667  -1.040  28.251  0.00  0.00    +0.210 HD
ENDBRANCH  31  35
BRANCH  32  37
ATOM     37  O   UNL     1       6.264   1.105  29.478  0.00  0.00    -0.387 OA
ATOM     38  H   UNL     1       5.301   1.267  29.469  0.00  0.00    +0.210 HD
ENDBRANCH  32  37
ENDBRANCH  26  29
ENDBRANCH   1  26
TORSDOF 10
ENDMDL
MODEL 9
REMARK VINA RESULT:      -6.8      1.554      4.348
REMARK  Name = 
REMARK  10 active torsions:
REMARK  status: ('A' for Active; 'I' for Inactive)
REMARK    1  A    between atoms: C_2  and  O_34
REMARK    2  A    between atoms: C_4  and  O_33
REMARK    3  A    between atoms: C_6  and  O_32
REMARK    4  A    between atoms: C_8  and  O_10
REMARK    5  A    between atoms: O_10  and  C_11
REMARK    6  A    between atoms: C_12  and  C_24
REMARK    7  A    between atoms: C_16  and  O_23
REMARK    8  A    between atoms: C_18  and  O_22
REMARK    9  A    between atoms: C_26  and  O_31
REMARK   10  A    between atoms: C_27  and  O_30
REMARK                            x       y       z     vdW  Elec       q    Type
REMARK                         _______ _______ _______ _____ _____    ______ ____
ROOT
ATOM      1  C   UNL     1       6.347  -0.939  24.598  0.00  0.00    +0.214 A 
ATOM      2  C   UNL     1       6.677   0.497  24.861  0.00  0.00    +0.238 A 
ATOM      3  O   UNL     1       5.983   1.192  25.595  0.00  0.00    -0.283 OA
ATOM      4  C   UNL     1       7.811   1.066  24.123  0.00  0.00    +0.109 A 
ATOM      5  C   UNL     1       8.253   0.377  22.997  0.00  0.00    +0.147 A 
ATOM      6  C   UNL     1       9.269   0.915  22.202  0.00  0.00    +0.092 A 
ATOM      7  C   UNL     1       9.832   2.141  22.550  0.00  0.00    +0.124 A 
ATOM      8  C   UNL     1       9.413   2.830  23.683  0.00  0.00    +0.091 A 
ATOM      9  O   UNL     1       7.712  -0.824  22.600  0.00  0.00    -0.451 OA
ATOM     10  C   UNL     1       8.406   2.287  24.476  0.00  0.00    +0.135 A 
ATOM     11  C   UNL     1       6.822  -1.480  23.453  0.00  0.00    +0.181 A 
ENDROOT
BRANCH  11  12
ATOM     12  C   UNL     1       6.432  -2.835  22.964  0.00  0.00    +0.025 A 
ATOM     13  C   UNL     1       7.374  -3.669  22.329  0.00  0.00    +0.015 A 
ATOM     14  C   UNL     1       7.020  -4.940  21.856  0.00  0.00    +0.050 A 
ATOM     15  C   UNL     1       5.719  -5.388  22.015  0.00  0.00    +0.158 A 
ATOM     16  C   UNL     1       4.765  -4.576  22.615  0.00  0.00    +0.159 A 
ATOM     17  C   UNL     1       5.106  -3.305  23.070  0.00  0.00    +0.060 A 
BRANCH  15  18
ATOM     18  O   UNL     1       5.377  -6.635  21.580  0.00  0.00    -0.503 OA
ATOM     19  H   UNL     1       5.944  -7.240  22.102  0.00  0.00    +0.292 HD
ENDBRANCH  15  18
BRANCH  16  20
ATOM     20  O   UNL     1       3.494  -5.071  22.737  0.00  0.00    -0.503 OA
ATOM     21  H   UNL     1       3.150  -4.803  23.608  0.00  0.00    +0.292 HD
ENDBRANCH  16  20
ENDBRANCH  11  12
BRANCH   7  22
ATOM     22  O   UNL     1      10.816   2.719  21.804  0.00  0.00    -0.507 OA
ATOM     23  H   UNL     1      10.538   3.613  21.544  0.00  0.00    +0.292 HD
ENDBRANCH   7  22
BRANCH  10  24
ATOM     24  O   UNL     1       8.030   2.950  25.609  0.00  0.00    -0.506 OA
ATOM     25  H   UNL     1       7.095   2.773  25.804  0.00  0.00    +0.292 HD
ENDBRANCH  10  24
BRANCH   1  26
ATOM     26  O   UNL     1       5.513  -1.643  25.460  0.00  0.00    -0.453 OA
BRANCH  26  29
ATOM     27  C   UNL     1       8.120  -3.868  26.671  0.00  0.00    +0.198 C 
ATOM     28  O   UNL     1       7.418  -3.003  25.784  0.00  0.00    -0.337 OA
ATOM     29  C   UNL     1       6.165  -2.575  26.338  0.00  0.00    +0.339 C 
ATOM     30  C   UNL     1       5.226  -3.784  26.572  0.00  0.00    +0.214 C 
ATOM     31  C   UNL     1       5.952  -4.820  27.449  0.00  0.00    +0.180 C 
ATOM     32  C   UNL     1       7.336  -5.159  26.884  0.00  0.00    +0.171 C 
BRANCH  30  33
ATOM     33  O   UNL     1       3.998  -3.355  27.193  0.00  0.00    -0.383 OA
ATOM     34  H   UNL     1       3.470  -2.879  26.530  0.00  0.00    +0.210 HD
ENDBRANCH  30  33
BRANCH  31  35
ATOM     35  O   UNL     1       5.176  -6.021  27.563  0.00  0.00    -0.386 OA
ATOM     36  H   UNL     1       5.459  -6.434  28.402  0.00  0.00    +0.210 HD
ENDBRANCH  31  35
BRANCH  32  37
ATOM     37  O   UNL     1       8.003  -6.033  27.797  0.00  0.00    -0.387 OA
ATOM     38  H   UNL     1       8.935  -6.095  27.513  0.00  0.00    +0.210 HD
ENDBRANCH  32  37
ENDBRANCH  26  29
ENDBRANCH   1  26
TORSDOF 10
ENDMDL
