MODEL 1
REMARK VINA RESULT:      -7.6      0.000      0.000
REMARK  Name = 
REMARK  15 active torsions:
REMARK  status: ('A' for Active; 'I' for Inactive)
REMARK    1  A    between atoms: C_1  and  C_2
REMARK    2  A    between atoms: C_3  and  O_47
REMARK    3  A    between atoms: C_5  and  O_46
REMARK    4  A    between atoms: C_6  and  O_33
REMARK    5  A    between atoms: C_8  and  O_11
REMARK    6  A    between atoms: O_11  and  C_12
REMARK    7  A    between atoms: C_13  and  C_25
REMARK    8  A    between atoms: C_17  and  O_24
REMARK    9  A    between atoms: C_19  and  O_23
REMARK   10  A    between atoms: C_27  and  O_32
REMARK   11  A    between atoms: C_28  and  O_31
REMARK   12  A    between atoms: O_33  and  C_34
REMARK   13  A    between atoms: C_36  and  O_45
REMARK   14  A    between atoms: C_38  and  O_44
REMARK   15  A    between atoms: C_39  and  O_43
REMARK                            x       y       z     vdW  Elec       q    Type
REMARK                         _______ _______ _______ _____ _____    ______ ____
ROOT
ATOM      1  O   UNL     1       6.650   0.235  24.128  0.00  0.00    -0.453 OA
ENDROOT
BRANCH   1   2
ATOM      2  C   UNL     1       5.923   0.920  25.105  0.00  0.00    +0.214 A 
ATOM      3  C   UNL     1       4.853   0.160  25.853  0.00  0.00    +0.238 A 
ATOM      4  O   UNL     1       4.589  -0.998  25.555  0.00  0.00    -0.283 OA
ATOM      5  C   UNL     1       4.122   0.849  26.937  0.00  0.00    +0.109 A 
ATOM      6  C   UNL     1       4.354   2.204  27.092  0.00  0.00    +0.147 A 
ATOM      7  C   UNL     1       3.702   2.951  28.082  0.00  0.00    +0.092 A 
ATOM      8  C   UNL     1       2.818   2.315  28.938  0.00  0.00    +0.124 A 
ATOM      9  C   UNL     1       2.564   0.956  28.804  0.00  0.00    +0.091 A 
ATOM     10  O   UNL     1       5.217   2.897  26.306  0.00  0.00    -0.451 OA
ATOM     11  C   UNL     1       3.215   0.222  27.805  0.00  0.00    +0.135 A 
ATOM     12  C   UNL     1       6.009   2.264  25.345  0.00  0.00    +0.181 A 
BRANCH  12  13
ATOM     13  C   UNL     1       6.843   3.342  24.683  0.00  0.00    +0.025 A 
ATOM     14  C   UNL     1       8.048   3.757  25.323  0.00  0.00    +0.015 A 
ATOM     15  C   UNL     1       8.955   4.667  24.759  0.00  0.00    +0.050 A 
ATOM     16  C   UNL     1       8.696   5.185  23.510  0.00  0.00    +0.158 A 
ATOM     17  C   UNL     1       7.523   4.804  22.851  0.00  0.00    +0.159 A 
ATOM     18  C   UNL     1       6.608   3.889  23.418  0.00  0.00    +0.060 A 
BRANCH  16  19
ATOM     19  O   UNL     1       9.610   6.033  22.959  0.00  0.00    -0.503 OA
ATOM     20  H   UNL     1       9.362   6.157  22.024  0.00  0.00    +0.292 HD
ENDBRANCH  16  19
BRANCH  17  21
ATOM     21  O   UNL     1       7.278   5.313  21.600  0.00  0.00    -0.503 OA
ATOM     22  H   UNL     1       8.076   5.822  21.365  0.00  0.00    +0.292 HD
ENDBRANCH  17  21
ENDBRANCH  12  13
BRANCH   8  23
ATOM     23  O   UNL     1       2.180   2.988  29.936  0.00  0.00    -0.507 OA
ATOM     24  H   UNL     1       1.859   3.842  29.598  0.00  0.00    +0.292 HD
ENDBRANCH   8  23
BRANCH  11  25
ATOM     25  O   UNL     1       2.949  -1.115  27.709  0.00  0.00    -0.506 OA
ATOM     26  H   UNL     1       2.033  -1.251  27.417  0.00  0.00    +0.292 HD
ENDBRANCH  11  25
ENDBRANCH   1   2
BRANCH   1  30
ATOM     27  C   UNL     1      11.088   0.970  24.332  0.00  0.00    +0.041 C 
ATOM     28  C   UNL     1      10.169   0.559  23.177  0.00  0.00    +0.150 C 
ATOM     29  O   UNL     1       8.779   0.792  23.425  0.00  0.00    -0.334 OA
ATOM     30  C   UNL     1       8.074  -0.060  24.352  0.00  0.00    +0.340 C 
ATOM     31  C   UNL     1       8.425  -1.599  24.172  0.00  0.00    +0.221 C 
ATOM     32  C   UNL     1       9.927  -1.827  23.843  0.00  0.00    +0.180 C 
ATOM     33  C   UNL     1      10.400  -0.883  22.735  0.00  0.00    +0.174 C 
BRANCH  32  34
ATOM     34  O   UNL     1      10.157  -3.182  23.408  0.00  0.00    -0.386 OA
ATOM     35  H   UNL     1      10.076  -3.143  22.433  0.00  0.00    +0.210 HD
ENDBRANCH  32  34
BRANCH  33  36
ATOM     36  O   UNL     1       9.677  -1.154  21.521  0.00  0.00    -0.387 OA
ATOM     37  H   UNL     1       8.827  -0.672  21.578  0.00  0.00    +0.210 HD
ENDBRANCH  33  36
BRANCH  31  38
ATOM     38  O   UNL     1       7.723  -2.266  23.096  0.00  0.00    -0.337 OA
BRANCH  38  39
ATOM     39  C   UNL     1       6.584  -3.035  23.496  0.00  0.00    +0.282 C 
ATOM     40  O   UNL     1       6.867  -4.158  24.335  0.00  0.00    -0.346 OA
ATOM     41  C   UNL     1       7.633  -5.204  23.737  0.00  0.00    +0.197 C 
ATOM     42  C   UNL     1       6.988  -5.756  22.471  0.00  0.00    +0.171 C 
ATOM     43  C   UNL     1       6.635  -4.615  21.514  0.00  0.00    +0.178 C 
ATOM     44  C   UNL     1       5.832  -3.510  22.228  0.00  0.00    +0.201 C 
BRANCH  42  45
ATOM     45  O   UNL     1       5.786  -6.469  22.825  0.00  0.00    -0.387 OA
ATOM     46  H   UNL     1       5.758  -6.475  23.801  0.00  0.00    +0.210 HD
ENDBRANCH  42  45
BRANCH  43  47
ATOM     47  O   UNL     1       5.868  -5.163  20.429  0.00  0.00    -0.386 OA
ATOM     48  H   UNL     1       6.281  -6.030  20.242  0.00  0.00    +0.210 HD
ENDBRANCH  43  47
BRANCH  44  49
ATOM     49  O   UNL     1       4.530  -4.030  22.562  0.00  0.00    -0.384 OA
ATOM     50  H   UNL     1       3.899  -3.589  21.951  0.00  0.00    +0.210 HD
ENDBRANCH  44  49
ENDBRANCH  38  39
ENDBRANCH  31  38
ENDBRANCH   1  30
TORSDOF 14
ENDMDL
MODEL 2
REMARK VINA RESULT:      -7.6      2.142      6.645
REMARK  Name = 
REMARK  15 active torsions:
REMARK  status: ('A' for Active; 'I' for Inactive)
REMARK    1  A    between atoms: C_1  and  C_2
REMARK    2  A    between atoms: C_3  and  O_47
REMARK    3  A    between atoms: C_5  and  O_46
REMARK    4  A    between atoms: C_6  and  O_33
REMARK    5  A    between atoms: C_8  and  O_11
REMARK    6  A    between atoms: O_11  and  C_12
REMARK    7  A    between atoms: C_13  and  C_25
REMARK    8  A    between atoms: C_17  and  O_24
REMARK    9  A    between atoms: C_19  and  O_23
REMARK   10  A    between atoms: C_27  and  O_32
REMARK   11  A    between atoms: C_28  and  O_31
REMARK   12  A    between atoms: O_33  and  C_34
REMARK   13  A    between atoms: C_36  and  O_45
REMARK   14  A    between atoms: C_38  and  O_44
REMARK   15  A    between atoms: C_39  and  O_43
REMARK                            x       y       z     vdW  Elec       q    Type
REMARK                         _______ _______ _______ _____ _____    ______ ____
ROOT
ATOM      1  O   UNL     1       6.408  -0.802  22.955  0.00  0.00    -0.453 OA
ENDROOT
BRANCH   1   2
ATOM      2  C   UNL     1       6.017  -1.886  23.744  0.00  0.00    +0.214 A 
ATOM      3  C   UNL     1       5.545  -3.138  23.044  0.00  0.00    +0.238 A 
ATOM      4  O   UNL     1       5.441  -3.167  21.824  0.00  0.00    -0.283 OA
ATOM      5  C   UNL     1       5.195  -4.318  23.862  0.00  0.00    +0.109 A 
ATOM      6  C   UNL     1       5.168  -4.148  25.235  0.00  0.00    +0.147 A 
ATOM      7  C   UNL     1       4.836  -5.201  26.098  0.00  0.00    +0.092 A 
ATOM      8  C   UNL     1       4.545  -6.446  25.566  0.00  0.00    +0.124 A 
ATOM      9  C   UNL     1       4.562  -6.646  24.191  0.00  0.00    +0.091 A 
ATOM     10  O   UNL     1       5.456  -2.965  25.835  0.00  0.00    -0.451 OA
ATOM     11  C   UNL     1       4.886  -5.583  23.339  0.00  0.00    +0.135 A 
ATOM     12  C   UNL     1       5.900  -1.858  25.107  0.00  0.00    +0.181 A 
BRANCH  12  13
ATOM     13  C   UNL     1       6.129  -0.740  26.103  0.00  0.00    +0.025 A 
ATOM     14  C   UNL     1       7.336  -0.746  26.865  0.00  0.00    +0.015 A 
ATOM     15  C   UNL     1       7.710   0.286  27.738  0.00  0.00    +0.050 A 
ATOM     16  C   UNL     1       6.890   1.385  27.868  0.00  0.00    +0.158 A 
ATOM     17  C   UNL     1       5.696   1.426  27.141  0.00  0.00    +0.159 A 
ATOM     18  C   UNL     1       5.318   0.387  26.262  0.00  0.00    +0.060 A 
BRANCH  16  19
ATOM     19  O   UNL     1       7.290   2.398  28.687  0.00  0.00    -0.503 OA
ATOM     20  H   UNL     1       8.194   2.646  28.421  0.00  0.00    +0.292 HD
ENDBRANCH  16  19
BRANCH  17  21
ATOM     21  O   UNL     1       4.891   2.531  27.264  0.00  0.00    -0.503 OA
ATOM     22  H   UNL     1       4.802   2.891  26.363  0.00  0.00    +0.292 HD
ENDBRANCH  17  21
ENDBRANCH  12  13
BRANCH   8  23
ATOM     23  O   UNL     1       4.246  -7.512  26.361  0.00  0.00    -0.507 OA
ATOM     24  H   UNL     1       3.658  -8.120  25.880  0.00  0.00    +0.292 HD
ENDBRANCH   8  23
BRANCH  11  25
ATOM     25  O   UNL     1       4.904  -5.817  21.992  0.00  0.00    -0.506 OA
ATOM     26  H   UNL     1       5.765  -6.182  21.731  0.00  0.00    +0.292 HD
ENDBRANCH  11  25
ENDBRANCH   1   2
BRANCH   1  30
ATOM     27  C   UNL     1      10.793  -1.783  22.662  0.00  0.00    +0.041 C 
ATOM     28  C   UNL     1      10.001  -0.903  23.635  0.00  0.00    +0.150 C 
ATOM     29  O   UNL     1       8.591  -1.144  23.627  0.00  0.00    -0.334 OA
ATOM     30  C   UNL     1       7.804  -0.692  22.505  0.00  0.00    +0.340 C 
ATOM     31  C   UNL     1       8.189   0.773  22.026  0.00  0.00    +0.221 C 
ATOM     32  C   UNL     1       9.720   1.035  22.101  0.00  0.00    +0.180 C 
ATOM     33  C   UNL     1      10.293   0.582  23.446  0.00  0.00    +0.174 C 
BRANCH  32  34
ATOM     34  O   UNL     1      10.008   2.438  21.939  0.00  0.00    -0.386 OA
ATOM     35  H   UNL     1       9.136   2.878  22.011  0.00  0.00    +0.210 HD
ENDBRANCH  32  34
BRANCH  33  36
ATOM     36  O   UNL     1       9.702   1.346  24.512  0.00  0.00    -0.387 OA
ATOM     37  H   UNL     1       8.774   1.528  24.256  0.00  0.00    +0.210 HD
ENDBRANCH  33  36
BRANCH  31  38
ATOM     38  O   UNL     1       7.608   1.845  22.807  0.00  0.00    -0.337 OA
BRANCH  38  39
ATOM     39  C   UNL     1       6.783   2.756  22.073  0.00  0.00    +0.282 C 
ATOM     40  O   UNL     1       7.354   4.046  21.837  0.00  0.00    -0.346 OA
ATOM     41  C   UNL     1       7.581   4.848  22.997  0.00  0.00    +0.197 C 
ATOM     42  C   UNL     1       6.314   5.074  23.813  0.00  0.00    +0.171 C 
ATOM     43  C   UNL     1       5.623   3.739  24.102  0.00  0.00    +0.178 C 
ATOM     44  C   UNL     1       5.433   2.914  22.815  0.00  0.00    +0.201 C 
BRANCH  42  45
ATOM     45  O   UNL     1       5.417   5.922  23.068  0.00  0.00    -0.387 OA
ATOM     46  H   UNL     1       4.981   5.341  22.416  0.00  0.00    +0.210 HD
ENDBRANCH  42  45
BRANCH  43  47
ATOM     47  O   UNL     1       4.348   4.016  24.706  0.00  0.00    -0.386 OA
ATOM     48  H   UNL     1       4.195   4.969  24.541  0.00  0.00    +0.210 HD
ENDBRANCH  43  47
BRANCH  44  49
ATOM     49  O   UNL     1       4.459   3.576  21.982  0.00  0.00    -0.384 OA
ATOM     50  H   UNL     1       4.518   4.531  22.208  0.00  0.00    +0.210 HD
ENDBRANCH  44  49
ENDBRANCH  38  39
ENDBRANCH  31  38
ENDBRANCH   1  30
TORSDOF 14
ENDMDL
MODEL 3
REMARK VINA RESULT:      -7.5      2.801      7.578
REMARK  Name = 
REMARK  15 active torsions:
REMARK  status: ('A' for Active; 'I' for Inactive)
REMARK    1  A    between atoms: C_1  and  C_2
REMARK    2  A    between atoms: C_3  and  O_47
REMARK    3  A    between atoms: C_5  and  O_46
REMARK    4  A    between atoms: C_6  and  O_33
REMARK    5  A    between atoms: C_8  and  O_11
REMARK    6  A    between atoms: O_11  and  C_12
REMARK    7  A    between atoms: C_13  and  C_25
REMARK    8  A    between atoms: C_17  and  O_24
REMARK    9  A    between atoms: C_19  and  O_23
REMARK   10  A    between atoms: C_27  and  O_32
REMARK   11  A    between atoms: C_28  and  O_31
REMARK   12  A    between atoms: O_33  and  C_34
REMARK   13  A    between atoms: C_36  and  O_45
REMARK   14  A    between atoms: C_38  and  O_44
REMARK   15  A    between atoms: C_39  and  O_43
REMARK                            x       y       z     vdW  Elec       q    Type
REMARK                         _______ _______ _______ _____ _____    ______ ____
ROOT
ATOM      1  O   UNL     1       5.891  -1.516  26.404  0.00  0.00    -0.453 OA
ENDROOT
BRANCH   1   2
ATOM      2  C   UNL     1       6.684  -0.957  25.398  0.00  0.00    +0.214 A 
ATOM      3  C   UNL     1       7.138   0.473  25.567  0.00  0.00    +0.238 A 
ATOM      4  O   UNL     1       6.757   1.139  26.522  0.00  0.00    -0.283 OA
ATOM      5  C   UNL     1       8.033   1.057  24.546  0.00  0.00    +0.109 A 
ATOM      6  C   UNL     1       8.272   0.303  23.411  0.00  0.00    +0.147 A 
ATOM      7  C   UNL     1       9.096   0.772  22.380  0.00  0.00    +0.092 A 
ATOM      8  C   UNL     1       9.702   2.011  22.506  0.00  0.00    +0.124 A 
ATOM      9  C   UNL     1       9.479   2.791  23.635  0.00  0.00    +0.091 A 
ATOM     10  O   UNL     1       7.731  -0.926  23.218  0.00  0.00    -0.451 OA
ATOM     11  C   UNL     1       8.646   2.315  24.654  0.00  0.00    +0.135 A 
ATOM     12  C   UNL     1       6.970  -1.560  24.204  0.00  0.00    +0.181 A 
BRANCH  12  13
ATOM     13  C   UNL     1       6.551  -2.903  23.641  0.00  0.00    +0.025 A 
ATOM     14  C   UNL     1       7.552  -3.903  23.454  0.00  0.00    +0.015 A 
ATOM     15  C   UNL     1       7.274  -5.215  23.042  0.00  0.00    +0.050 A 
ATOM     16  C   UNL     1       5.966  -5.584  22.818  0.00  0.00    +0.158 A 
ATOM     17  C   UNL     1       4.957  -4.631  22.988  0.00  0.00    +0.159 A 
ATOM     18  C   UNL     1       5.236  -3.310  23.402  0.00  0.00    +0.060 A 
BRANCH  16  19
ATOM     19  O   UNL     1       5.710  -6.874  22.461  0.00  0.00    -0.503 OA
ATOM     20  H   UNL     1       4.756  -7.025  22.587  0.00  0.00    +0.292 HD
ENDBRANCH  16  19
BRANCH  17  21
ATOM     21  O   UNL     1       3.655  -5.011  22.777  0.00  0.00    -0.503 OA
ATOM     22  H   UNL     1       3.552  -5.862  23.241  0.00  0.00    +0.292 HD
ENDBRANCH  17  21
ENDBRANCH  12  13
BRANCH   8  23
ATOM     23  O   UNL     1      10.537   2.501  21.547  0.00  0.00    -0.507 OA
ATOM     24  H   UNL     1      11.137   1.795  21.249  0.00  0.00    +0.292 HD
ENDBRANCH   8  23
BRANCH  11  25
ATOM     25  O   UNL     1       8.457   3.104  25.755  0.00  0.00    -0.506 OA
ATOM     26  H   UNL     1       8.524   2.568  26.562  0.00  0.00    +0.292 HD
ENDBRANCH  11  25
ENDBRANCH   1   2
BRANCH   1  30
ATOM     27  C   UNL     1       2.131   0.868  27.084  0.00  0.00    +0.041 C 
ATOM     28  C   UNL     1       2.987   0.012  28.023  0.00  0.00    +0.150 C 
ATOM     29  O   UNL     1       4.297  -0.274  27.523  0.00  0.00    -0.334 OA
ATOM     30  C   UNL     1       4.450  -1.221  26.446  0.00  0.00    +0.340 C 
ATOM     31  C   UNL     1       3.555  -2.520  26.627  0.00  0.00    +0.221 C 
ATOM     32  C   UNL     1       2.159  -2.196  27.229  0.00  0.00    +0.180 C 
ATOM     33  C   UNL     1       2.281  -1.274  28.444  0.00  0.00    +0.174 C 
BRANCH  32  34
ATOM     34  O   UNL     1       1.487  -3.402  27.645  0.00  0.00    -0.386 OA
ATOM     35  H   UNL     1       0.549  -3.254  27.407  0.00  0.00    +0.210 HD
ENDBRANCH  32  34
BRANCH  33  36
ATOM     36  O   UNL     1       3.023  -1.933  29.485  0.00  0.00    -0.387 OA
ATOM     37  H   UNL     1       3.913  -2.128  29.125  0.00  0.00    +0.210 HD
ENDBRANCH  33  36
BRANCH  31  38
ATOM     38  O   UNL     1       4.101  -3.520  27.521  0.00  0.00    -0.337 OA
BRANCH  38  39
ATOM     39  C   UNL     1       4.113  -4.856  27.007  0.00  0.00    +0.282 C 
ATOM     40  O   UNL     1       3.450  -5.830  27.817  0.00  0.00    -0.346 OA
ATOM     41  C   UNL     1       4.041  -6.085  29.092  0.00  0.00    +0.197 C 
ATOM     42  C   UNL     1       5.498  -6.521  28.990  0.00  0.00    +0.171 C 
ATOM     43  C   UNL     1       6.286  -5.538  28.121  0.00  0.00    +0.178 C 
ATOM     44  C   UNL     1       5.582  -5.287  26.773  0.00  0.00    +0.201 C 
BRANCH  42  45
ATOM     45  O   UNL     1       5.558  -7.833  28.396  0.00  0.00    -0.387 OA
ATOM     46  H   UNL     1       4.641  -8.169  28.399  0.00  0.00    +0.210 HD
ENDBRANCH  42  45
BRANCH  43  47
ATOM     47  O   UNL     1       7.597  -6.086  27.901  0.00  0.00    -0.386 OA
ATOM     48  H   UNL     1       7.797  -5.888  26.964  0.00  0.00    +0.210 HD
ENDBRANCH  43  47
BRANCH  44  49
ATOM     49  O   UNL     1       5.648  -6.495  25.988  0.00  0.00    -0.384 OA
ATOM     50  H   UNL     1       6.160  -6.264  25.182  0.00  0.00    +0.210 HD
ENDBRANCH  44  49
ENDBRANCH  38  39
ENDBRANCH  31  38
ENDBRANCH   1  30
TORSDOF 14
ENDMDL
MODEL 4
REMARK VINA RESULT:      -7.2      1.827      4.623
REMARK  Name = 
REMARK  15 active torsions:
REMARK  status: ('A' for Active; 'I' for Inactive)
REMARK    1  A    between atoms: C_1  and  C_2
REMARK    2  A    between atoms: C_3  and  O_47
REMARK    3  A    between atoms: C_5  and  O_46
REMARK    4  A    between atoms: C_6  and  O_33
REMARK    5  A    between atoms: C_8  and  O_11
REMARK    6  A    between atoms: O_11  and  C_12
REMARK    7  A    between atoms: C_13  and  C_25
REMARK    8  A    between atoms: C_17  and  O_24
REMARK    9  A    between atoms: C_19  and  O_23
REMARK   10  A    between atoms: C_27  and  O_32
REMARK   11  A    between atoms: C_28  and  O_31
REMARK   12  A    between atoms: O_33  and  C_34
REMARK   13  A    between atoms: C_36  and  O_45
REMARK   14  A    between atoms: C_38  and  O_44
REMARK   15  A    between atoms: C_39  and  O_43
REMARK                            x       y       z     vdW  Elec       q    Type
REMARK                         _______ _______ _______ _____ _____    ______ ____
ROOT
ATOM      1  O   UNL     1       6.705   0.390  23.371  0.00  0.00    -0.453 OA
ENDROOT
BRANCH   1   2
ATOM      2  C   UNL     1       5.973   1.437  23.935  0.00  0.00    +0.214 A 
ATOM      3  C   UNL     1       6.069   2.798  23.287  0.00  0.00    +0.238 A 
ATOM      4  O   UNL     1       6.826   2.985  22.341  0.00  0.00    -0.283 OA
ATOM      5  C   UNL     1       5.249   3.901  23.829  0.00  0.00    +0.109 A 
ATOM      6  C   UNL     1       4.560   3.656  25.004  0.00  0.00    +0.147 A 
ATOM      7  C   UNL     1       3.763   4.639  25.606  0.00  0.00    +0.092 A 
ATOM      8  C   UNL     1       3.648   5.880  25.002  0.00  0.00    +0.124 A 
ATOM      9  C   UNL     1       4.329   6.155  23.823  0.00  0.00    +0.091 A 
ATOM     10  O   UNL     1       4.607   2.462  25.649  0.00  0.00    -0.451 OA
ATOM     11  C   UNL     1       5.130   5.168  23.237  0.00  0.00    +0.135 A 
ATOM     12  C   UNL     1       5.280   1.361  25.112  0.00  0.00    +0.181 A 
BRANCH  12  13
ATOM     13  C   UNL     1       5.106   0.219  26.093  0.00  0.00    +0.025 A 
ATOM     14  C   UNL     1       4.873   0.532  27.465  0.00  0.00    +0.015 A 
ATOM     15  C   UNL     1       4.593  -0.431  28.446  0.00  0.00    +0.050 A 
ATOM     16  C   UNL     1       4.515  -1.757  28.081  0.00  0.00    +0.158 A 
ATOM     17  C   UNL     1       4.741  -2.104  26.746  0.00  0.00    +0.159 A 
ATOM     18  C   UNL     1       5.024  -1.135  25.757  0.00  0.00    +0.060 A 
BRANCH  16  19
ATOM     19  O   UNL     1       4.199  -2.674  29.038  0.00  0.00    -0.503 OA
ATOM     20  H   UNL     1       4.326  -2.244  29.904  0.00  0.00    +0.292 HD
ENDBRANCH  16  19
BRANCH  17  21
ATOM     21  O   UNL     1       4.648  -3.425  26.387  0.00  0.00    -0.503 OA
ATOM     22  H   UNL     1       4.227  -3.428  25.508  0.00  0.00    +0.292 HD
ENDBRANCH  17  21
ENDBRANCH  12  13
BRANCH   8  23
ATOM     23  O   UNL     1       2.863   6.861  25.529  0.00  0.00    -0.507 OA
ATOM     24  H   UNL     1       3.252   7.730  25.328  0.00  0.00    +0.292 HD
ENDBRANCH   8  23
BRANCH  11  25
ATOM     25  O   UNL     1       5.778   5.469  22.071  0.00  0.00    -0.506 OA
ATOM     26  H   UNL     1       5.299   5.087  21.318  0.00  0.00    +0.292 HD
ENDBRANCH  11  25
ENDBRANCH   1   2
BRANCH   1  30
ATOM     27  C   UNL     1      11.094   0.874  24.252  0.00  0.00    +0.041 C 
ATOM     28  C   UNL     1      10.348   0.296  23.045  0.00  0.00    +0.150 C 
ATOM     29  O   UNL     1       8.965   0.661  22.983  0.00  0.00    -0.334 OA
ATOM     30  C   UNL     1       8.035   0.058  23.905  0.00  0.00    +0.340 C 
ATOM     31  C   UNL     1       8.260  -1.504  24.085  0.00  0.00    +0.221 C 
ATOM     32  C   UNL     1       9.767  -1.886  24.088  0.00  0.00    +0.180 C 
ATOM     33  C   UNL     1      10.510  -1.217  22.930  0.00  0.00    +0.174 C 
BRANCH  32  34
ATOM     34  O   UNL     1       9.934  -3.313  23.965  0.00  0.00    -0.386 OA
ATOM     35  H   UNL     1      10.554  -3.550  24.685  0.00  0.00    +0.210 HD
ENDBRANCH  32  34
BRANCH  33  36
ATOM     36  O   UNL     1       9.980  -1.681  21.676  0.00  0.00    -0.387 OA
ATOM     37  H   UNL     1       9.047  -1.386  21.630  0.00  0.00    +0.210 HD
ENDBRANCH  33  36
BRANCH  31  38
ATOM     38  O   UNL     1       7.688  -2.329  23.042  0.00  0.00    -0.337 OA
BRANCH  38  39
ATOM     39  C   UNL     1       6.547  -3.100  23.431  0.00  0.00    +0.282 C 
ATOM     40  O   UNL     1       6.822  -4.216  24.282  0.00  0.00    -0.346 OA
ATOM     41  C   UNL     1       7.602  -5.263  23.703  0.00  0.00    +0.197 C 
ATOM     42  C   UNL     1       6.978  -5.827  22.432  0.00  0.00    +0.171 C 
ATOM     43  C   UNL     1       6.634  -4.696  21.462  0.00  0.00    +0.178 C 
ATOM     44  C   UNL     1       5.816  -3.588  22.155  0.00  0.00    +0.201 C 
BRANCH  42  45
ATOM     45  O   UNL     1       5.774  -6.543  22.774  0.00  0.00    -0.387 OA
ATOM     46  H   UNL     1       5.974  -7.487  22.625  0.00  0.00    +0.210 HD
ENDBRANCH  42  45
BRANCH  43  47
ATOM     47  O   UNL     1       5.885  -5.254  20.369  0.00  0.00    -0.386 OA
ATOM     48  H   UNL     1       5.009  -5.466  20.749  0.00  0.00    +0.210 HD
ENDBRANCH  43  47
BRANCH  44  49
ATOM     49  O   UNL     1       4.511  -4.111  22.475  0.00  0.00    -0.384 OA
ATOM     50  H   UNL     1       4.589  -5.088  22.408  0.00  0.00    +0.210 HD
ENDBRANCH  44  49
ENDBRANCH  38  39
ENDBRANCH  31  38
ENDBRANCH   1  30
TORSDOF 14
ENDMDL
MODEL 5
REMARK VINA RESULT:      -7.1      2.491      6.764
REMARK  Name = 
REMARK  15 active torsions:
REMARK  status: ('A' for Active; 'I' for Inactive)
REMARK    1  A    between atoms: C_1  and  C_2
REMARK    2  A    between atoms: C_3  and  O_47
REMARK    3  A    between atoms: C_5  and  O_46
REMARK    4  A    between atoms: C_6  and  O_33
REMARK    5  A    between atoms: C_8  and  O_11
REMARK    6  A    between atoms: O_11  and  C_12
REMARK    7  A    between atoms: C_13  and  C_25
REMARK    8  A    between atoms: C_17  and  O_24
REMARK    9  A    between atoms: C_19  and  O_23
REMARK   10  A    between atoms: C_27  and  O_32
REMARK   11  A    between atoms: C_28  and  O_31
REMARK   12  A    between atoms: O_33  and  C_34
REMARK   13  A    between atoms: C_36  and  O_45
REMARK   14  A    between atoms: C_38  and  O_44
REMARK   15  A    between atoms: C_39  and  O_43
REMARK                            x       y       z     vdW  Elec       q    Type
REMARK                         _______ _______ _______ _____ _____    ______ ____
ROOT
ATOM      1  O   UNL     1       5.126  -1.374  24.893  0.00  0.00    -0.453 OA
ENDROOT
BRANCH   1   2
ATOM      2  C   UNL     1       6.265  -0.589  24.701  0.00  0.00    +0.214 A 
ATOM      3  C   UNL     1       6.071   0.872  24.370  0.00  0.00    +0.238 A 
ATOM      4  O   UNL     1       4.946   1.328  24.205  0.00  0.00    -0.283 OA
ATOM      5  C   UNL     1       7.265   1.731  24.231  0.00  0.00    +0.109 A 
ATOM      6  C   UNL     1       8.499   1.106  24.255  0.00  0.00    +0.147 A 
ATOM      7  C   UNL     1       9.691   1.830  24.120  0.00  0.00    +0.092 A 
ATOM      8  C   UNL     1       9.635   3.206  23.976  0.00  0.00    +0.124 A 
ATOM      9  C   UNL     1       8.410   3.861  23.947  0.00  0.00    +0.091 A 
ATOM     10  O   UNL     1       8.641  -0.235  24.408  0.00  0.00    -0.451 OA
ATOM     11  C   UNL     1       7.225   3.125  24.074  0.00  0.00    +0.135 A 
ATOM     12  C   UNL     1       7.546  -1.069  24.654  0.00  0.00    +0.181 A 
BRANCH  12  13
ATOM     13  C   UNL     1       8.086  -2.479  24.779  0.00  0.00    +0.025 A 
ATOM     14  C   UNL     1       8.639  -2.885  26.030  0.00  0.00    +0.015 A 
ATOM     15  C   UNL     1       9.073  -4.192  26.301  0.00  0.00    +0.050 A 
ATOM     16  C   UNL     1       8.949  -5.155  25.325  0.00  0.00    +0.158 A 
ATOM     17  C   UNL     1       8.414  -4.795  24.084  0.00  0.00    +0.159 A 
ATOM     18  C   UNL     1       7.978  -3.480  23.810  0.00  0.00    +0.060 A 
BRANCH  16  19
ATOM     19  O   UNL     1       9.334  -6.429  25.620  0.00  0.00    -0.503 OA
ATOM     20  H   UNL     1       9.750  -6.798  24.820  0.00  0.00    +0.292 HD
ENDBRANCH  16  19
BRANCH  17  21
ATOM     21  O   UNL     1       8.279  -5.764  23.122  0.00  0.00    -0.503 OA
ATOM     22  H   UNL     1       9.163  -6.164  23.028  0.00  0.00    +0.292 HD
ENDBRANCH  17  21
ENDBRANCH  12  13
BRANCH   8  23
ATOM     23  O   UNL     1      10.764   3.961  23.871  0.00  0.00    -0.507 OA
ATOM     24  H   UNL     1      11.026   4.023  22.936  0.00  0.00    +0.292 HD
ENDBRANCH   8  23
BRANCH  11  25
ATOM     25  O   UNL     1       6.038   3.803  24.051  0.00  0.00    -0.506 OA
ATOM     26  H   UNL     1       5.907   4.212  23.180  0.00  0.00    +0.292 HD
ENDBRANCH  11  25
ENDBRANCH   1   2
BRANCH   1  30
ATOM     27  C   UNL     1       4.079   0.019  29.045  0.00  0.00    +0.041 C 
ATOM     28  C   UNL     1       4.866  -1.193  28.539  0.00  0.00    +0.150 C 
ATOM     29  O   UNL     1       5.297  -1.084  27.178  0.00  0.00    -0.334 OA
ATOM     30  C   UNL     1       4.327  -1.212  26.118  0.00  0.00    +0.340 C 
ATOM     31  C   UNL     1       3.302  -2.403  26.354  0.00  0.00    +0.221 C 
ATOM     32  C   UNL     1       2.894  -2.544  27.847  0.00  0.00    +0.180 C 
ATOM     33  C   UNL     1       4.121  -2.506  28.762  0.00  0.00    +0.174 C 
BRANCH  32  34
ATOM     34  O   UNL     1       2.202  -3.788  28.074  0.00  0.00    -0.386 OA
ATOM     35  H   UNL     1       2.752  -4.460  27.623  0.00  0.00    +0.210 HD
ENDBRANCH  32  34
BRANCH  33  36
ATOM     36  O   UNL     1       4.980  -3.623  28.473  0.00  0.00    -0.387 OA
ATOM     37  H   UNL     1       5.589  -3.722  29.234  0.00  0.00    +0.210 HD
ENDBRANCH  33  36
BRANCH  31  38
ATOM     38  O   UNL     1       3.797  -3.716  25.997  0.00  0.00    -0.337 OA
BRANCH  38  39
ATOM     39  C   UNL     1       2.953  -4.468  25.118  0.00  0.00    +0.282 C 
ATOM     40  O   UNL     1       2.345  -5.626  25.695  0.00  0.00    -0.346 OA
ATOM     41  C   UNL     1       3.239  -6.672  26.080  0.00  0.00    +0.197 C 
ATOM     42  C   UNL     1       4.105  -7.161  24.926  0.00  0.00    +0.171 C 
ATOM     43  C   UNL     1       4.788  -5.979  24.235  0.00  0.00    +0.178 C 
ATOM     44  C   UNL     1       3.773  -4.878  23.870  0.00  0.00    +0.201 C 
BRANCH  42  45
ATOM     45  O   UNL     1       3.274  -7.853  23.973  0.00  0.00    -0.387 OA
ATOM     46  H   UNL     1       2.365  -7.534  24.130  0.00  0.00    +0.210 HD
ENDBRANCH  42  45
BRANCH  43  47
ATOM     47  O   UNL     1       5.438  -6.467  23.049  0.00  0.00    -0.386 OA
ATOM     48  H   UNL     1       6.332  -6.732  23.345  0.00  0.00    +0.210 HD
ENDBRANCH  43  47
BRANCH  44  49
ATOM     49  O   UNL     1       2.911  -5.373  22.825  0.00  0.00    -0.384 OA
ATOM     50  H   UNL     1       3.295  -6.233  22.545  0.00  0.00    +0.210 HD
ENDBRANCH  44  49
ENDBRANCH  38  39
ENDBRANCH  31  38
ENDBRANCH   1  30
TORSDOF 14
ENDMDL
MODEL 6
REMARK VINA RESULT:      -7.0      1.889      6.613
REMARK  Name = 
REMARK  15 active torsions:
REMARK  status: ('A' for Active; 'I' for Inactive)
REMARK    1  A    between atoms: C_1  and  C_2
REMARK    2  A    between atoms: C_3  and  O_47
REMARK    3  A    between atoms: C_5  and  O_46
REMARK    4  A    between atoms: C_6  and  O_33
REMARK    5  A    between atoms: C_8  and  O_11
REMARK    6  A    between atoms: O_11  and  C_12
REMARK    7  A    between atoms: C_13  and  C_25
REMARK    8  A    between atoms: C_17  and  O_24
REMARK    9  A    between atoms: C_19  and  O_23
REMARK   10  A    between atoms: C_27  and  O_32
REMARK   11  A    between atoms: C_28  and  O_31
REMARK   12  A    between atoms: O_33  and  C_34
REMARK   13  A    between atoms: C_36  and  O_45
REMARK   14  A    between atoms: C_38  and  O_44
REMARK   15  A    between atoms: C_39  and  O_43
REMARK                            x       y       z     vdW  Elec       q    Type
REMARK                         _______ _______ _______ _____ _____    ______ ____
ROOT
ATOM      1  O   UNL     1       6.282   0.326  23.860  0.00  0.00    -0.453 OA
ENDROOT
BRANCH   1   2
ATOM      2  C   UNL     1       5.810  -0.442  24.927  0.00  0.00    +0.214 A 
ATOM      3  C   UNL     1       5.422   0.275  26.199  0.00  0.00    +0.238 A 
ATOM      4  O   UNL     1       5.589   1.484  26.307  0.00  0.00    -0.283 OA
ATOM      5  C   UNL     1       4.856  -0.514  27.313  0.00  0.00    +0.109 A 
ATOM      6  C   UNL     1       4.866  -1.891  27.179  0.00  0.00    +0.147 A 
ATOM      7  C   UNL     1       4.363  -2.728  28.184  0.00  0.00    +0.092 A 
ATOM      8  C   UNL     1       3.828  -2.166  29.330  0.00  0.00    +0.124 A 
ATOM      9  C   UNL     1       3.807  -0.786  29.492  0.00  0.00    +0.091 A 
ATOM     10  O   UNL     1       5.357  -2.520  26.081  0.00  0.00    -0.451 OA
ATOM     11  C   UNL     1       4.320   0.040  28.486  0.00  0.00    +0.135 A 
ATOM     12  C   UNL     1       5.798  -1.810  24.961  0.00  0.00    +0.181 A 
BRANCH  12  13
ATOM     13  C   UNL     1       6.258  -2.835  23.944  0.00  0.00    +0.025 A 
ATOM     14  C   UNL     1       7.156  -3.858  24.370  0.00  0.00    +0.015 A 
ATOM     15  C   UNL     1       7.569  -4.921  23.552  0.00  0.00    +0.050 A 
ATOM     16  C   UNL     1       7.077  -5.010  22.269  0.00  0.00    +0.158 A 
ATOM     17  C   UNL     1       6.196  -4.024  21.813  0.00  0.00    +0.159 A 
ATOM     18  C   UNL     1       5.780  -2.953  22.636  0.00  0.00    +0.060 A 
BRANCH  16  19
ATOM     19  O   UNL     1       7.454  -6.072  21.503  0.00  0.00    -0.503 OA
ATOM     20  H   UNL     1       8.133  -6.562  22.002  0.00  0.00    +0.292 HD
ENDBRANCH  16  19
BRANCH  17  21
ATOM     21  O   UNL     1       5.698  -4.127  20.539  0.00  0.00    -0.503 OA
ATOM     22  H   UNL     1       5.651  -5.083  20.353  0.00  0.00    +0.292 HD
ENDBRANCH  17  21
ENDBRANCH  12  13
BRANCH   8  23
ATOM     23  O   UNL     1       3.299  -2.933  30.324  0.00  0.00    -0.507 OA
ATOM     24  H   UNL     1       3.492  -2.524  31.186  0.00  0.00    +0.292 HD
ENDBRANCH   8  23
BRANCH  11  25
ATOM     25  O   UNL     1       4.274   1.394  28.674  0.00  0.00    -0.506 OA
ATOM     26  H   UNL     1       3.640   1.608  29.378  0.00  0.00    +0.292 HD
ENDBRANCH  11  25
ENDBRANCH   1   2
BRANCH   1  30
ATOM     27  C   UNL     1      10.244  -1.737  23.292  0.00  0.00    +0.041 C 
ATOM     28  C   UNL     1       9.843  -0.484  24.077  0.00  0.00    +0.150 C 
ATOM     29  O   UNL     1       8.437  -0.368  24.315  0.00  0.00    -0.334 OA
ATOM     30  C   UNL     1       7.562  -0.020  23.223  0.00  0.00    +0.340 C 
ATOM     31  C   UNL     1       8.138   1.147  22.311  0.00  0.00    +0.221 C 
ATOM     32  C   UNL     1       9.676   1.038  22.115  0.00  0.00    +0.180 C 
ATOM     33  C   UNL     1      10.388   0.795  23.447  0.00  0.00    +0.174 C 
BRANCH  32  34
ATOM     34  O   UNL     1      10.205   2.247  21.535  0.00  0.00    -0.386 OA
ATOM     35  H   UNL     1       9.439   2.661  21.088  0.00  0.00    +0.210 HD
ENDBRANCH  32  34
BRANCH  33  36
ATOM     36  O   UNL     1      10.174   1.914  24.326  0.00  0.00    -0.387 OA
ATOM     37  H   UNL     1       9.327   1.756  24.793  0.00  0.00    +0.210 HD
ENDBRANCH  33  36
BRANCH  31  38
ATOM     38  O   UNL     1       7.942   2.484  22.832  0.00  0.00    -0.337 OA
BRANCH  38  39
ATOM     39  C   UNL     1       7.006   3.289  22.109  0.00  0.00    +0.282 C 
ATOM     40  O   UNL     1       7.375   4.661  21.948  0.00  0.00    -0.346 OA
ATOM     41  C   UNL     1       7.440   5.433  23.148  0.00  0.00    +0.197 C 
ATOM     42  C   UNL     1       6.130   5.422  23.927  0.00  0.00    +0.171 C 
ATOM     43  C   UNL     1       5.648   3.984  24.134  0.00  0.00    +0.178 C 
ATOM     44  C   UNL     1       5.627   3.201  22.807  0.00  0.00    +0.201 C 
BRANCH  42  45
ATOM     45  O   UNL     1       5.134   6.155  23.187  0.00  0.00    -0.387 OA
ATOM     46  H   UNL     1       5.503   7.050  23.058  0.00  0.00    +0.210 HD
ENDBRANCH  42  45
BRANCH  43  47
ATOM     47  O   UNL     1       4.329   4.032  24.703  0.00  0.00    -0.386 OA
ATOM     48  H   UNL     1       3.746   4.290  23.961  0.00  0.00    +0.210 HD
ENDBRANCH  43  47
BRANCH  44  49
ATOM     49  O   UNL     1       4.587   3.744  21.968  0.00  0.00    -0.384 OA
ATOM     50  H   UNL     1       3.921   4.126  22.580  0.00  0.00    +0.210 HD
ENDBRANCH  44  49
ENDBRANCH  38  39
ENDBRANCH  31  38
ENDBRANCH   1  30
TORSDOF 14
ENDMDL
MODEL 7
REMARK VINA RESULT:      -6.8      2.666      7.285
REMARK  Name = 
REMARK  15 active torsions:
REMARK  status: ('A' for Active; 'I' for Inactive)
REMARK    1  A    between atoms: C_1  and  C_2
REMARK    2  A    between atoms: C_3  and  O_47
REMARK    3  A    between atoms: C_5  and  O_46
REMARK    4  A    between atoms: C_6  and  O_33
REMARK    5  A    between atoms: C_8  and  O_11
REMARK    6  A    between atoms: O_11  and  C_12
REMARK    7  A    between atoms: C_13  and  C_25
REMARK    8  A    between atoms: C_17  and  O_24
REMARK    9  A    between atoms: C_19  and  O_23
REMARK   10  A    between atoms: C_27  and  O_32
REMARK   11  A    between atoms: C_28  and  O_31
REMARK   12  A    between atoms: O_33  and  C_34
REMARK   13  A    between atoms: C_36  and  O_45
REMARK   14  A    between atoms: C_38  and  O_44
REMARK   15  A    between atoms: C_39  and  O_43
REMARK                            x       y       z     vdW  Elec       q    Type
REMARK                         _______ _______ _______ _____ _____    ______ ____
ROOT
ATOM      1  O   UNL     1       6.290  -0.779  26.908  0.00  0.00    -0.453 OA
ENDROOT
BRANCH   1   2
ATOM      2  C   UNL     1       7.183  -0.152  26.035  0.00  0.00    +0.214 A 
ATOM      3  C   UNL     1       7.249   1.357  26.052  0.00  0.00    +0.238 A 
ATOM      4  O   UNL     1       6.488   2.005  26.760  0.00  0.00    -0.283 OA
ATOM      5  C   UNL     1       8.236   2.032  25.185  0.00  0.00    +0.109 A 
ATOM      6  C   UNL     1       8.933   1.242  24.287  0.00  0.00    +0.147 A 
ATOM      7  C   UNL     1       9.882   1.787  23.413  0.00  0.00    +0.092 A 
ATOM      8  C   UNL     1      10.144   3.146  23.460  0.00  0.00    +0.124 A 
ATOM      9  C   UNL     1       9.459   3.965  24.349  0.00  0.00    +0.091 A 
ATOM     10  O   UNL     1       8.747  -0.100  24.191  0.00  0.00    -0.451 OA
ATOM     11  C   UNL     1       8.505   3.409  25.211  0.00  0.00    +0.135 A 
ATOM     12  C   UNL     1       7.907  -0.792  25.066  0.00  0.00    +0.181 A 
BRANCH  12  13
ATOM     13  C   UNL     1       7.961  -2.252  24.665  0.00  0.00    +0.025 A 
ATOM     14  C   UNL     1       7.115  -2.697  23.606  0.00  0.00    +0.015 A 
ATOM     15  C   UNL     1       7.149  -3.995  23.075  0.00  0.00    +0.050 A 
ATOM     16  C   UNL     1       8.056  -4.901  23.578  0.00  0.00    +0.158 A 
ATOM     17  C   UNL     1       8.901  -4.504  24.619  0.00  0.00    +0.159 A 
ATOM     18  C   UNL     1       8.866  -3.197  25.155  0.00  0.00    +0.060 A 
BRANCH  16  19
ATOM     19  O   UNL     1       8.107  -6.144  23.021  0.00  0.00    -0.503 OA
ATOM     20  H   UNL     1       7.921  -6.786  23.730  0.00  0.00    +0.292 HD
ENDBRANCH  16  19
BRANCH  17  21
ATOM     21  O   UNL     1       9.813  -5.407  25.106  0.00  0.00    -0.503 OA
ATOM     22  H   UNL     1      10.651  -4.916  25.185  0.00  0.00    +0.292 HD
ENDBRANCH  17  21
ENDBRANCH  12  13
BRANCH   8  23
ATOM     23  O   UNL     1      11.078   3.723  22.653  0.00  0.00    -0.507 OA
ATOM     24  H   UNL     1      11.842   3.999  23.189  0.00  0.00    +0.292 HD
ENDBRANCH   8  23
BRANCH  11  25
ATOM     25  O   UNL     1       7.857   4.242  26.081  0.00  0.00    -0.506 OA
ATOM     26  H   UNL     1       8.330   5.088  26.142  0.00  0.00    +0.292 HD
ENDBRANCH  11  25
ENDBRANCH   1   2
BRANCH   1  30
ATOM     27  C   UNL     1       2.200   1.097  27.081  0.00  0.00    +0.041 C 
ATOM     28  C   UNL     1       2.967   0.216  28.072  0.00  0.00    +0.150 C 
ATOM     29  O   UNL     1       4.372   0.134  27.816  0.00  0.00    -0.334 OA
ATOM     30  C   UNL     1       4.841  -0.640  26.693  0.00  0.00    +0.340 C 
ATOM     31  C   UNL     1       4.098  -2.037  26.547  0.00  0.00    +0.221 C 
ATOM     32  C   UNL     1       2.585  -1.939  26.889  0.00  0.00    +0.180 C 
ATOM     33  C   UNL     1       2.362  -1.179  28.199  0.00  0.00    +0.174 C 
BRANCH  32  34
ATOM     34  O   UNL     1       2.005  -3.252  27.027  0.00  0.00    -0.386 OA
ATOM     35  H   UNL     1       1.910  -3.377  27.993  0.00  0.00    +0.210 HD
ENDBRANCH  32  34
BRANCH  33  36
ATOM     36  O   UNL     1       2.975  -1.891  29.288  0.00  0.00    -0.387 OA
ATOM     37  H   UNL     1       2.513  -2.751  29.366  0.00  0.00    +0.210 HD
ENDBRANCH  33  36
BRANCH  31  38
ATOM     38  O   UNL     1       4.590  -3.086  27.416  0.00  0.00    -0.337 OA
BRANCH  38  39
ATOM     39  C   UNL     1       4.421  -4.418  26.921  0.00  0.00    +0.282 C 
ATOM     40  O   UNL     1       3.722  -5.311  27.792  0.00  0.00    -0.346 OA
ATOM     41  C   UNL     1       4.379  -5.621  29.022  0.00  0.00    +0.197 C 
ATOM     42  C   UNL     1       5.769  -6.211  28.815  0.00  0.00    +0.171 C 
ATOM     43  C   UNL     1       6.589  -5.322  27.876  0.00  0.00    +0.178 C 
ATOM     44  C   UNL     1       5.814  -5.005  26.582  0.00  0.00    +0.201 C 
BRANCH  42  45
ATOM     45  O   UNL     1       5.644  -7.525  28.236  0.00  0.00    -0.387 OA
ATOM     46  H   UNL     1       6.555  -7.864  28.144  0.00  0.00    +0.210 HD
ENDBRANCH  42  45
BRANCH  43  47
ATOM     47  O   UNL     1       7.813  -6.008  27.565  0.00  0.00    -0.386 OA
ATOM     48  H   UNL     1       8.490  -5.578  28.125  0.00  0.00    +0.210 HD
ENDBRANCH  43  47
BRANCH  44  49
ATOM     49  O   UNL     1       5.691  -6.216  25.810  0.00  0.00    -0.384 OA
ATOM     50  H   UNL     1       5.392  -6.908  26.441  0.00  0.00    +0.210 HD
ENDBRANCH  44  49
ENDBRANCH  38  39
ENDBRANCH  31  38
ENDBRANCH   1  30
TORSDOF 14
ENDMDL
MODEL 8
REMARK VINA RESULT:      -6.8      2.604      7.445
REMARK  Name = 
REMARK  15 active torsions:
REMARK  status: ('A' for Active; 'I' for Inactive)
REMARK    1  A    between atoms: C_1  and  C_2
REMARK    2  A    between atoms: C_3  and  O_47
REMARK    3  A    between atoms: C_5  and  O_46
REMARK    4  A    between atoms: C_6  and  O_33
REMARK    5  A    between atoms: C_8  and  O_11
REMARK    6  A    between atoms: O_11  and  C_12
REMARK    7  A    between atoms: C_13  and  C_25
REMARK    8  A    between atoms: C_17  and  O_24
REMARK    9  A    between atoms: C_19  and  O_23
REMARK   10  A    between atoms: C_27  and  O_32
REMARK   11  A    between atoms: C_28  and  O_31
REMARK   12  A    between atoms: O_33  and  C_34
REMARK   13  A    between atoms: C_36  and  O_45
REMARK   14  A    between atoms: C_38  and  O_44
REMARK   15  A    between atoms: C_39  and  O_43
REMARK                            x       y       z     vdW  Elec       q    Type
REMARK                         _______ _______ _______ _____ _____    ______ ____
ROOT
ATOM      1  O   UNL     1       6.213  -1.458  26.336  0.00  0.00    -0.453 OA
ENDROOT
BRANCH   1   2
ATOM      2  C   UNL     1       6.996  -0.878  25.335  0.00  0.00    +0.214 A 
ATOM      3  C   UNL     1       7.406   0.565  25.504  0.00  0.00    +0.238 A 
ATOM      4  O   UNL     1       6.998   1.221  26.455  0.00  0.00    -0.283 OA
ATOM      5  C   UNL     1       8.291   1.174  24.489  0.00  0.00    +0.109 A 
ATOM      6  C   UNL     1       8.561   0.425  23.357  0.00  0.00    +0.147 A 
ATOM      7  C   UNL     1       9.379   0.916  22.331  0.00  0.00    +0.092 A 
ATOM      8  C   UNL     1       9.946   2.173  22.460  0.00  0.00    +0.124 A 
ATOM      9  C   UNL     1       9.692   2.948  23.585  0.00  0.00    +0.091 A 
ATOM     10  O   UNL     1       8.058  -0.820  23.162  0.00  0.00    -0.451 OA
ATOM     11  C   UNL     1       8.865   2.450  24.599  0.00  0.00    +0.135 A 
ATOM     12  C   UNL     1       7.310  -1.475  24.144  0.00  0.00    +0.181 A 
BRANCH  12  13
ATOM     13  C   UNL     1       6.935  -2.831  23.581  0.00  0.00    +0.025 A 
ATOM     14  C   UNL     1       5.690  -2.961  22.896  0.00  0.00    +0.015 A 
ATOM     15  C   UNL     1       5.281  -4.133  22.242  0.00  0.00    +0.050 A 
ATOM     16  C   UNL     1       6.121  -5.224  22.233  0.00  0.00    +0.158 A 
ATOM     17  C   UNL     1       7.349  -5.136  22.896  0.00  0.00    +0.159 A 
ATOM     18  C   UNL     1       7.762  -3.957  23.556  0.00  0.00    +0.060 A 
BRANCH  16  19
ATOM     19  O   UNL     1       5.727  -6.339  21.556  0.00  0.00    -0.503 OA
ATOM     20  H   UNL     1       6.394  -6.510  20.866  0.00  0.00    +0.292 HD
ENDBRANCH  16  19
BRANCH  17  21
ATOM     21  O   UNL     1       8.188  -6.223  22.871  0.00  0.00    -0.503 OA
ATOM     22  H   UNL     1       8.110  -6.591  21.972  0.00  0.00    +0.292 HD
ENDBRANCH  17  21
ENDBRANCH  12  13
BRANCH   8  23
ATOM     23  O   UNL     1      10.774   2.686  21.506  0.00  0.00    -0.507 OA
ATOM     24  H   UNL     1      11.022   3.595  21.748  0.00  0.00    +0.292 HD
ENDBRANCH   8  23
BRANCH  11  25
ATOM     25  O   UNL     1       8.644   3.235  25.696  0.00  0.00    -0.506 OA
ATOM     26  H   UNL     1       9.145   2.892  26.454  0.00  0.00    +0.292 HD
ENDBRANCH  11  25
ENDBRANCH   1   2
BRANCH   1  30
ATOM     27  C   UNL     1       2.823   1.125  27.791  0.00  0.00    +0.041 C 
ATOM     28  C   UNL     1       3.579  -0.038  28.442  0.00  0.00    +0.150 C 
ATOM     29  O   UNL     1       4.827  -0.350  27.814  0.00  0.00    -0.334 OA
ATOM     30  C   UNL     1       4.826  -1.007  26.530  0.00  0.00    +0.340 C 
ATOM     31  C   UNL     1       3.769  -2.190  26.437  0.00  0.00    +0.221 C 
ATOM     32  C   UNL     1       2.444  -1.856  27.178  0.00  0.00    +0.180 C 
ATOM     33  C   UNL     1       2.717  -1.291  28.574  0.00  0.00    +0.174 C 
BRANCH  32  34
ATOM     34  O   UNL     1       1.626  -3.035  27.323  0.00  0.00    -0.386 OA
ATOM     35  H   UNL     1       0.837  -2.727  27.814  0.00  0.00    +0.210 HD
ENDBRANCH  32  34
BRANCH  33  36
ATOM     36  O   UNL     1       3.389  -2.276  29.377  0.00  0.00    -0.387 OA
ATOM     37  H   UNL     1       3.005  -3.147  29.147  0.00  0.00    +0.210 HD
ENDBRANCH  33  36
BRANCH  31  38
ATOM     38  O   UNL     1       4.197  -3.441  27.026  0.00  0.00    -0.337 OA
BRANCH  38  39
ATOM     39  C   UNL     1       4.747  -4.391  26.107  0.00  0.00    +0.282 C 
ATOM     40  O   UNL     1       3.811  -4.980  25.201  0.00  0.00    -0.346 OA
ATOM     41  C   UNL     1       2.810  -5.810  25.794  0.00  0.00    +0.197 C 
ATOM     42  C   UNL     1       3.400  -6.950  26.615  0.00  0.00    +0.171 C 
ATOM     43  C   UNL     1       4.432  -6.410  27.608  0.00  0.00    +0.178 C 
ATOM     44  C   UNL     1       5.465  -5.504  26.910  0.00  0.00    +0.201 C 
BRANCH  42  45
ATOM     45  O   UNL     1       4.040  -7.889  25.728  0.00  0.00    -0.387 OA
ATOM     46  H   UNL     1       4.381  -8.604  26.299  0.00  0.00    +0.210 HD
ENDBRANCH  42  45
BRANCH  43  47
ATOM     47  O   UNL     1       5.091  -7.530  28.223  0.00  0.00    -0.386 OA
ATOM     48  H   UNL     1       5.994  -7.211  28.421  0.00  0.00    +0.210 HD
ENDBRANCH  43  47
BRANCH  44  49
ATOM     49  O   UNL     1       6.283  -6.319  26.046  0.00  0.00    -0.384 OA
ATOM     50  H   UNL     1       5.838  -7.194  26.002  0.00  0.00    +0.210 HD
ENDBRANCH  44  49
ENDBRANCH  38  39
ENDBRANCH  31  38
ENDBRANCH   1  30
TORSDOF 14
ENDMDL
MODEL 9
REMARK VINA RESULT:      -6.6      2.749      3.852
REMARK  Name = 
REMARK  15 active torsions:
REMARK  status: ('A' for Active; 'I' for Inactive)
REMARK    1  A    between atoms: C_1  and  C_2
REMARK    2  A    between atoms: C_3  and  O_47
REMARK    3  A    between atoms: C_5  and  O_46
REMARK    4  A    between atoms: C_6  and  O_33
REMARK    5  A    between atoms: C_8  and  O_11
REMARK    6  A    between atoms: O_11  and  C_12
REMARK    7  A    between atoms: C_13  and  C_25
REMARK    8  A    between atoms: C_17  and  O_24
REMARK    9  A    between atoms: C_19  and  O_23
REMARK   10  A    between atoms: C_27  and  O_32
REMARK   11  A    between atoms: C_28  and  O_31
REMARK   12  A    between atoms: O_33  and  C_34
REMARK   13  A    between atoms: C_36  and  O_45
REMARK   14  A    between atoms: C_38  and  O_44
REMARK   15  A    between atoms: C_39  and  O_43
REMARK                            x       y       z     vdW  Elec       q    Type
REMARK                         _______ _______ _______ _____ _____    ______ ____
ROOT
ATOM      1  O   UNL     1       5.859  -1.711  25.437  0.00  0.00    -0.453 OA
ENDROOT
BRANCH   1   2
ATOM      2  C   UNL     1       5.586  -0.460  25.994  0.00  0.00    +0.214 A 
ATOM      3  C   UNL     1       4.434  -0.353  26.965  0.00  0.00    +0.238 A 
ATOM      4  O   UNL     1       3.721  -1.323  27.194  0.00  0.00    -0.283 OA
ATOM      5  C   UNL     1       4.174   0.948  27.616  0.00  0.00    +0.109 A 
ATOM      6  C   UNL     1       4.908   2.033  27.172  0.00  0.00    +0.147 A 
ATOM      7  C   UNL     1       4.730   3.312  27.716  0.00  0.00    +0.092 A 
ATOM      8  C   UNL     1       3.809   3.491  28.735  0.00  0.00    +0.124 A 
ATOM      9  C   UNL     1       3.056   2.420  29.200  0.00  0.00    +0.091 A 
ATOM     10  O   UNL     1       5.841   1.938  26.190  0.00  0.00    -0.451 OA
ATOM     11  C   UNL     1       3.238   1.149  28.642  0.00  0.00    +0.135 A 
ATOM     12  C   UNL     1       6.195   0.709  25.627  0.00  0.00    +0.181 A 
BRANCH  12  13
ATOM     13  C   UNL     1       7.260   0.992  24.587  0.00  0.00    +0.025 A 
ATOM     14  C   UNL     1       6.856   1.160  23.229  0.00  0.00    +0.015 A 
ATOM     15  C   UNL     1       7.731   1.529  22.196  0.00  0.00    +0.050 A 
ATOM     16  C   UNL     1       9.055   1.764  22.492  0.00  0.00    +0.158 A 
ATOM     17  C   UNL     1       9.491   1.607  23.811  0.00  0.00    +0.159 A 
ATOM     18  C   UNL     1       8.611   1.235  24.852  0.00  0.00    +0.060 A 
BRANCH  16  19
ATOM     19  O   UNL     1       9.882   2.164  21.485  0.00  0.00    -0.503 OA
ATOM     20  H   UNL     1       9.815   1.500  20.775  0.00  0.00    +0.292 HD
ENDBRANCH  16  19
BRANCH  17  21
ATOM     21  O   UNL     1      10.809   1.858  24.101  0.00  0.00    -0.503 OA
ATOM     22  H   UNL     1      10.942   2.805  23.911  0.00  0.00    +0.292 HD
ENDBRANCH  17  21
ENDBRANCH  12  13
BRANCH   8  23
ATOM     23  O   UNL     1       3.617   4.707  29.320  0.00  0.00    -0.507 OA
ATOM     24  H   UNL     1       3.882   5.409  28.701  0.00  0.00    +0.292 HD
ENDBRANCH   8  23
BRANCH  11  25
ATOM     25  O   UNL     1       2.488   0.115  29.130  0.00  0.00    -0.506 OA
ATOM     26  H   UNL     1       2.677  -0.013  30.074  0.00  0.00    +0.292 HD
ENDBRANCH  11  25
ENDBRANCH   1   2
BRANCH   1  30
ATOM     27  C   UNL     1       9.976  -2.368  23.735  0.00  0.00    +0.041 C 
ATOM     28  C   UNL     1       8.661  -3.135  23.563  0.00  0.00    +0.150 C 
ATOM     29  O   UNL     1       7.500  -2.401  23.964  0.00  0.00    -0.334 OA
ATOM     30  C   UNL     1       7.248  -2.192  25.369  0.00  0.00    +0.340 C 
ATOM     31  C   UNL     1       7.499  -3.493  26.247  0.00  0.00    +0.221 C 
ATOM     32  C   UNL     1       8.728  -4.308  25.756  0.00  0.00    +0.180 C 
ATOM     33  C   UNL     1       8.693  -4.502  24.238  0.00  0.00    +0.174 C 
BRANCH  32  34
ATOM     34  O   UNL     1       8.761  -5.609  26.375  0.00  0.00    -0.386 OA
ATOM     35  H   UNL     1       9.667  -5.938  26.207  0.00  0.00    +0.210 HD
ENDBRANCH  32  34
BRANCH  33  36
ATOM     36  O   UNL     1       7.531  -5.267  23.870  0.00  0.00    -0.387 OA
ATOM     37  H   UNL     1       7.259  -5.777  24.661  0.00  0.00    +0.210 HD
ENDBRANCH  33  36
BRANCH  31  38
ATOM     38  O   UNL     1       6.414  -4.452  26.243  0.00  0.00    -0.337 OA
BRANCH  38  39
ATOM     39  C   UNL     1       5.538  -4.387  27.373  0.00  0.00    +0.282 C 
ATOM     40  O   UNL     1       6.082  -4.884  28.598  0.00  0.00    -0.346 OA
ATOM     41  C   UNL     1       6.369  -6.283  28.630  0.00  0.00    +0.197 C 
ATOM     42  C   UNL     1       5.151  -7.142  28.312  0.00  0.00    +0.171 C 
ATOM     43  C   UNL     1       4.491  -6.669  27.015  0.00  0.00    +0.178 C 
ATOM     44  C   UNL     1       4.232  -5.149  27.036  0.00  0.00    +0.201 C 
BRANCH  42  45
ATOM     45  O   UNL     1       4.203  -7.036  29.393  0.00  0.00    -0.387 OA
ATOM     46  H   UNL     1       4.723  -6.781  30.179  0.00  0.00    +0.210 HD
ENDBRANCH  42  45
BRANCH  43  47
ATOM     47  O   UNL     1       3.252  -7.380  26.857  0.00  0.00    -0.386 OA
ATOM     48  H   UNL     1       3.249  -7.674  25.923  0.00  0.00    +0.210 HD
ENDBRANCH  43  47
BRANCH  44  49
ATOM     49  O   UNL     1       3.205  -4.871  28.009  0.00  0.00    -0.384 OA
ATOM     50  H   UNL     1       3.019  -5.726  28.455  0.00  0.00    +0.210 HD
ENDBRANCH  44  49
ENDBRANCH  38  39
ENDBRANCH  31  38
ENDBRANCH   1  30
TORSDOF 14
ENDMDL
