MODEL 1
REMARK VINA RESULT:      -7.4      0.000      0.000
REMARK  Name = 
REMARK  17 active torsions:
REMARK  status: ('A' for Active; 'I' for Inactive)
REMARK    1  A    between atoms: C_3  and  O_44
REMARK    2  A    between atoms: C_4  and  O_43
REMARK    3  A    between atoms: C_6  and  C_7
REMARK    4  A    between atoms: C_8  and  O_20
REMARK    5  A    between atoms: C_12  and  O_19
REMARK    6  A    between atoms: C_14  and  O_18
REMARK    7  A    between atoms: O_20  and  C_21
REMARK    8  A    between atoms: C_22  and  O_31
REMARK    9  A    between atoms: C_23  and  O_30
REMARK   10  A    between atoms: C_24  and  O_29
REMARK   11  A    between atoms: C_25  and  C_27
REMARK   12  A    between atoms: C_27  and  O_28
REMARK   13  A    between atoms: O_31  and  C_32
REMARK   14  A    between atoms: C_32  and  C_34
REMARK   15  A    between atoms: C_36  and  O_42
REMARK   16  A    between atoms: C_37  and  O_41
REMARK   17  A    between atoms: C_38  and  O_40
REMARK                            x       y       z     vdW  Elec       q    Type
REMARK                         _______ _______ _______ _____ _____    ______ ____
ROOT
ATOM      1  C   UNL     1       9.191   0.085  23.731  0.00  0.00    +0.352 C 
ATOM      2  O   UNL     1      10.153   1.121  23.426  0.00  0.00    -0.330 OA
ATOM      3  C   UNL     1       9.740   2.440  23.837  0.00  0.00    +0.179 C 
ATOM      4  C   UNL     1       8.282   2.787  23.435  0.00  0.00    +0.178 C 
ATOM      5  C   UNL     1       7.304   1.575  23.329  0.00  0.00    +0.192 C 
ATOM      6  C   UNL     1       8.005   0.296  22.784  0.00  0.00    +0.276 C 
ENDROOT
BRANCH   5   7
ATOM      7  O   UNL     1       6.192   1.959  22.509  0.00  0.00    -0.385 OA
ATOM      8  H   UNL     1       5.588   1.191  22.484  0.00  0.00    +0.210 HD
ENDBRANCH   5   7
BRANCH   4   9
ATOM      9  O   UNL     1       8.235   3.542  22.211  0.00  0.00    -0.386 OA
ATOM     10  H   UNL     1       9.049   4.074  22.145  0.00  0.00    +0.210 HD
ENDBRANCH   4   9
BRANCH   6  11
ATOM     11  O   UNL     1       7.132  -0.879  22.730  0.00  0.00    -0.449 OA
BRANCH  11  12
ATOM     12  C   UNL     1       7.568  -2.067  22.206  0.00  0.00    +0.340 C 
ATOM     13  O   UNL     1       8.596  -2.220  21.566  0.00  0.00    -0.245 OA
BRANCH  12  14
ATOM     14  C   UNL     1       6.655  -3.214  22.590  0.00  0.00    +0.066 A 
ATOM     15  C   UNL     1       7.005  -4.499  22.159  0.00  0.00    +0.064 A 
ATOM     16  C   UNL     1       6.170  -5.578  22.400  0.00  0.00    +0.163 A 
ATOM     17  C   UNL     1       4.983  -5.420  23.093  0.00  0.00    +0.201 A 
ATOM     18  C   UNL     1       4.617  -4.163  23.566  0.00  0.00    +0.163 A 
ATOM     19  C   UNL     1       5.442  -3.048  23.318  0.00  0.00    +0.064 A 
BRANCH  18  20
ATOM     20  O   UNL     1       3.429  -4.107  24.248  0.00  0.00    -0.503 OA
ATOM     21  H   UNL     1       2.823  -3.478  23.823  0.00  0.00    +0.292 HD
ENDBRANCH  18  20
BRANCH  17  22
ATOM     22  O   UNL     1       4.191  -6.520  23.289  0.00  0.00    -0.501 OA
ATOM     23  H   UNL     1       3.483  -6.218  23.892  0.00  0.00    +0.292 HD
ENDBRANCH  17  22
BRANCH  16  24
ATOM     24  O   UNL     1       6.537  -6.801  21.922  0.00  0.00    -0.503 OA
ATOM     25  H   UNL     1       6.793  -6.638  20.992  0.00  0.00    +0.292 HD
ENDBRANCH  16  24
ENDBRANCH  12  14
ENDBRANCH  11  12
ENDBRANCH   6  11
BRANCH   3  26
ATOM     26  C   UNL     1      10.746   3.474  23.264  0.00  0.00    +0.190 C 
BRANCH  26  27
ATOM     27  O   UNL     1      10.317   4.827  23.421  0.00  0.00    -0.392 OA
ATOM     28  H   UNL     1       9.769   5.067  22.655  0.00  0.00    +0.210 HD
ENDBRANCH  26  27
ENDBRANCH   3  26
BRANCH   1  29
ATOM     29  O   UNL     1       8.836   0.170  25.123  0.00  0.00    -0.452 OA
BRANCH  29  40
ATOM     30  C   UNL     1       7.238  -0.846  26.586  0.00  0.00    +0.181 A 
ATOM     31  O   UNL     1       6.505  -1.951  27.003  0.00  0.00    -0.451 OA
ATOM     32  C   UNL     1       6.894  -3.210  26.634  0.00  0.00    +0.147 A 
ATOM     33  C   UNL     1       8.045  -3.463  25.901  0.00  0.00    +0.109 A 
ATOM     34  C   UNL     1       8.399  -4.799  25.634  0.00  0.00    +0.135 A 
ATOM     35  C   UNL     1       7.604  -5.860  26.088  0.00  0.00    +0.091 A 
ATOM     36  C   UNL     1       6.439  -5.580  26.788  0.00  0.00    +0.124 A 
ATOM     37  C   UNL     1       8.809  -2.290  25.412  0.00  0.00    +0.238 A 
ATOM     38  O   UNL     1       9.787  -2.478  24.686  0.00  0.00    -0.283 OA
ATOM     39  C   UNL     1       6.074  -4.264  27.054  0.00  0.00    +0.092 A 
ATOM     40  C   UNL     1       8.347  -0.919  25.817  0.00  0.00    +0.214 A 
BRANCH  30  42
ATOM     41  C   UNL     1       5.504   0.992  26.466  0.00  0.00    +0.015 A 
ATOM     42  C   UNL     1       6.629   0.414  27.091  0.00  0.00    +0.025 A 
ATOM     43  C   UNL     1       7.275   1.185  28.079  0.00  0.00    +0.060 A 
ATOM     44  C   UNL     1       6.843   2.478  28.357  0.00  0.00    +0.159 A 
ATOM     45  C   UNL     1       5.749   3.033  27.699  0.00  0.00    +0.158 A 
ATOM     46  C   UNL     1       5.045   2.278  26.774  0.00  0.00    +0.050 A 
BRANCH  45  47
ATOM     47  O   UNL     1       5.433   4.339  27.942  0.00  0.00    -0.503 OA
ATOM     48  H   UNL     1       6.095   4.703  28.555  0.00  0.00    +0.292 HD
ENDBRANCH  45  47
BRANCH  44  49
ATOM     49  O   UNL     1       7.524   3.242  29.268  0.00  0.00    -0.503 OA
ATOM     50  H   UNL     1       7.700   4.080  28.797  0.00  0.00    +0.292 HD
ENDBRANCH  44  49
ENDBRANCH  30  42
BRANCH  36  51
ATOM     51  O   UNL     1       5.622  -6.571  27.242  0.00  0.00    -0.507 OA
ATOM     52  H   UNL     1       4.739  -6.204  27.418  0.00  0.00    +0.292 HD
ENDBRANCH  36  51
BRANCH  34  53
ATOM     53  O   UNL     1       9.519  -5.168  24.941  0.00  0.00    -0.506 OA
ATOM     54  H   UNL     1      10.293  -4.675  25.285  0.00  0.00    +0.292 HD
ENDBRANCH  34  53
ENDBRANCH  29  40
ENDBRANCH   1  29
TORSDOF 17
ENDMDL
MODEL 2
REMARK VINA RESULT:      -7.4      2.215      6.926
REMARK  Name = 
REMARK  17 active torsions:
REMARK  status: ('A' for Active; 'I' for Inactive)
REMARK    1  A    between atoms: C_3  and  O_44
REMARK    2  A    between atoms: C_4  and  O_43
REMARK    3  A    between atoms: C_6  and  C_7
REMARK    4  A    between atoms: C_8  and  O_20
REMARK    5  A    between atoms: C_12  and  O_19
REMARK    6  A    between atoms: C_14  and  O_18
REMARK    7  A    between atoms: O_20  and  C_21
REMARK    8  A    between atoms: C_22  and  O_31
REMARK    9  A    between atoms: C_23  and  O_30
REMARK   10  A    between atoms: C_24  and  O_29
REMARK   11  A    between atoms: C_25  and  C_27
REMARK   12  A    between atoms: C_27  and  O_28
REMARK   13  A    between atoms: O_31  and  C_32
REMARK   14  A    between atoms: C_32  and  C_34
REMARK   15  A    between atoms: C_36  and  O_42
REMARK   16  A    between atoms: C_37  and  O_41
REMARK   17  A    between atoms: C_38  and  O_40
REMARK                            x       y       z     vdW  Elec       q    Type
REMARK                         _______ _______ _______ _____ _____    ______ ____
ROOT
ATOM      1  C   UNL     1       6.619   1.710  23.916  0.00  0.00    +0.352 C 
ATOM      2  O   UNL     1       5.995   2.654  23.016  0.00  0.00    -0.330 OA
ATOM      3  C   UNL     1       5.214   3.668  23.682  0.00  0.00    +0.179 C 
ATOM      4  C   UNL     1       4.264   3.103  24.771  0.00  0.00    +0.178 C 
ATOM      5  C   UNL     1       4.740   1.790  25.467  0.00  0.00    +0.192 C 
ATOM      6  C   UNL     1       5.493   0.842  24.489  0.00  0.00    +0.276 C 
ENDROOT
BRANCH   5   7
ATOM      7  O   UNL     1       3.599   1.147  26.052  0.00  0.00    -0.385 OA
ATOM      8  H   UNL     1       3.662   1.296  27.016  0.00  0.00    +0.210 HD
ENDBRANCH   5   7
BRANCH   4   9
ATOM      9  O   UNL     1       2.931   2.914  24.263  0.00  0.00    -0.386 OA
ATOM     10  H   UNL     1       2.576   2.084  24.629  0.00  0.00    +0.210 HD
ENDBRANCH   4   9
BRANCH   6  11
ATOM     11  O   UNL     1       6.009  -0.373  25.124  0.00  0.00    -0.449 OA
BRANCH  11  12
ATOM     12  C   UNL     1       5.222  -1.484  25.280  0.00  0.00    +0.340 C 
ATOM     13  O   UNL     1       4.196  -1.534  25.938  0.00  0.00    -0.245 OA
BRANCH  12  14
ATOM     14  C   UNL     1       5.734  -2.650  24.457  0.00  0.00    +0.066 A 
ATOM     15  C   UNL     1       6.438  -3.659  25.122  0.00  0.00    +0.064 A 
ATOM     16  C   UNL     1       7.008  -4.708  24.418  0.00  0.00    +0.163 A 
ATOM     17  C   UNL     1       6.874  -4.799  23.044  0.00  0.00    +0.201 A 
ATOM     18  C   UNL     1       6.152  -3.831  22.350  0.00  0.00    +0.163 A 
ATOM     19  C   UNL     1       5.579  -2.747  23.044  0.00  0.00    +0.064 A 
BRANCH  18  20
ATOM     20  O   UNL     1       6.068  -4.010  20.994  0.00  0.00    -0.503 OA
ATOM     21  H   UNL     1       6.675  -3.409  20.533  0.00  0.00    +0.292 HD
ENDBRANCH  18  20
BRANCH  17  22
ATOM     22  O   UNL     1       7.470  -5.849  22.399  0.00  0.00    -0.501 OA
ATOM     23  H   UNL     1       7.631  -5.529  21.488  0.00  0.00    +0.292 HD
ENDBRANCH  17  22
BRANCH  16  24
ATOM     24  O   UNL     1       7.720  -5.642  25.109  0.00  0.00    -0.503 OA
ATOM     25  H   UNL     1       7.253  -5.729  25.965  0.00  0.00    +0.292 HD
ENDBRANCH  16  24
ENDBRANCH  12  14
ENDBRANCH  11  12
ENDBRANCH   6  11
BRANCH   3  26
ATOM     26  C   UNL     1       4.433   4.473  22.610  0.00  0.00    +0.190 C 
BRANCH  26  27
ATOM     27  O   UNL     1       3.860   3.651  21.591  0.00  0.00    -0.392 OA
ATOM     28  H   UNL     1       3.976   4.097  20.736  0.00  0.00    +0.210 HD
ENDBRANCH  26  27
ENDBRANCH   3  26
BRANCH   1  29
ATOM     29  O   UNL     1       7.352   2.435  24.920  0.00  0.00    -0.452 OA
BRANCH  29  40
ATOM     30  C   UNL     1       9.596   1.984  24.225  0.00  0.00    +0.181 A 
ATOM     31  O   UNL     1      10.805   2.401  23.677  0.00  0.00    -0.451 OA
ATOM     32  C   UNL     1      11.108   3.733  23.621  0.00  0.00    +0.147 A 
ATOM     33  C   UNL     1      10.288   4.719  24.151  0.00  0.00    +0.109 A 
ATOM     34  C   UNL     1      10.724   6.058  24.110  0.00  0.00    +0.135 A 
ATOM     35  C   UNL     1      11.957   6.398  23.538  0.00  0.00    +0.091 A 
ATOM     36  C   UNL     1      12.742   5.398  22.982  0.00  0.00    +0.124 A 
ATOM     37  C   UNL     1       8.977   4.291  24.696  0.00  0.00    +0.238 A 
ATOM     38  O   UNL     1       8.189   5.151  25.095  0.00  0.00    -0.283 OA
ATOM     39  C   UNL     1      12.322   4.072  23.011  0.00  0.00    +0.092 A 
ATOM     40  C   UNL     1       8.664   2.822  24.727  0.00  0.00    +0.214 A 
BRANCH  30  42
ATOM     41  C   UNL     1       9.348  -0.272  25.343  0.00  0.00    +0.015 A 
ATOM     42  C   UNL     1       9.474   0.502  24.170  0.00  0.00    +0.025 A 
ATOM     43  C   UNL     1       9.688  -0.198  22.965  0.00  0.00    +0.060 A 
ATOM     44  C   UNL     1       9.831  -1.582  22.971  0.00  0.00    +0.159 A 
ATOM     45  C   UNL     1       9.734  -2.315  24.152  0.00  0.00    +0.158 A 
ATOM     46  C   UNL     1       9.451  -1.667  25.343  0.00  0.00    +0.050 A 
BRANCH  45  47
ATOM     47  O   UNL     1       9.982  -3.657  24.110  0.00  0.00    -0.503 OA
ATOM     48  H   UNL     1       9.836  -3.966  23.199  0.00  0.00    +0.292 HD
ENDBRANCH  45  47
BRANCH  44  49
ATOM     49  O   UNL     1      10.111  -2.243  21.804  0.00  0.00    -0.503 OA
ATOM     50  H   UNL     1       9.477  -1.872  21.158  0.00  0.00    +0.292 HD
ENDBRANCH  44  49
ENDBRANCH  30  42
BRANCH  36  51
ATOM     51  O   UNL     1      13.944   5.672  22.401  0.00  0.00    -0.507 OA
ATOM     52  H   UNL     1      14.539   6.064  23.062  0.00  0.00    +0.292 HD
ENDBRANCH  36  51
BRANCH  34  53
ATOM     53  O   UNL     1      10.010   7.108  24.619  0.00  0.00    -0.506 OA
ATOM     54  H   UNL     1      10.047   7.861  23.994  0.00  0.00    +0.292 HD
ENDBRANCH  34  53
ENDBRANCH  29  40
ENDBRANCH   1  29
TORSDOF 17
ENDMDL
MODEL 3
REMARK VINA RESULT:      -7.4      2.100      7.668
REMARK  Name = 
REMARK  17 active torsions:
REMARK  status: ('A' for Active; 'I' for Inactive)
REMARK    1  A    between atoms: C_3  and  O_44
REMARK    2  A    between atoms: C_4  and  O_43
REMARK    3  A    between atoms: C_6  and  C_7
REMARK    4  A    between atoms: C_8  and  O_20
REMARK    5  A    between atoms: C_12  and  O_19
REMARK    6  A    between atoms: C_14  and  O_18
REMARK    7  A    between atoms: O_20  and  C_21
REMARK    8  A    between atoms: C_22  and  O_31
REMARK    9  A    between atoms: C_23  and  O_30
REMARK   10  A    between atoms: C_24  and  O_29
REMARK   11  A    between atoms: C_25  and  C_27
REMARK   12  A    between atoms: C_27  and  O_28
REMARK   13  A    between atoms: O_31  and  C_32
REMARK   14  A    between atoms: C_32  and  C_34
REMARK   15  A    between atoms: C_36  and  O_42
REMARK   16  A    between atoms: C_37  and  O_41
REMARK   17  A    between atoms: C_38  and  O_40
REMARK                            x       y       z     vdW  Elec       q    Type
REMARK                         _______ _______ _______ _____ _____    ______ ____
ROOT
ATOM      1  C   UNL     1       3.371  -3.952  24.943  0.00  0.00    +0.352 C 
ATOM      2  O   UNL     1       2.508  -5.113  24.933  0.00  0.00    -0.330 OA
ATOM      3  C   UNL     1       3.140  -6.315  25.418  0.00  0.00    +0.179 C 
ATOM      4  C   UNL     1       4.547  -6.563  24.812  0.00  0.00    +0.178 C 
ATOM      5  C   UNL     1       5.338  -5.284  24.396  0.00  0.00    +0.192 C 
ATOM      6  C   UNL     1       4.408  -4.169  23.835  0.00  0.00    +0.276 C 
ENDROOT
BRANCH   5   7
ATOM      7  O   UNL     1       6.344  -5.661  23.446  0.00  0.00    -0.385 OA
ATOM      8  H   UNL     1       7.206  -5.508  23.881  0.00  0.00    +0.210 HD
ENDBRANCH   5   7
BRANCH   4   9
ATOM      9  O   UNL     1       4.489  -7.469  23.695  0.00  0.00    -0.386 OA
ATOM     10  H   UNL     1       3.877  -7.102  23.032  0.00  0.00    +0.210 HD
ENDBRANCH   4   9
BRANCH   6  11
ATOM     11  O   UNL     1       5.111  -2.930  23.493  0.00  0.00    -0.449 OA
BRANCH  11  12
ATOM     12  C   UNL     1       5.878  -2.836  22.362  0.00  0.00    +0.340 C 
ATOM     13  O   UNL     1       5.670  -3.432  21.317  0.00  0.00    -0.245 OA
BRANCH  12  14
ATOM     14  C   UNL     1       6.991  -1.821  22.526  0.00  0.00    +0.066 A 
ATOM     15  C   UNL     1       8.274  -2.184  22.101  0.00  0.00    +0.064 A 
ATOM     16  C   UNL     1       9.353  -1.338  22.302  0.00  0.00    +0.163 A 
ATOM     17  C   UNL     1       9.188  -0.103  22.904  0.00  0.00    +0.201 A 
ATOM     18  C   UNL     1       7.921   0.308  23.311  0.00  0.00    +0.163 A 
ATOM     19  C   UNL     1       6.812  -0.544  23.132  0.00  0.00    +0.064 A 
BRANCH  18  20
ATOM     20  O   UNL     1       7.855   1.549  23.889  0.00  0.00    -0.503 OA
ATOM     21  H   UNL     1       7.222   2.112  23.414  0.00  0.00    +0.292 HD
ENDBRANCH  18  20
BRANCH  17  22
ATOM     22  O   UNL     1      10.291   0.685  23.090  0.00  0.00    -0.501 OA
ATOM     23  H   UNL     1      10.170   1.440  22.479  0.00  0.00    +0.292 HD
ENDBRANCH  17  22
BRANCH  16  24
ATOM     24  O   UNL     1      10.588  -1.757  21.908  0.00  0.00    -0.503 OA
ATOM     25  H   UNL     1      11.211  -1.146  22.349  0.00  0.00    +0.292 HD
ENDBRANCH  16  24
ENDBRANCH  12  14
ENDBRANCH  11  12
ENDBRANCH   6  11
BRANCH   3  26
ATOM     26  C   UNL     1       2.190  -7.513  25.154  0.00  0.00    +0.190 C 
BRANCH  26  27
ATOM     27  O   UNL     1       2.810  -8.783  25.361  0.00  0.00    -0.392 OA
ATOM     28  H   UNL     1       2.864  -8.948  26.316  0.00  0.00    +0.210 HD
ENDBRANCH  26  27
ENDBRANCH   3  26
BRANCH   1  29
ATOM     29  O   UNL     1       3.951  -3.811  26.252  0.00  0.00    -0.452 OA
BRANCH  29  40
ATOM     30  C   UNL     1       5.521  -2.106  26.849  0.00  0.00    +0.181 A 
ATOM     31  O   UNL     1       5.850  -0.767  27.026  0.00  0.00    -0.451 OA
ATOM     32  C   UNL     1       4.861   0.171  27.144  0.00  0.00    +0.147 A 
ATOM     33  C   UNL     1       3.511  -0.149  27.164  0.00  0.00    +0.109 A 
ATOM     34  C   UNL     1       2.573   0.880  27.364  0.00  0.00    +0.135 A 
ATOM     35  C   UNL     1       2.984   2.209  27.533  0.00  0.00    +0.091 A 
ATOM     36  C   UNL     1       4.338   2.509  27.474  0.00  0.00    +0.124 A 
ATOM     37  C   UNL     1       3.148  -1.568  26.930  0.00  0.00    +0.238 A 
ATOM     38  O   UNL     1       1.955  -1.872  26.854  0.00  0.00    -0.283 OA
ATOM     39  C   UNL     1       5.276   1.502  27.271  0.00  0.00    +0.092 A 
ATOM     40  C   UNL     1       4.255  -2.573  26.784  0.00  0.00    +0.214 A 
BRANCH  30  42
ATOM     41  C   UNL     1       7.796  -2.593  25.855  0.00  0.00    +0.015 A 
ATOM     42  C   UNL     1       6.747  -2.941  26.732  0.00  0.00    +0.025 A 
ATOM     43  C   UNL     1       6.816  -4.214  27.333  0.00  0.00    +0.060 A 
ATOM     44  C   UNL     1       7.845  -5.092  27.008  0.00  0.00    +0.159 A 
ATOM     45  C   UNL     1       8.849  -4.730  26.112  0.00  0.00    +0.158 A 
ATOM     46  C   UNL     1       8.854  -3.460  25.559  0.00  0.00    +0.050 A 
BRANCH  45  47
ATOM     47  O   UNL     1       9.776  -5.667  25.757  0.00  0.00    -0.503 OA
ATOM     48  H   UNL     1       9.776  -5.743  24.786  0.00  0.00    +0.292 HD
ENDBRANCH  45  47
BRANCH  44  49
ATOM     49  O   UNL     1       7.861  -6.352  27.544  0.00  0.00    -0.503 OA
ATOM     50  H   UNL     1       7.136  -6.820  27.084  0.00  0.00    +0.292 HD
ENDBRANCH  44  49
ENDBRANCH  30  42
BRANCH  36  51
ATOM     51  O   UNL     1       4.795   3.785  27.618  0.00  0.00    -0.507 OA
ATOM     52  H   UNL     1       4.347   4.204  28.373  0.00  0.00    +0.292 HD
ENDBRANCH  36  51
BRANCH  34  53
ATOM     53  O   UNL     1       1.221   0.680  27.422  0.00  0.00    -0.506 OA
ATOM     54  H   UNL     1       0.963  -0.001  26.767  0.00  0.00    +0.292 HD
ENDBRANCH  34  53
ENDBRANCH  29  40
ENDBRANCH   1  29
TORSDOF 17
ENDMDL
MODEL 4
REMARK VINA RESULT:      -7.3      1.792      2.972
REMARK  Name = 
REMARK  17 active torsions:
REMARK  status: ('A' for Active; 'I' for Inactive)
REMARK    1  A    between atoms: C_3  and  O_44
REMARK    2  A    between atoms: C_4  and  O_43
REMARK    3  A    between atoms: C_6  and  C_7
REMARK    4  A    between atoms: C_8  and  O_20
REMARK    5  A    between atoms: C_12  and  O_19
REMARK    6  A    between atoms: C_14  and  O_18
REMARK    7  A    between atoms: O_20  and  C_21
REMARK    8  A    between atoms: C_22  and  O_31
REMARK    9  A    between atoms: C_23  and  O_30
REMARK   10  A    between atoms: C_24  and  O_29
REMARK   11  A    between atoms: C_25  and  C_27
REMARK   12  A    between atoms: C_27  and  O_28
REMARK   13  A    between atoms: O_31  and  C_32
REMARK   14  A    between atoms: C_32  and  C_34
REMARK   15  A    between atoms: C_36  and  O_42
REMARK   16  A    between atoms: C_37  and  O_41
REMARK   17  A    between atoms: C_38  and  O_40
REMARK                            x       y       z     vdW  Elec       q    Type
REMARK                         _______ _______ _______ _____ _____    ______ ____
ROOT
ATOM      1  C   UNL     1       7.861   0.220  24.251  0.00  0.00    +0.352 C 
ATOM      2  O   UNL     1       8.097   1.511  24.859  0.00  0.00    -0.330 OA
ATOM      3  C   UNL     1       7.393   2.595  24.220  0.00  0.00    +0.179 C 
ATOM      4  C   UNL     1       7.515   2.589  22.674  0.00  0.00    +0.178 C 
ATOM      5  C   UNL     1       7.710   1.186  22.018  0.00  0.00    +0.192 C 
ATOM      6  C   UNL     1       8.577   0.238  22.896  0.00  0.00    +0.276 C 
ENDROOT
BRANCH   5   7
ATOM      7  O   UNL     1       8.280   1.369  20.714  0.00  0.00    -0.385 OA
ATOM      8  H   UNL     1       8.714   0.525  20.481  0.00  0.00    +0.210 HD
ENDBRANCH   5   7
BRANCH   4   9
ATOM      9  O   UNL     1       8.558   3.472  22.222  0.00  0.00    -0.386 OA
ATOM     10  H   UNL     1       9.269   2.934  21.828  0.00  0.00    +0.210 HD
ENDBRANCH   4   9
BRANCH   6  11
ATOM     11  O   UNL     1       8.728  -1.109  22.339  0.00  0.00    -0.449 OA
BRANCH  11  12
ATOM     12  C   UNL     1       9.626  -2.000  22.865  0.00  0.00    +0.340 C 
ATOM     13  O   UNL     1      10.839  -1.933  22.744  0.00  0.00    -0.245 OA
BRANCH  12  14
ATOM     14  C   UNL     1       8.937  -3.057  23.704  0.00  0.00    +0.066 A 
ATOM     15  C   UNL     1       8.249  -4.075  23.035  0.00  0.00    +0.064 A 
ATOM     16  C   UNL     1       7.525  -5.023  23.741  0.00  0.00    +0.163 A 
ATOM     17  C   UNL     1       7.484  -5.003  25.124  0.00  0.00    +0.201 A 
ATOM     18  C   UNL     1       8.184  -4.026  25.827  0.00  0.00    +0.163 A 
ATOM     19  C   UNL     1       8.913  -3.042  25.128  0.00  0.00    +0.064 A 
BRANCH  18  20
ATOM     20  O   UNL     1       8.090  -4.092  27.192  0.00  0.00    -0.503 OA
ATOM     21  H   UNL     1       7.228  -4.451  27.457  0.00  0.00    +0.292 HD
ENDBRANCH  18  20
BRANCH  17  22
ATOM     22  O   UNL     1       6.741  -5.956  25.768  0.00  0.00    -0.501 OA
ATOM     23  H   UNL     1       7.387  -6.466  26.298  0.00  0.00    +0.292 HD
ENDBRANCH  17  22
BRANCH  16  24
ATOM     24  O   UNL     1       6.838  -5.968  23.040  0.00  0.00    -0.503 OA
ATOM     25  H   UNL     1       5.895  -5.753  23.191  0.00  0.00    +0.292 HD
ENDBRANCH  16  24
ENDBRANCH  12  14
ENDBRANCH  11  12
ENDBRANCH   6  11
BRANCH   3  26
ATOM     26  C   UNL     1       7.896   3.934  24.823  0.00  0.00    +0.190 C 
BRANCH  26  27
ATOM     27  O   UNL     1       9.313   4.094  24.741  0.00  0.00    -0.392 OA
ATOM     28  H   UNL     1       9.522   5.037  24.840  0.00  0.00    +0.210 HD
ENDBRANCH  26  27
ENDBRANCH   3  26
BRANCH   1  29
ATOM     29  O   UNL     1       6.442   0.004  24.147  0.00  0.00    -0.452 OA
BRANCH  29  40
ATOM     30  C   UNL     1       5.333  -0.913  26.059  0.00  0.00    +0.181 A 
ATOM     31  O   UNL     1       4.397  -1.773  26.623  0.00  0.00    -0.451 OA
ATOM     32  C   UNL     1       3.905  -2.822  25.896  0.00  0.00    +0.147 A 
ATOM     33  C   UNL     1       4.344  -3.128  24.616  0.00  0.00    +0.109 A 
ATOM     34  C   UNL     1       3.830  -4.273  23.978  0.00  0.00    +0.135 A 
ATOM     35  C   UNL     1       2.885  -5.090  24.614  0.00  0.00    +0.091 A 
ATOM     36  C   UNL     1       2.436  -4.743  25.880  0.00  0.00    +0.124 A 
ATOM     37  C   UNL     1       5.307  -2.192  23.987  0.00  0.00    +0.238 A 
ATOM     38  O   UNL     1       5.650  -2.387  22.819  0.00  0.00    -0.283 OA
ATOM     39  C   UNL     1       2.932  -3.611  26.520  0.00  0.00    +0.092 A 
ATOM     40  C   UNL     1       5.815  -1.038  24.803  0.00  0.00    +0.214 A 
BRANCH  30  42
ATOM     41  C   UNL     1       5.149   1.447  26.952  0.00  0.00    +0.015 A 
ATOM     42  C   UNL     1       5.716   0.157  27.020  0.00  0.00    +0.025 A 
ATOM     43  C   UNL     1       6.806  -0.015  27.897  0.00  0.00    +0.060 A 
ATOM     44  C   UNL     1       7.320   1.069  28.601  0.00  0.00    +0.159 A 
ATOM     45  C   UNL     1       6.759   2.339  28.487  0.00  0.00    +0.158 A 
ATOM     46  C   UNL     1       5.641   2.529  27.690  0.00  0.00    +0.050 A 
BRANCH  45  47
ATOM     47  O   UNL     1       7.367   3.382  29.123  0.00  0.00    -0.503 OA
ATOM     48  H   UNL     1       8.121   3.033  29.629  0.00  0.00    +0.292 HD
ENDBRANCH  45  47
BRANCH  44  49
ATOM     49  O   UNL     1       8.424   0.904  29.395  0.00  0.00    -0.503 OA
ATOM     50  H   UNL     1       8.136   0.270  30.081  0.00  0.00    +0.292 HD
ENDBRANCH  44  49
ENDBRANCH  30  42
BRANCH  36  51
ATOM     51  O   UNL     1       1.509  -5.492  26.541  0.00  0.00    -0.507 OA
ATOM     52  H   UNL     1       1.426  -5.169  27.454  0.00  0.00    +0.292 HD
ENDBRANCH  36  51
BRANCH  34  53
ATOM     53  O   UNL     1       4.203  -4.683  22.728  0.00  0.00    -0.506 OA
ATOM     54  H   UNL     1       3.417  -5.009  22.242  0.00  0.00    +0.292 HD
ENDBRANCH  34  53
ENDBRANCH  29  40
ENDBRANCH   1  29
TORSDOF 17
ENDMDL
MODEL 5
REMARK VINA RESULT:      -7.3      2.102      6.613
REMARK  Name = 
REMARK  17 active torsions:
REMARK  status: ('A' for Active; 'I' for Inactive)
REMARK    1  A    between atoms: C_3  and  O_44
REMARK    2  A    between atoms: C_4  and  O_43
REMARK    3  A    between atoms: C_6  and  C_7
REMARK    4  A    between atoms: C_8  and  O_20
REMARK    5  A    between atoms: C_12  and  O_19
REMARK    6  A    between atoms: C_14  and  O_18
REMARK    7  A    between atoms: O_20  and  C_21
REMARK    8  A    between atoms: C_22  and  O_31
REMARK    9  A    between atoms: C_23  and  O_30
REMARK   10  A    between atoms: C_24  and  O_29
REMARK   11  A    between atoms: C_25  and  C_27
REMARK   12  A    between atoms: C_27  and  O_28
REMARK   13  A    between atoms: O_31  and  C_32
REMARK   14  A    between atoms: C_32  and  C_34
REMARK   15  A    between atoms: C_36  and  O_42
REMARK   16  A    between atoms: C_37  and  O_41
REMARK   17  A    between atoms: C_38  and  O_40
REMARK                            x       y       z     vdW  Elec       q    Type
REMARK                         _______ _______ _______ _____ _____    ______ ____
ROOT
ATOM      1  C   UNL     1       5.829   0.348  24.833  0.00  0.00    +0.352 C 
ATOM      2  O   UNL     1       4.762   1.317  24.953  0.00  0.00    -0.330 OA
ATOM      3  C   UNL     1       4.249   1.457  26.293  0.00  0.00    +0.179 C 
ATOM      4  C   UNL     1       3.960   0.103  26.992  0.00  0.00    +0.178 C 
ATOM      5  C   UNL     1       4.847  -1.097  26.533  0.00  0.00    +0.192 C 
ATOM      6  C   UNL     1       5.189  -1.033  25.016  0.00  0.00    +0.276 C 
ENDROOT
BRANCH   5   7
ATOM      7  O   UNL     1       4.172  -2.316  26.872  0.00  0.00    -0.385 OA
ATOM      8  H   UNL     1       4.315  -2.454  27.829  0.00  0.00    +0.210 HD
ENDBRANCH   5   7
BRANCH   4   9
ATOM      9  O   UNL     1       2.572  -0.264  26.881  0.00  0.00    -0.386 OA
ATOM     10  H   UNL     1       2.419  -1.059  27.422  0.00  0.00    +0.210 HD
ENDBRANCH   4   9
BRANCH   6  11
ATOM     11  O   UNL     1       6.072  -2.110  24.563  0.00  0.00    -0.449 OA
BRANCH  11  12
ATOM     12  C   UNL     1       5.729  -2.918  23.512  0.00  0.00    +0.340 C 
ATOM     13  O   UNL     1       5.816  -2.617  22.333  0.00  0.00    -0.245 OA
BRANCH  12  14
ATOM     14  C   UNL     1       5.298  -4.293  23.983  0.00  0.00    +0.066 A 
ATOM     15  C   UNL     1       4.370  -4.990  23.201  0.00  0.00    +0.064 A 
ATOM     16  C   UNL     1       3.868  -6.212  23.618  0.00  0.00    +0.163 A 
ATOM     17  C   UNL     1       4.288  -6.787  24.805  0.00  0.00    +0.201 A 
ATOM     18  C   UNL     1       5.234  -6.140  25.594  0.00  0.00    +0.163 A 
ATOM     19  C   UNL     1       5.746  -4.888  25.198  0.00  0.00    +0.064 A 
BRANCH  18  20
ATOM     20  O   UNL     1       5.594  -6.790  26.746  0.00  0.00    -0.503 OA
ATOM     21  H   UNL     1       5.821  -6.150  27.440  0.00  0.00    +0.292 HD
ENDBRANCH  18  20
BRANCH  17  22
ATOM     22  O   UNL     1       3.747  -7.990  25.174  0.00  0.00    -0.501 OA
ATOM     23  H   UNL     1       4.355  -8.343  25.854  0.00  0.00    +0.292 HD
ENDBRANCH  17  22
BRANCH  16  24
ATOM     24  O   UNL     1       2.935  -6.830  22.840  0.00  0.00    -0.503 OA
ATOM     25  H   UNL     1       3.034  -6.417  21.958  0.00  0.00    +0.292 HD
ENDBRANCH  16  24
ENDBRANCH  12  14
ENDBRANCH  11  12
ENDBRANCH   6  11
BRANCH   3  26
ATOM     26  C   UNL     1       2.983   2.352  26.246  0.00  0.00    +0.190 C 
BRANCH  26  27
ATOM     27  O   UNL     1       2.556   2.659  24.918  0.00  0.00    -0.392 OA
ATOM     28  H   UNL     1       3.171   2.241  24.293  0.00  0.00    +0.210 HD
ENDBRANCH  26  27
ENDBRANCH   3  26
BRANCH   1  29
ATOM     29  O   UNL     1       6.843   0.644  25.810  0.00  0.00    -0.452 OA
BRANCH  29  40
ATOM     30  C   UNL     1       9.051   0.751  24.893  0.00  0.00    +0.181 A 
ATOM     31  O   UNL     1      10.054   1.442  24.223  0.00  0.00    -0.451 OA
ATOM     32  C   UNL     1      10.002   2.806  24.128  0.00  0.00    +0.147 A 
ATOM     33  C   UNL     1       9.013   3.570  24.733  0.00  0.00    +0.109 A 
ATOM     34  C   UNL     1       9.088   4.972  24.639  0.00  0.00    +0.135 A 
ATOM     35  C   UNL     1      10.132   5.594  23.943  0.00  0.00    +0.091 A 
ATOM     36  C   UNL     1      11.089   4.808  23.316  0.00  0.00    +0.124 A 
ATOM     37  C   UNL     1       7.913   2.842  25.411  0.00  0.00    +0.238 A 
ATOM     38  O   UNL     1       6.975   3.487  25.882  0.00  0.00    -0.283 OA
ATOM     39  C   UNL     1      11.025   3.420  23.396  0.00  0.00    +0.092 A 
ATOM     40  C   UNL     1       7.988   1.343  25.482  0.00  0.00    +0.214 A 
BRANCH  30  42
ATOM     41  C   UNL     1       9.662  -1.374  23.666  0.00  0.00    +0.015 A 
ATOM     42  C   UNL     1       9.304  -0.714  24.861  0.00  0.00    +0.025 A 
ATOM     43  C   UNL     1       8.995  -1.526  25.970  0.00  0.00    +0.060 A 
ATOM     44  C   UNL     1       8.985  -2.913  25.846  0.00  0.00    +0.159 A 
ATOM     45  C   UNL     1       9.312  -3.535  24.644  0.00  0.00    +0.158 A 
ATOM     46  C   UNL     1       9.693  -2.769  23.553  0.00  0.00    +0.050 A 
BRANCH  45  47
ATOM     47  O   UNL     1       9.189  -4.891  24.555  0.00  0.00    -0.503 OA
ATOM     48  H   UNL     1       8.436  -5.166  25.107  0.00  0.00    +0.292 HD
ENDBRANCH  45  47
BRANCH  44  49
ATOM     49  O   UNL     1       8.613  -3.689  26.912  0.00  0.00    -0.503 OA
ATOM     50  H   UNL     1       8.140  -4.443  26.509  0.00  0.00    +0.292 HD
ENDBRANCH  44  49
ENDBRANCH  30  42
BRANCH  36  51
ATOM     51  O   UNL     1      12.119   5.358  22.614  0.00  0.00    -0.507 OA
ATOM     52  H   UNL     1      12.223   4.884  21.772  0.00  0.00    +0.292 HD
ENDBRANCH  36  51
BRANCH  34  53
ATOM     53  O   UNL     1       8.183   5.824  25.211  0.00  0.00    -0.506 OA
ATOM     54  H   UNL     1       7.429   5.959  24.600  0.00  0.00    +0.292 HD
ENDBRANCH  34  53
ENDBRANCH  29  40
ENDBRANCH   1  29
TORSDOF 17
ENDMDL
MODEL 6
REMARK VINA RESULT:      -7.2      2.116      5.359
REMARK  Name = 
REMARK  17 active torsions:
REMARK  status: ('A' for Active; 'I' for Inactive)
REMARK    1  A    between atoms: C_3  and  O_44
REMARK    2  A    between atoms: C_4  and  O_43
REMARK    3  A    between atoms: C_6  and  C_7
REMARK    4  A    between atoms: C_8  and  O_20
REMARK    5  A    between atoms: C_12  and  O_19
REMARK    6  A    between atoms: C_14  and  O_18
REMARK    7  A    between atoms: O_20  and  C_21
REMARK    8  A    between atoms: C_22  and  O_31
REMARK    9  A    between atoms: C_23  and  O_30
REMARK   10  A    between atoms: C_24  and  O_29
REMARK   11  A    between atoms: C_25  and  C_27
REMARK   12  A    between atoms: C_27  and  O_28
REMARK   13  A    between atoms: O_31  and  C_32
REMARK   14  A    between atoms: C_32  and  C_34
REMARK   15  A    between atoms: C_36  and  O_42
REMARK   16  A    between atoms: C_37  and  O_41
REMARK   17  A    between atoms: C_38  and  O_40
REMARK                            x       y       z     vdW  Elec       q    Type
REMARK                         _______ _______ _______ _____ _____    ______ ____
ROOT
ATOM      1  C   UNL     1       7.776  -0.188  24.922  0.00  0.00    +0.352 C 
ATOM      2  O   UNL     1       8.916   0.601  24.511  0.00  0.00    -0.330 OA
ATOM      3  C   UNL     1       8.916   0.940  23.109  0.00  0.00    +0.179 C 
ATOM      4  C   UNL     1       8.607  -0.264  22.180  0.00  0.00    +0.178 C 
ATOM      5  C   UNL     1       7.700  -1.376  22.795  0.00  0.00    +0.192 C 
ATOM      6  C   UNL     1       7.966  -1.582  24.314  0.00  0.00    +0.276 C 
ENDROOT
BRANCH   5   7
ATOM      7  O   UNL     1       7.901  -2.587  22.053  0.00  0.00    -0.385 OA
ATOM      8  H   UNL     1       7.831  -2.347  21.108  0.00  0.00    +0.210 HD
ENDBRANCH   5   7
BRANCH   4   9
ATOM      9  O   UNL     1       9.812  -0.863  21.670  0.00  0.00    -0.386 OA
ATOM     10  H   UNL     1       9.570  -1.657  21.161  0.00  0.00    +0.210 HD
ENDBRANCH   4   9
BRANCH   6  11
ATOM     11  O   UNL     1       7.089  -2.576  24.938  0.00  0.00    -0.449 OA
BRANCH  11  12
ATOM     12  C   UNL     1       7.570  -3.788  25.357  0.00  0.00    +0.340 C 
ATOM     13  O   UNL     1       8.630  -3.964  25.936  0.00  0.00    -0.245 OA
BRANCH  12  14
ATOM     14  C   UNL     1       6.579  -4.903  25.092  0.00  0.00    +0.066 A 
ATOM     15  C   UNL     1       6.264  -5.195  23.760  0.00  0.00    +0.064 A 
ATOM     16  C   UNL     1       5.302  -6.142  23.450  0.00  0.00    +0.163 A 
ATOM     17  C   UNL     1       4.645  -6.842  24.446  0.00  0.00    +0.201 A 
ATOM     18  C   UNL     1       4.954  -6.604  25.783  0.00  0.00    +0.163 A 
ATOM     19  C   UNL     1       5.917  -5.633  26.121  0.00  0.00    +0.064 A 
BRANCH  18  20
ATOM     20  O   UNL     1       4.258  -7.351  26.697  0.00  0.00    -0.503 OA
ATOM     21  H   UNL     1       3.616  -6.798  27.170  0.00  0.00    +0.292 HD
ENDBRANCH  18  20
BRANCH  17  22
ATOM     22  O   UNL     1       3.693  -7.756  24.082  0.00  0.00    -0.501 OA
ATOM     23  H   UNL     1       3.348  -7.436  23.224  0.00  0.00    +0.292 HD
ENDBRANCH  17  22
BRANCH  16  24
ATOM     24  O   UNL     1       5.002  -6.357  22.138  0.00  0.00    -0.503 OA
ATOM     25  H   UNL     1       5.584  -5.743  21.646  0.00  0.00    +0.292 HD
ENDBRANCH  16  24
ENDBRANCH  12  14
ENDBRANCH  11  12
ENDBRANCH   6  11
BRANCH   3  26
ATOM     26  C   UNL     1      10.281   1.590  22.758  0.00  0.00    +0.190 C 
BRANCH  26  27
ATOM     27  O   UNL     1      10.284   2.249  21.491  0.00  0.00    -0.392 OA
ATOM     28  H   UNL     1      11.133   2.709  21.386  0.00  0.00    +0.210 HD
ENDBRANCH  26  27
ENDBRANCH   3  26
BRANCH   1  29
ATOM     29  O   UNL     1       6.571   0.467  24.487  0.00  0.00    -0.452 OA
BRANCH  29  40
ATOM     30  C   UNL     1       5.872   2.614  25.281  0.00  0.00    +0.181 A 
ATOM     31  O   UNL     1       4.908   3.447  25.837  0.00  0.00    -0.451 OA
ATOM     32  C   UNL     1       3.831   2.911  26.490  0.00  0.00    +0.147 A 
ATOM     33  C   UNL     1       3.672   1.547  26.692  0.00  0.00    +0.109 A 
ATOM     34  C   UNL     1       2.567   1.098  27.440  0.00  0.00    +0.135 A 
ATOM     35  C   UNL     1       1.636   2.003  27.967  0.00  0.00    +0.091 A 
ATOM     36  C   UNL     1       1.799   3.359  27.721  0.00  0.00    +0.124 A 
ATOM     37  C   UNL     1       4.669   0.647  26.064  0.00  0.00    +0.238 A 
ATOM     38  O   UNL     1       4.507  -0.572  26.151  0.00  0.00    -0.283 OA
ATOM     39  C   UNL     1       2.883   3.817  26.978  0.00  0.00    +0.092 A 
ATOM     40  C   UNL     1       5.829   1.265  25.337  0.00  0.00    +0.214 A 
BRANCH  30  42
ATOM     41  C   UNL     1       8.080   3.848  25.316  0.00  0.00    +0.015 A 
ATOM     42  C   UNL     1       6.938   3.409  24.614  0.00  0.00    +0.025 A 
ATOM     43  C   UNL     1       6.748   3.929  23.318  0.00  0.00    +0.060 A 
ATOM     44  C   UNL     1       7.626   4.880  22.806  0.00  0.00    +0.159 A 
ATOM     45  C   UNL     1       8.727   5.318  23.537  0.00  0.00    +0.158 A 
ATOM     46  C   UNL     1       8.985   4.774  24.785  0.00  0.00    +0.050 A 
BRANCH  45  47
ATOM     47  O   UNL     1       9.495   6.323  23.025  0.00  0.00    -0.503 OA
ATOM     48  H   UNL     1       9.475   7.070  23.648  0.00  0.00    +0.292 HD
ENDBRANCH  45  47
BRANCH  44  49
ATOM     49  O   UNL     1       7.390   5.431  21.573  0.00  0.00    -0.503 OA
ATOM     50  H   UNL     1       7.188   6.369  21.762  0.00  0.00    +0.292 HD
ENDBRANCH  44  49
ENDBRANCH  30  42
BRANCH  36  51
ATOM     51  O   UNL     1       0.918   4.283  28.197  0.00  0.00    -0.507 OA
ATOM     52  H   UNL     1       0.074   3.847  28.403  0.00  0.00    +0.292 HD
ENDBRANCH  36  51
BRANCH  34  53
ATOM     53  O   UNL     1       2.320  -0.218  27.720  0.00  0.00    -0.506 OA
ATOM     54  H   UNL     1       2.722  -0.781  27.026  0.00  0.00    +0.292 HD
ENDBRANCH  34  53
ENDBRANCH  29  40
ENDBRANCH   1  29
TORSDOF 17
ENDMDL
MODEL 7
REMARK VINA RESULT:      -7.2      2.106      6.614
REMARK  Name = 
REMARK  17 active torsions:
REMARK  status: ('A' for Active; 'I' for Inactive)
REMARK    1  A    between atoms: C_3  and  O_44
REMARK    2  A    between atoms: C_4  and  O_43
REMARK    3  A    between atoms: C_6  and  C_7
REMARK    4  A    between atoms: C_8  and  O_20
REMARK    5  A    between atoms: C_12  and  O_19
REMARK    6  A    between atoms: C_14  and  O_18
REMARK    7  A    between atoms: O_20  and  C_21
REMARK    8  A    between atoms: C_22  and  O_31
REMARK    9  A    between atoms: C_23  and  O_30
REMARK   10  A    between atoms: C_24  and  O_29
REMARK   11  A    between atoms: C_25  and  C_27
REMARK   12  A    between atoms: C_27  and  O_28
REMARK   13  A    between atoms: O_31  and  C_32
REMARK   14  A    between atoms: C_32  and  C_34
REMARK   15  A    between atoms: C_36  and  O_42
REMARK   16  A    between atoms: C_37  and  O_41
REMARK   17  A    between atoms: C_38  and  O_40
REMARK                            x       y       z     vdW  Elec       q    Type
REMARK                         _______ _______ _______ _____ _____    ______ ____
ROOT
ATOM      1  C   UNL     1       6.083   0.432  24.781  0.00  0.00    +0.352 C 
ATOM      2  O   UNL     1       5.303   1.481  24.162  0.00  0.00    -0.330 OA
ATOM      3  C   UNL     1       4.673   2.373  25.103  0.00  0.00    +0.179 C 
ATOM      4  C   UNL     1       3.947   1.640  26.261  0.00  0.00    +0.178 C 
ATOM      5  C   UNL     1       4.538   0.251  26.658  0.00  0.00    +0.192 C 
ATOM      6  C   UNL     1       5.083  -0.533  25.428  0.00  0.00    +0.276 C 
ENDROOT
BRANCH   5   7
ATOM      7  O   UNL     1       3.527  -0.492  27.353  0.00  0.00    -0.385 OA
ATOM      8  H   UNL     1       3.118  -1.085  26.694  0.00  0.00    +0.210 HD
ENDBRANCH   5   7
BRANCH   4   9
ATOM      9  O   UNL     1       2.539   1.497  25.997  0.00  0.00    -0.386 OA
ATOM     10  H   UNL     1       2.235   0.659  26.390  0.00  0.00    +0.210 HD
ENDBRANCH   4   9
BRANCH   6  11
ATOM     11  O   UNL     1       5.703  -1.814  25.772  0.00  0.00    -0.449 OA
BRANCH  11  12
ATOM     12  C   UNL     1       4.958  -2.959  25.880  0.00  0.00    +0.340 C 
ATOM     13  O   UNL     1       4.250  -3.253  26.829  0.00  0.00    -0.245 OA
BRANCH  12  14
ATOM     14  C   UNL     1       5.045  -3.802  24.623  0.00  0.00    +0.066 A 
ATOM     15  C   UNL     1       4.883  -5.186  24.752  0.00  0.00    +0.064 A 
ATOM     16  C   UNL     1       5.038  -6.022  23.658  0.00  0.00    +0.163 A 
ATOM     17  C   UNL     1       5.331  -5.511  22.406  0.00  0.00    +0.201 A 
ATOM     18  C   UNL     1       5.468  -4.137  22.231  0.00  0.00    +0.163 A 
ATOM     19  C   UNL     1       5.331  -3.269  23.333  0.00  0.00    +0.064 A 
BRANCH  18  20
ATOM     20  O   UNL     1       5.750  -3.724  20.955  0.00  0.00    -0.503 OA
ATOM     21  H   UNL     1       6.116  -4.457  20.434  0.00  0.00    +0.292 HD
ENDBRANCH  18  20
BRANCH  17  22
ATOM     22  O   UNL     1       5.487  -6.386  21.365  0.00  0.00    -0.501 OA
ATOM     23  H   UNL     1       4.817  -7.083  21.516  0.00  0.00    +0.292 HD
ENDBRANCH  17  22
BRANCH  16  24
ATOM     24  O   UNL     1       4.911  -7.366  23.846  0.00  0.00    -0.503 OA
ATOM     25  H   UNL     1       4.058  -7.597  23.426  0.00  0.00    +0.292 HD
ENDBRANCH  16  24
ENDBRANCH  12  14
ENDBRANCH  11  12
ENDBRANCH   6  11
BRANCH   3  26
ATOM     26  C   UNL     1       3.705   3.306  24.328  0.00  0.00    +0.190 C 
BRANCH  26  27
ATOM     27  O   UNL     1       2.987   2.638  23.289  0.00  0.00    -0.392 OA
ATOM     28  H   UNL     1       2.213   3.176  23.055  0.00  0.00    +0.210 HD
ENDBRANCH  26  27
ENDBRANCH   3  26
BRANCH   1  29
ATOM     29  O   UNL     1       7.001   1.022  25.719  0.00  0.00    -0.452 OA
BRANCH  29  40
ATOM     30  C   UNL     1       9.097   0.971  24.566  0.00  0.00    +0.181 A 
ATOM     31  O   UNL     1      10.094   1.605  23.832  0.00  0.00    -0.451 OA
ATOM     32  C   UNL     1      10.184   2.970  23.833  0.00  0.00    +0.147 A 
ATOM     33  C   UNL     1       9.356   3.782  24.594  0.00  0.00    +0.109 A 
ATOM     34  C   UNL     1       9.575   5.173  24.585  0.00  0.00    +0.135 A 
ATOM     35  C   UNL     1      10.603   5.735  23.816  0.00  0.00    +0.091 A 
ATOM     36  C   UNL     1      11.395   4.905  23.035  0.00  0.00    +0.124 A 
ATOM     37  C   UNL     1       8.260   3.122  25.344  0.00  0.00    +0.238 A 
ATOM     38  O   UNL     1       7.455   3.823  25.961  0.00  0.00    -0.283 OA
ATOM     39  C   UNL     1      11.185   3.529  23.031  0.00  0.00    +0.092 A 
ATOM     40  C   UNL     1       8.175   1.623  25.309  0.00  0.00    +0.214 A 
BRANCH  30  42
ATOM     41  C   UNL     1       9.139  -1.116  23.138  0.00  0.00    +0.015 A 
ATOM     42  C   UNL     1       9.181  -0.506  24.409  0.00  0.00    +0.025 A 
ATOM     43  C   UNL     1       9.096  -1.358  25.529  0.00  0.00    +0.060 A 
ATOM     44  C   UNL     1       8.912  -2.727  25.359  0.00  0.00    +0.159 A 
ATOM     45  C   UNL     1       8.841  -3.296  24.090  0.00  0.00    +0.158 A 
ATOM     46  C   UNL     1       8.994  -2.498  22.967  0.00  0.00    +0.050 A 
BRANCH  45  47
ATOM     47  O   UNL     1       8.561  -4.628  23.985  0.00  0.00    -0.503 OA
ATOM     48  H   UNL     1       8.983  -4.966  23.176  0.00  0.00    +0.292 HD
ENDBRANCH  45  47
BRANCH  44  49
ATOM     49  O   UNL     1       8.759  -3.534  26.455  0.00  0.00    -0.503 OA
ATOM     50  H   UNL     1       8.218  -4.281  26.132  0.00  0.00    +0.292 HD
ENDBRANCH  44  49
ENDBRANCH  30  42
BRANCH  36  51
ATOM     51  O   UNL     1      12.399   5.398  22.258  0.00  0.00    -0.507 OA
ATOM     52  H   UNL     1      13.253   5.230  22.691  0.00  0.00    +0.292 HD
ENDBRANCH  36  51
BRANCH  34  53
ATOM     53  O   UNL     1       8.837   6.067  25.310  0.00  0.00    -0.506 OA
ATOM     54  H   UNL     1       8.970   5.901  26.266  0.00  0.00    +0.292 HD
ENDBRANCH  34  53
ENDBRANCH  29  40
ENDBRANCH   1  29
TORSDOF 17
ENDMDL
MODEL 8
REMARK VINA RESULT:      -7.1      2.186      5.529
REMARK  Name = 
REMARK  17 active torsions:
REMARK  status: ('A' for Active; 'I' for Inactive)
REMARK    1  A    between atoms: C_3  and  O_44
REMARK    2  A    between atoms: C_4  and  O_43
REMARK    3  A    between atoms: C_6  and  C_7
REMARK    4  A    between atoms: C_8  and  O_20
REMARK    5  A    between atoms: C_12  and  O_19
REMARK    6  A    between atoms: C_14  and  O_18
REMARK    7  A    between atoms: O_20  and  C_21
REMARK    8  A    between atoms: C_22  and  O_31
REMARK    9  A    between atoms: C_23  and  O_30
REMARK   10  A    between atoms: C_24  and  O_29
REMARK   11  A    between atoms: C_25  and  C_27
REMARK   12  A    between atoms: C_27  and  O_28
REMARK   13  A    between atoms: O_31  and  C_32
REMARK   14  A    between atoms: C_32  and  C_34
REMARK   15  A    between atoms: C_36  and  O_42
REMARK   16  A    between atoms: C_37  and  O_41
REMARK   17  A    between atoms: C_38  and  O_40
REMARK                            x       y       z     vdW  Elec       q    Type
REMARK                         _______ _______ _______ _____ _____    ______ ____
ROOT
ATOM      1  C   UNL     1       7.913  -0.683  24.835  0.00  0.00    +0.352 C 
ATOM      2  O   UNL     1       8.994   0.097  24.274  0.00  0.00    -0.330 OA
ATOM      3  C   UNL     1       8.877   0.323  22.854  0.00  0.00    +0.179 C 
ATOM      4  C   UNL     1       8.532  -0.958  22.049  0.00  0.00    +0.178 C 
ATOM      5  C   UNL     1       7.709  -2.038  22.819  0.00  0.00    +0.192 C 
ATOM      6  C   UNL     1       8.097  -2.116  24.324  0.00  0.00    +0.276 C 
ENDROOT
BRANCH   5   7
ATOM      7  O   UNL     1       7.887  -3.299  22.160  0.00  0.00    -0.385 OA
ATOM      8  H   UNL     1       7.236  -3.326  21.433  0.00  0.00    +0.210 HD
ENDBRANCH   5   7
BRANCH   4   9
ATOM      9  O   UNL     1       9.711  -1.568  21.494  0.00  0.00    -0.386 OA
ATOM     10  H   UNL     1      10.488  -1.053  21.779  0.00  0.00    +0.210 HD
ENDBRANCH   4   9
BRANCH   6  11
ATOM     11  O   UNL     1       7.300  -3.076  25.091  0.00  0.00    -0.449 OA
BRANCH  11  12
ATOM     12  C   UNL     1       7.669  -4.392  25.186  0.00  0.00    +0.340 C 
ATOM     13  O   UNL     1       8.669  -4.883  24.687  0.00  0.00    -0.245 OA
BRANCH  12  14
ATOM     14  C   UNL     1       6.721  -5.175  26.073  0.00  0.00    +0.066 A 
ATOM     15  C   UNL     1       6.954  -5.160  27.452  0.00  0.00    +0.064 A 
ATOM     16  C   UNL     1       6.178  -5.923  28.310  0.00  0.00    +0.163 A 
ATOM     17  C   UNL     1       5.138  -6.699  27.830  0.00  0.00    +0.201 A 
ATOM     18  C   UNL     1       4.854  -6.715  26.467  0.00  0.00    +0.163 A 
ATOM     19  C   UNL     1       5.641  -5.959  25.574  0.00  0.00    +0.064 A 
BRANCH  18  20
ATOM     20  O   UNL     1       3.801  -7.506  26.087  0.00  0.00    -0.503 OA
ATOM     21  H   UNL     1       3.238  -7.039  25.449  0.00  0.00    +0.292 HD
ENDBRANCH  18  20
BRANCH  17  22
ATOM     22  O   UNL     1       4.414  -7.444  28.722  0.00  0.00    -0.501 OA
ATOM     23  H   UNL     1       5.010  -7.572  29.488  0.00  0.00    +0.292 HD
ENDBRANCH  17  22
BRANCH  16  24
ATOM     24  O   UNL     1       6.474  -5.906  29.640  0.00  0.00    -0.503 OA
ATOM     25  H   UNL     1       7.179  -5.234  29.730  0.00  0.00    +0.292 HD
ENDBRANCH  16  24
ENDBRANCH  12  14
ENDBRANCH  11  12
ENDBRANCH   6  11
BRANCH   3  26
ATOM     26  C   UNL     1      10.190   0.974  22.347  0.00  0.00    +0.190 C 
BRANCH  26  27
ATOM     27  O   UNL     1       9.971   2.092  21.484  0.00  0.00    -0.392 OA
ATOM     28  H   UNL     1       9.313   2.674  21.896  0.00  0.00    +0.210 HD
ENDBRANCH  26  27
ENDBRANCH   3  26
BRANCH   1  29
ATOM     29  O   UNL     1       6.660  -0.092  24.447  0.00  0.00    -0.452 OA
BRANCH  29  40
ATOM     30  C   UNL     1       5.934   2.035  25.270  0.00  0.00    +0.181 A 
ATOM     31  O   UNL     1       4.966   2.844  25.853  0.00  0.00    -0.451 OA
ATOM     32  C   UNL     1       3.916   2.282  26.526  0.00  0.00    +0.147 A 
ATOM     33  C   UNL     1       3.789   0.914  26.723  0.00  0.00    +0.109 A 
ATOM     34  C   UNL     1       2.711   0.437  27.492  0.00  0.00    +0.135 A 
ATOM     35  C   UNL     1       1.774   1.319  28.046  0.00  0.00    +0.091 A 
ATOM     36  C   UNL     1       1.902   2.680  27.805  0.00  0.00    +0.124 A 
ATOM     37  C   UNL     1       4.790   0.038  26.067  0.00  0.00    +0.238 A 
ATOM     38  O   UNL     1       4.656  -1.185  26.150  0.00  0.00    -0.283 OA
ATOM     39  C   UNL     1       2.960   3.165  27.041  0.00  0.00    +0.092 A 
ATOM     40  C   UNL     1       5.921   0.685  25.318  0.00  0.00    +0.214 A 
BRANCH  30  42
ATOM     41  C   UNL     1       8.152   3.250  25.241  0.00  0.00    +0.015 A 
ATOM     42  C   UNL     1       6.968   2.856  24.584  0.00  0.00    +0.025 A 
ATOM     43  C   UNL     1       6.710   3.444  23.329  0.00  0.00    +0.060 A 
ATOM     44  C   UNL     1       7.566   4.414  22.817  0.00  0.00    +0.159 A 
ATOM     45  C   UNL     1       8.711   4.805  23.506  0.00  0.00    +0.158 A 
ATOM     46  C   UNL     1       9.035   4.195  24.707  0.00  0.00    +0.050 A 
BRANCH  45  47
ATOM     47  O   UNL     1       9.459   5.831  23.002  0.00  0.00    -0.503 OA
ATOM     48  H   UNL     1       9.065   6.670  23.300  0.00  0.00    +0.292 HD
ENDBRANCH  45  47
BRANCH  44  49
ATOM     49  O   UNL     1       7.265   5.029  21.630  0.00  0.00    -0.503 OA
ATOM     50  H   UNL     1       6.520   5.623  21.847  0.00  0.00    +0.292 HD
ENDBRANCH  44  49
ENDBRANCH  30  42
BRANCH  36  51
ATOM     51  O   UNL     1       1.013   3.583  28.306  0.00  0.00    -0.507 OA
ATOM     52  H   UNL     1       1.419   4.466  28.309  0.00  0.00    +0.292 HD
ENDBRANCH  36  51
BRANCH  34  53
ATOM     53  O   UNL     1       2.497  -0.886  27.769  0.00  0.00    -0.506 OA
ATOM     54  H   UNL     1       3.256  -1.240  28.278  0.00  0.00    +0.292 HD
ENDBRANCH  34  53
ENDBRANCH  29  40
ENDBRANCH   1  29
TORSDOF 17
ENDMDL
MODEL 9
REMARK VINA RESULT:      -7.0      2.057      7.040
REMARK  Name = 
REMARK  17 active torsions:
REMARK  status: ('A' for Active; 'I' for Inactive)
REMARK    1  A    between atoms: C_3  and  O_44
REMARK    2  A    between atoms: C_4  and  O_43
REMARK    3  A    between atoms: C_6  and  C_7
REMARK    4  A    between atoms: C_8  and  O_20
REMARK    5  A    between atoms: C_12  and  O_19
REMARK    6  A    between atoms: C_14  and  O_18
REMARK    7  A    between atoms: O_20  and  C_21
REMARK    8  A    between atoms: C_22  and  O_31
REMARK    9  A    between atoms: C_23  and  O_30
REMARK   10  A    between atoms: C_24  and  O_29
REMARK   11  A    between atoms: C_25  and  C_27
REMARK   12  A    between atoms: C_27  and  O_28
REMARK   13  A    between atoms: O_31  and  C_32
REMARK   14  A    between atoms: C_32  and  C_34
REMARK   15  A    between atoms: C_36  and  O_42
REMARK   16  A    between atoms: C_37  and  O_41
REMARK   17  A    between atoms: C_38  and  O_40
REMARK                            x       y       z     vdW  Elec       q    Type
REMARK                         _______ _______ _______ _____ _____    ______ ____
ROOT
ATOM      1  C   UNL     1       6.226   0.138  26.698  0.00  0.00    +0.352 C 
ATOM      2  O   UNL     1       5.513  -0.570  27.738  0.00  0.00    -0.330 OA
ATOM      3  C   UNL     1       4.125  -0.196  27.852  0.00  0.00    +0.179 C 
ATOM      4  C   UNL     1       3.894   1.338  27.854  0.00  0.00    +0.178 C 
ATOM      5  C   UNL     1       4.949   2.180  27.070  0.00  0.00    +0.192 C 
ATOM      6  C   UNL     1       6.382   1.584  27.181  0.00  0.00    +0.276 C 
ENDROOT
BRANCH   5   7
ATOM      7  O   UNL     1       4.899   3.531  27.550  0.00  0.00    -0.385 OA
ATOM      8  H   UNL     1       5.558   3.593  28.269  0.00  0.00    +0.210 HD
ENDBRANCH   5   7
BRANCH   4   9
ATOM      9  O   UNL     1       3.775   1.854  29.192  0.00  0.00    -0.386 OA
ATOM     10  H   UNL     1       4.346   1.326  29.778  0.00  0.00    +0.210 HD
ENDBRANCH   4   9
BRANCH   6  11
ATOM     11  O   UNL     1       7.387   2.314  26.405  0.00  0.00    -0.449 OA
BRANCH  11  12
ATOM     12  C   UNL     1       7.457   3.682  26.439  0.00  0.00    +0.340 C 
ATOM     13  O   UNL     1       7.604   4.357  27.446  0.00  0.00    -0.245 OA
BRANCH  12  14
ATOM     14  C   UNL     1       7.413   4.278  25.046  0.00  0.00    +0.066 A 
ATOM     15  C   UNL     1       8.583   4.864  24.549  0.00  0.00    +0.064 A 
ATOM     16  C   UNL     1       8.588   5.503  23.320  0.00  0.00    +0.163 A 
ATOM     17  C   UNL     1       7.447   5.557  22.540  0.00  0.00    +0.201 A 
ATOM     18  C   UNL     1       6.272   4.956  22.985  0.00  0.00    +0.163 A 
ATOM     19  C   UNL     1       6.239   4.315  24.240  0.00  0.00    +0.064 A 
BRANCH  18  20
ATOM     20  O   UNL     1       5.197   5.054  22.140  0.00  0.00    -0.503 OA
ATOM     21  H   UNL     1       4.966   4.182  21.781  0.00  0.00    +0.292 HD
ENDBRANCH  18  20
BRANCH  17  22
ATOM     22  O   UNL     1       7.507   6.214  21.340  0.00  0.00    -0.501 OA
ATOM     23  H   UNL     1       7.743   5.526  20.686  0.00  0.00    +0.292 HD
ENDBRANCH  17  22
BRANCH  16  24
ATOM     24  O   UNL     1       9.742   6.095  22.902  0.00  0.00    -0.503 OA
ATOM     25  H   UNL     1      10.317   6.109  23.694  0.00  0.00    +0.292 HD
ENDBRANCH  16  24
ENDBRANCH  12  14
ENDBRANCH  11  12
ENDBRANCH   6  11
BRANCH   3  26
ATOM     26  C   UNL     1       3.539  -0.858  29.127  0.00  0.00    +0.190 C 
BRANCH  26  27
ATOM     27  O   UNL     1       4.339  -0.650  30.292  0.00  0.00    -0.392 OA
ATOM     28  H   UNL     1       4.575  -1.517  30.662  0.00  0.00    +0.210 HD
ENDBRANCH  26  27
ENDBRANCH   3  26
BRANCH   1  29
ATOM     29  O   UNL     1       5.493   0.021  25.464  0.00  0.00    -0.452 OA
BRANCH  29  40
ATOM     30  C   UNL     1       6.858  -1.015  23.794  0.00  0.00    +0.181 A 
ATOM     31  O   UNL     1       7.341  -2.151  23.154  0.00  0.00    -0.451 OA
ATOM     32  C   UNL     1       6.681  -3.343  23.283  0.00  0.00    +0.147 A 
ATOM     33  C   UNL     1       5.490  -3.477  23.982  0.00  0.00    +0.109 A 
ATOM     34  C   UNL     1       4.849  -4.730  23.995  0.00  0.00    +0.135 A 
ATOM     35  C   UNL     1       5.402  -5.830  23.326  0.00  0.00    +0.091 A 
ATOM     36  C   UNL     1       6.612  -5.680  22.664  0.00  0.00    +0.124 A 
ATOM     37  C   UNL     1       4.991  -2.283  24.706  0.00  0.00    +0.238 A 
ATOM     38  O   UNL     1       3.982  -2.392  25.407  0.00  0.00    -0.283 OA
ATOM     39  C   UNL     1       7.259  -4.447  22.647  0.00  0.00    +0.092 A 
ATOM     40  C   UNL     1       5.746  -0.993  24.561  0.00  0.00    +0.214 A 
BRANCH  30  42
ATOM     41  C   UNL     1       7.468   1.052  22.469  0.00  0.00    +0.015 A 
ATOM     42  C   UNL     1       7.735   0.157  23.526  0.00  0.00    +0.025 A 
ATOM     43  C   UNL     1       8.975   0.297  24.181  0.00  0.00    +0.060 A 
ATOM     44  C   UNL     1       9.901   1.239  23.742  0.00  0.00    +0.159 A 
ATOM     45  C   UNL     1       9.620   2.088  22.674  0.00  0.00    +0.158 A 
ATOM     46  C   UNL     1       8.382   2.027  22.054  0.00  0.00    +0.050 A 
BRANCH  45  47
ATOM     47  O   UNL     1      10.602   2.922  22.226  0.00  0.00    -0.503 OA
ATOM     48  H   UNL     1      10.304   3.840  22.354  0.00  0.00    +0.292 HD
ENDBRANCH  45  47
BRANCH  44  49
ATOM     49  O   UNL     1      11.130   1.317  24.342  0.00  0.00    -0.503 OA
ATOM     50  H   UNL     1      11.340   2.271  24.341  0.00  0.00    +0.292 HD
ENDBRANCH  44  49
ENDBRANCH  30  42
BRANCH  36  51
ATOM     51  O   UNL     1       7.203  -6.717  22.007  0.00  0.00    -0.507 OA
ATOM     52  H   UNL     1       7.912  -6.375  21.437  0.00  0.00    +0.292 HD
ENDBRANCH  36  51
BRANCH  34  53
ATOM     53  O   UNL     1       3.663  -4.974  24.632  0.00  0.00    -0.506 OA
ATOM     54  H   UNL     1       3.625  -4.455  25.462  0.00  0.00    +0.292 HD
ENDBRANCH  34  53
ENDBRANCH  29  40
ENDBRANCH   1  29
TORSDOF 17
ENDMDL
