MODEL 1
REMARK VINA RESULT:      -7.5      0.000      0.000
REMARK  Name = 
REMARK  17 active torsions:
REMARK  status: ('A' for Active; 'I' for Inactive)
REMARK    1  A    between atoms: C_3  and  O_48
REMARK    2  A    between atoms: C_4  and  O_47
REMARK    3  A    between atoms: C_6  and  C_7
REMARK    4  A    between atoms: C_8  and  O_20
REMARK    5  A    between atoms: C_12  and  O_19
REMARK    6  A    between atoms: C_14  and  O_18
REMARK    7  A    between atoms: O_20  and  C_21
REMARK    8  A    between atoms: C_23  and  O_34
REMARK    9  A    between atoms: C_24  and  O_33
REMARK   10  A    between atoms: C_26  and  O_32
REMARK   11  A    between atoms: C_28  and  C_30
REMARK   12  A    between atoms: C_30  and  O_31
REMARK   13  A    between atoms: O_34  and  C_35
REMARK   14  A    between atoms: C_37  and  O_46
REMARK   15  A    between atoms: C_39  and  O_45
REMARK   16  A    between atoms: C_40  and  C_43
REMARK   17  A    between atoms: C_43  and  O_44
REMARK                            x       y       z     vdW  Elec       q    Type
REMARK                         _______ _______ _______ _____ _____    ______ ____
ROOT
ATOM      1  O   UNL     1       6.820  -2.404  24.527  0.00  0.00    -0.453 OA
ENDROOT
BRANCH   1  12
ATOM      2  C   UNL     1       7.760  -0.504  25.914  0.00  0.00    +0.181 A 
ATOM      3  O   UNL     1       8.783   0.506  25.810  0.00  0.00    -0.451 OA
ATOM      4  C   UNL     1       9.227   0.868  24.569  0.00  0.00    +0.147 A 
ATOM      5  C   UNL     1       9.268  -0.073  23.569  0.00  0.00    +0.109 A 
ATOM      6  C   UNL     1       9.701   0.204  22.278  0.00  0.00    +0.135 A 
ATOM      7  C   UNL     1      10.186   1.463  21.997  0.00  0.00    +0.091 A 
ATOM      8  C   UNL     1      10.222   2.408  23.026  0.00  0.00    +0.124 A 
ATOM      9  C   UNL     1       8.900  -1.390  23.969  0.00  0.00    +0.238 A 
ATOM     10  O   UNL     1       9.473  -2.339  23.450  0.00  0.00    -0.283 OA
ATOM     11  C   UNL     1       9.726   2.133  24.307  0.00  0.00    +0.092 A 
ATOM     12  C   UNL     1       7.759  -1.478  24.916  0.00  0.00    +0.214 A 
BRANCH   2  14
ATOM     13  C   UNL     1       5.618  -0.688  27.318  0.00  0.00    +0.015 A 
ATOM     14  C   UNL     1       6.939  -0.111  27.210  0.00  0.00    +0.025 A 
ATOM     15  C   UNL     1       7.211   0.811  28.241  0.00  0.00    +0.060 A 
ATOM     16  C   UNL     1       6.226   1.090  29.266  0.00  0.00    +0.159 A 
ATOM     17  C   UNL     1       4.969   0.492  29.301  0.00  0.00    +0.158 A 
ATOM     18  C   UNL     1       4.653  -0.410  28.323  0.00  0.00    +0.050 A 
BRANCH  17  19
ATOM     19  O   UNL     1       4.083   0.792  30.308  0.00  0.00    -0.503 OA
ATOM     20  H   UNL     1       3.443   0.056  30.367  0.00  0.00    +0.292 HD
ENDBRANCH  17  19
BRANCH  16  21
ATOM     21  O   UNL     1       6.494   2.014  30.256  0.00  0.00    -0.503 OA
ATOM     22  H   UNL     1       6.420   2.885  29.821  0.00  0.00    +0.292 HD
ENDBRANCH  16  21
ENDBRANCH   2  14
BRANCH   8  23
ATOM     23  O   UNL     1      10.781   3.632  22.807  0.00  0.00    -0.507 OA
ATOM     24  H   UNL     1      11.469   3.775  23.481  0.00  0.00    +0.292 HD
ENDBRANCH   8  23
BRANCH   6  25
ATOM     25  O   UNL     1       9.671  -0.721  21.273  0.00  0.00    -0.506 OA
ATOM     26  H   UNL     1       9.689  -0.245  20.413  0.00  0.00    +0.292 HD
ENDBRANCH   6  25
ENDBRANCH   1  12
BRANCH   1  27
ATOM     27  C   UNL     1       7.164  -3.779  24.015  0.00  0.00    +0.340 C 
ATOM     28  O   UNL     1       7.164  -3.953  22.579  0.00  0.00    -0.331 OA
ATOM     29  C   UNL     1       5.984  -4.394  21.864  0.00  0.00    +0.179 C 
ATOM     30  C   UNL     1       4.667  -4.574  22.674  0.00  0.00    +0.177 C 
ATOM     31  C   UNL     1       4.783  -4.153  24.139  0.00  0.00    +0.180 C 
ATOM     32  C   UNL     1       6.150  -4.654  24.714  0.00  0.00    +0.221 C 
BRANCH  31  33
ATOM     33  O   UNL     1       4.510  -2.744  24.171  0.00  0.00    -0.386 OA
ATOM     34  H   UNL     1       4.142  -2.505  25.054  0.00  0.00    +0.210 HD
ENDBRANCH  31  33
BRANCH  30  35
ATOM     35  O   UNL     1       4.182  -5.920  22.638  0.00  0.00    -0.386 OA
ATOM     36  H   UNL     1       3.250  -5.871  22.344  0.00  0.00    +0.210 HD
ENDBRANCH  30  35
BRANCH  32  37
ATOM     37  O   UNL     1       6.320  -4.373  26.113  0.00  0.00    -0.337 OA
BRANCH  37  38
ATOM     38  C   UNL     1       6.380  -5.440  27.054  0.00  0.00    +0.282 C 
ATOM     39  O   UNL     1       5.711  -6.518  26.374  0.00  0.00    -0.341 OA
ATOM     40  C   UNL     1       4.310  -6.345  26.706  0.00  0.00    +0.178 C 
ATOM     41  C   UNL     1       4.371  -6.239  28.219  0.00  0.00    +0.179 C 
ATOM     42  C   UNL     1       5.536  -5.249  28.373  0.00  0.00    +0.201 C 
BRANCH  42  43
ATOM     43  O   UNL     1       4.988  -3.943  28.537  0.00  0.00    -0.384 OA
ATOM     44  H   UNL     1       5.155  -3.443  27.720  0.00  0.00    +0.210 HD
ENDBRANCH  42  43
BRANCH  41  45
ATOM     45  O   UNL     1       4.687  -7.499  28.826  0.00  0.00    -0.386 OA
ATOM     46  H   UNL     1       4.062  -8.161  28.477  0.00  0.00    +0.210 HD
ENDBRANCH  41  45
BRANCH  40  47
ATOM     47  C   UNL     1       3.502  -7.500  26.143  0.00  0.00    +0.190 C 
BRANCH  47  48
ATOM     48  O   UNL     1       3.864  -7.766  24.785  0.00  0.00    -0.392 OA
ATOM     49  H   UNL     1       3.080  -8.095  24.308  0.00  0.00    +0.210 HD
ENDBRANCH  47  48
ENDBRANCH  40  47
ENDBRANCH  37  38
ENDBRANCH  32  37
BRANCH  29  50
ATOM     50  C   UNL     1       6.219  -5.635  20.931  0.00  0.00    +0.190 C 
BRANCH  50  51
ATOM     51  O   UNL     1       6.496  -6.861  21.601  0.00  0.00    -0.392 OA
ATOM     52  H   UNL     1       7.118  -6.688  22.324  0.00  0.00    +0.210 HD
ENDBRANCH  50  51
ENDBRANCH  29  50
ENDBRANCH   1  27
TORSDOF 17
ENDMDL
MODEL 2
REMARK VINA RESULT:      -7.5      1.938      6.011
REMARK  Name = 
REMARK  17 active torsions:
REMARK  status: ('A' for Active; 'I' for Inactive)
REMARK    1  A    between atoms: C_3  and  O_48
REMARK    2  A    between atoms: C_4  and  O_47
REMARK    3  A    between atoms: C_6  and  C_7
REMARK    4  A    between atoms: C_8  and  O_20
REMARK    5  A    between atoms: C_12  and  O_19
REMARK    6  A    between atoms: C_14  and  O_18
REMARK    7  A    between atoms: O_20  and  C_21
REMARK    8  A    between atoms: C_23  and  O_34
REMARK    9  A    between atoms: C_24  and  O_33
REMARK   10  A    between atoms: C_26  and  O_32
REMARK   11  A    between atoms: C_28  and  C_30
REMARK   12  A    between atoms: C_30  and  O_31
REMARK   13  A    between atoms: O_34  and  C_35
REMARK   14  A    between atoms: C_37  and  O_46
REMARK   15  A    between atoms: C_39  and  O_45
REMARK   16  A    between atoms: C_40  and  C_43
REMARK   17  A    between atoms: C_43  and  O_44
REMARK                            x       y       z     vdW  Elec       q    Type
REMARK                         _______ _______ _______ _____ _____    ______ ____
ROOT
ATOM      1  O   UNL     1       5.507  -0.735  26.285  0.00  0.00    -0.453 OA
ENDROOT
BRANCH   1  12
ATOM      2  C   UNL     1       6.133  -1.188  23.873  0.00  0.00    +0.181 A 
ATOM      3  O   UNL     1       6.784  -0.511  22.781  0.00  0.00    -0.451 OA
ATOM      4  C   UNL     1       7.628   0.529  23.059  0.00  0.00    +0.147 A 
ATOM      5  C   UNL     1       7.365   1.336  24.140  0.00  0.00    +0.109 A 
ATOM      6  C   UNL     1       8.166   2.412  24.500  0.00  0.00    +0.135 A 
ATOM      7  C   UNL     1       9.238   2.739  23.698  0.00  0.00    +0.091 A 
ATOM      8  C   UNL     1       9.471   1.973  22.552  0.00  0.00    +0.124 A 
ATOM      9  C   UNL     1       6.157   1.035  24.833  0.00  0.00    +0.238 A 
ATOM     10  O   UNL     1       5.516   1.960  25.316  0.00  0.00    -0.283 OA
ATOM     11  C   UNL     1       8.691   0.854  22.233  0.00  0.00    +0.092 A 
ATOM     12  C   UNL     1       5.852  -0.409  24.995  0.00  0.00    +0.214 A 
BRANCH   2  14
ATOM     13  C   UNL     1       7.117  -3.257  22.712  0.00  0.00    +0.015 A 
ATOM     14  C   UNL     1       5.969  -2.683  23.376  0.00  0.00    +0.025 A 
ATOM     15  C   UNL     1       4.849  -3.539  23.352  0.00  0.00    +0.060 A 
ATOM     16  C   UNL     1       4.922  -4.839  22.718  0.00  0.00    +0.159 A 
ATOM     17  C   UNL     1       6.070  -5.322  22.094  0.00  0.00    +0.158 A 
ATOM     18  C   UNL     1       7.185  -4.531  22.088  0.00  0.00    +0.050 A 
BRANCH  17  19
ATOM     19  O   UNL     1       6.077  -6.570  21.520  0.00  0.00    -0.503 OA
ATOM     20  H   UNL     1       5.687  -6.488  20.628  0.00  0.00    +0.292 HD
ENDBRANCH  17  19
BRANCH  16  21
ATOM     21  O   UNL     1       3.811  -5.658  22.678  0.00  0.00    -0.503 OA
ATOM     22  H   UNL     1       3.776  -6.084  23.555  0.00  0.00    +0.292 HD
ENDBRANCH  16  21
ENDBRANCH   2  14
BRANCH   8  23
ATOM     23  O   UNL     1      10.465   2.326  21.688  0.00  0.00    -0.507 OA
ATOM     24  H   UNL     1      10.415   3.288  21.547  0.00  0.00    +0.292 HD
ENDBRANCH   8  23
BRANCH   6  25
ATOM     25  O   UNL     1       7.936   3.164  25.617  0.00  0.00    -0.506 OA
ATOM     26  H   UNL     1       7.040   2.947  25.958  0.00  0.00    +0.292 HD
ENDBRANCH   6  25
ENDBRANCH   1  12
BRANCH   1  27
ATOM     27  C   UNL     1       4.089  -0.968  26.738  0.00  0.00    +0.340 C 
ATOM     28  O   UNL     1       3.161   0.125  26.547  0.00  0.00    -0.331 OA
ATOM     29  C   UNL     1       2.928   1.117  27.576  0.00  0.00    +0.179 C 
ATOM     30  C   UNL     1       3.790   1.040  28.869  0.00  0.00    +0.177 C 
ATOM     31  C   UNL     1       4.864  -0.047  28.829  0.00  0.00    +0.180 C 
ATOM     32  C   UNL     1       4.264  -1.344  28.191  0.00  0.00    +0.221 C 
BRANCH  31  33
ATOM     33  O   UNL     1       6.010   0.549  28.202  0.00  0.00    -0.386 OA
ATOM     34  H   UNL     1       6.072   1.496  28.473  0.00  0.00    +0.210 HD
ENDBRANCH  31  33
BRANCH  30  35
ATOM     35  O   UNL     1       2.999   0.836  30.044  0.00  0.00    -0.386 OA
ATOM     36  H   UNL     1       2.107   0.579  29.738  0.00  0.00    +0.210 HD
ENDBRANCH  30  35
BRANCH  32  37
ATOM     37  O   UNL     1       5.178  -2.452  28.179  0.00  0.00    -0.337 OA
BRANCH  37  38
ATOM     38  C   UNL     1       4.884  -3.614  27.409  0.00  0.00    +0.282 C 
ATOM     39  O   UNL     1       4.605  -4.611  28.409  0.00  0.00    -0.341 OA
ATOM     40  C   UNL     1       5.899  -5.184  28.724  0.00  0.00    +0.178 C 
ATOM     41  C   UNL     1       6.418  -5.530  27.340  0.00  0.00    +0.179 C 
ATOM     42  C   UNL     1       6.088  -4.228  26.595  0.00  0.00    +0.201 C 
BRANCH  42  43
ATOM     43  O   UNL     1       7.261  -3.418  26.577  0.00  0.00    -0.384 OA
ATOM     44  H   UNL     1       8.030  -4.005  26.488  0.00  0.00    +0.210 HD
ENDBRANCH  42  43
BRANCH  41  45
ATOM     45  O   UNL     1       5.710  -6.639  26.770  0.00  0.00    -0.386 OA
ATOM     46  H   UNL     1       5.071  -6.956  27.435  0.00  0.00    +0.210 HD
ENDBRANCH  41  45
BRANCH  40  47
ATOM     47  C   UNL     1       5.727  -6.344  29.688  0.00  0.00    +0.190 C 
BRANCH  47  48
ATOM     48  O   UNL     1       6.654  -7.394  29.398  0.00  0.00    -0.392 OA
ATOM     49  H   UNL     1       7.506  -6.999  29.135  0.00  0.00    +0.210 HD
ENDBRANCH  47  48
ENDBRANCH  40  47
ENDBRANCH  37  38
ENDBRANCH  32  37
BRANCH  29  50
ATOM     50  C   UNL     1       1.415   1.321  27.947  0.00  0.00    +0.190 C 
BRANCH  50  51
ATOM     51  O   UNL     1       0.722   0.148  28.361  0.00  0.00    -0.392 OA
ATOM     52  H   UNL     1       1.110  -0.619  27.913  0.00  0.00    +0.210 HD
ENDBRANCH  50  51
ENDBRANCH  29  50
ENDBRANCH   1  27
TORSDOF 17
ENDMDL
MODEL 3
REMARK VINA RESULT:      -7.4      2.029      6.695
REMARK  Name = 
REMARK  17 active torsions:
REMARK  status: ('A' for Active; 'I' for Inactive)
REMARK    1  A    between atoms: C_3  and  O_48
REMARK    2  A    between atoms: C_4  and  O_47
REMARK    3  A    between atoms: C_6  and  C_7
REMARK    4  A    between atoms: C_8  and  O_20
REMARK    5  A    between atoms: C_12  and  O_19
REMARK    6  A    between atoms: C_14  and  O_18
REMARK    7  A    between atoms: O_20  and  C_21
REMARK    8  A    between atoms: C_23  and  O_34
REMARK    9  A    between atoms: C_24  and  O_33
REMARK   10  A    between atoms: C_26  and  O_32
REMARK   11  A    between atoms: C_28  and  C_30
REMARK   12  A    between atoms: C_30  and  O_31
REMARK   13  A    between atoms: O_34  and  C_35
REMARK   14  A    between atoms: C_37  and  O_46
REMARK   15  A    between atoms: C_39  and  O_45
REMARK   16  A    between atoms: C_40  and  C_43
REMARK   17  A    between atoms: C_43  and  O_44
REMARK                            x       y       z     vdW  Elec       q    Type
REMARK                         _______ _______ _______ _____ _____    ______ ____
ROOT
ATOM      1  O   UNL     1       6.530   0.047  24.964  0.00  0.00    -0.453 OA
ENDROOT
BRANCH   1  12
ATOM      2  C   UNL     1       5.674  -1.282  26.944  0.00  0.00    +0.181 A 
ATOM      3  O   UNL     1       4.934  -1.055  28.158  0.00  0.00    -0.451 OA
ATOM      4  C   UNL     1       4.136   0.052  28.246  0.00  0.00    +0.147 A 
ATOM      5  C   UNL     1       4.511   1.203  27.596  0.00  0.00    +0.109 A 
ATOM      6  C   UNL     1       3.763   2.374  27.627  0.00  0.00    +0.135 A 
ATOM      7  C   UNL     1       2.626   2.414  28.405  0.00  0.00    +0.091 A 
ATOM      8  C   UNL     1       2.275   1.274  29.133  0.00  0.00    +0.124 A 
ATOM      9  C   UNL     1       5.774   1.138  26.940  0.00  0.00    +0.238 A 
ATOM     10  O   UNL     1       6.471   2.144  26.915  0.00  0.00    -0.283 OA
ATOM     11  C   UNL     1       3.005   0.082  29.045  0.00  0.00    +0.092 A 
ATOM     12  C   UNL     1       6.071  -0.141  26.247  0.00  0.00    +0.214 A 
BRANCH   2  14
ATOM     13  C   UNL     1       4.509  -3.562  26.751  0.00  0.00    +0.015 A 
ATOM     14  C   UNL     1       5.769  -2.859  26.821  0.00  0.00    +0.025 A 
ATOM     15  C   UNL     1       6.872  -3.734  26.890  0.00  0.00    +0.060 A 
ATOM     16  C   UNL     1       6.682  -5.170  26.880  0.00  0.00    +0.159 A 
ATOM     17  C   UNL     1       5.429  -5.775  26.812  0.00  0.00    +0.158 A 
ATOM     18  C   UNL     1       4.325  -4.971  26.744  0.00  0.00    +0.050 A 
BRANCH  17  19
ATOM     19  O   UNL     1       5.317  -7.144  26.795  0.00  0.00    -0.503 OA
ATOM     20  H   UNL     1       6.061  -7.494  26.267  0.00  0.00    +0.292 HD
ENDBRANCH  17  19
BRANCH  16  21
ATOM     21  O   UNL     1       7.768  -6.016  26.974  0.00  0.00    -0.503 OA
ATOM     22  H   UNL     1       7.965  -6.283  26.056  0.00  0.00    +0.292 HD
ENDBRANCH  16  21
ENDBRANCH   2  14
BRANCH   8  23
ATOM     23  O   UNL     1       1.210   1.310  29.983  0.00  0.00    -0.507 OA
ATOM     24  H   UNL     1       1.397   1.973  30.672  0.00  0.00    +0.292 HD
ENDBRANCH   8  23
BRANCH   6  25
ATOM     25  O   UNL     1       4.108   3.490  26.920  0.00  0.00    -0.506 OA
ATOM     26  H   UNL     1       3.879   4.281  27.458  0.00  0.00    +0.292 HD
ENDBRANCH   6  25
ENDBRANCH   1  12
BRANCH   1  27
ATOM     27  C   UNL     1       7.971  -0.128  24.558  0.00  0.00    +0.340 C 
ATOM     28  O   UNL     1       8.846   1.004  24.773  0.00  0.00    -0.331 OA
ATOM     29  C   UNL     1       9.070   2.000  23.745  0.00  0.00    +0.179 C 
ATOM     30  C   UNL     1       8.254   1.880  22.426  0.00  0.00    +0.177 C 
ATOM     31  C   UNL     1       7.226   0.750  22.438  0.00  0.00    +0.180 C 
ATOM     32  C   UNL     1       7.858  -0.518  23.103  0.00  0.00    +0.221 C 
BRANCH  31  33
ATOM     33  O   UNL     1       6.036   1.300  23.025  0.00  0.00    -0.386 OA
ATOM     34  H   UNL     1       5.246   0.892  22.599  0.00  0.00    +0.210 HD
ENDBRANCH  31  33
BRANCH  30  35
ATOM     35  O   UNL     1       9.090   1.704  21.278  0.00  0.00    -0.386 OA
ATOM     36  H   UNL     1       9.525   0.835  21.381  0.00  0.00    +0.210 HD
ENDBRANCH  30  35
BRANCH  32  37
ATOM     37  O   UNL     1       6.992  -1.664  23.093  0.00  0.00    -0.337 OA
BRANCH  37  38
ATOM     38  C   UNL     1       7.273  -2.765  22.235  0.00  0.00    +0.282 C 
ATOM     39  O   UNL     1       5.986  -3.390  22.068  0.00  0.00    -0.341 OA
ATOM     40  C   UNL     1       5.885  -4.319  23.176  0.00  0.00    +0.178 C 
ATOM     41  C   UNL     1       7.191  -5.080  23.050  0.00  0.00    +0.179 C 
ATOM     42  C   UNL     1       8.167  -3.911  22.849  0.00  0.00    +0.201 C 
BRANCH  42  43
ATOM     43  O   UNL     1       8.744  -3.593  24.113  0.00  0.00    -0.384 OA
ATOM     44  H   UNL     1       9.478  -4.211  24.272  0.00  0.00    +0.210 HD
ENDBRANCH  42  43
BRANCH  41  45
ATOM     45  O   UNL     1       7.191  -5.948  21.909  0.00  0.00    -0.386 OA
ATOM     46  H   UNL     1       7.108  -6.864  22.234  0.00  0.00    +0.210 HD
ENDBRANCH  41  45
BRANCH  40  47
ATOM     47  C   UNL     1       4.612  -5.137  23.047  0.00  0.00    +0.190 C 
BRANCH  47  48
ATOM     48  O   UNL     1       4.853  -6.512  23.357  0.00  0.00    -0.392 OA
ATOM     49  H   UNL     1       5.506  -6.868  22.726  0.00  0.00    +0.210 HD
ENDBRANCH  47  48
ENDBRANCH  40  47
ENDBRANCH  37  38
ENDBRANCH  32  37
BRANCH  29  50
ATOM     50  C   UNL     1      10.584   2.266  23.422  0.00  0.00    +0.190 C 
BRANCH  50  51
ATOM     51  O   UNL     1      10.894   3.584  22.981  0.00  0.00    -0.392 OA
ATOM     52  H   UNL     1      11.083   4.136  23.756  0.00  0.00    +0.210 HD
ENDBRANCH  50  51
ENDBRANCH  29  50
ENDBRANCH   1  27
TORSDOF 17
ENDMDL
MODEL 4
REMARK VINA RESULT:      -7.4      2.012      5.587
REMARK  Name = 
REMARK  17 active torsions:
REMARK  status: ('A' for Active; 'I' for Inactive)
REMARK    1  A    between atoms: C_3  and  O_48
REMARK    2  A    between atoms: C_4  and  O_47
REMARK    3  A    between atoms: C_6  and  C_7
REMARK    4  A    between atoms: C_8  and  O_20
REMARK    5  A    between atoms: C_12  and  O_19
REMARK    6  A    between atoms: C_14  and  O_18
REMARK    7  A    between atoms: O_20  and  C_21
REMARK    8  A    between atoms: C_23  and  O_34
REMARK    9  A    between atoms: C_24  and  O_33
REMARK   10  A    between atoms: C_26  and  O_32
REMARK   11  A    between atoms: C_28  and  C_30
REMARK   12  A    between atoms: C_30  and  O_31
REMARK   13  A    between atoms: O_34  and  C_35
REMARK   14  A    between atoms: C_37  and  O_46
REMARK   15  A    between atoms: C_39  and  O_45
REMARK   16  A    between atoms: C_40  and  C_43
REMARK   17  A    between atoms: C_43  and  O_44
REMARK                            x       y       z     vdW  Elec       q    Type
REMARK                         _______ _______ _______ _____ _____    ______ ____
ROOT
ATOM      1  O   UNL     1       5.279  -3.167  24.860  0.00  0.00    -0.453 OA
ENDROOT
BRANCH   1  12
ATOM      2  C   UNL     1       5.836  -0.698  24.976  0.00  0.00    +0.181 A 
ATOM      3  O   UNL     1       5.541   0.437  25.812  0.00  0.00    -0.451 OA
ATOM      4  C   UNL     1       5.134   0.220  27.099  0.00  0.00    +0.147 A 
ATOM      5  C   UNL     1       4.385  -0.896  27.387  0.00  0.00    +0.109 A 
ATOM      6  C   UNL     1       3.930  -1.200  28.664  0.00  0.00    +0.135 A 
ATOM      7  C   UNL     1       4.174  -0.307  29.685  0.00  0.00    +0.091 A 
ATOM      8  C   UNL     1       4.868   0.869  29.390  0.00  0.00    +0.124 A 
ATOM      9  C   UNL     1       4.039  -1.694  26.259  0.00  0.00    +0.238 A 
ATOM     10  O   UNL     1       2.949  -2.251  26.251  0.00  0.00    -0.283 OA
ATOM     11  C   UNL     1       5.373   1.135  28.111  0.00  0.00    +0.092 A 
ATOM     12  C   UNL     1       5.103  -1.856  25.236  0.00  0.00    +0.214 A 
BRANCH   2  14
ATOM     13  C   UNL     1       7.211   1.235  23.992  0.00  0.00    +0.015 A 
ATOM     14  C   UNL     1       6.975  -0.191  23.999  0.00  0.00    +0.025 A 
ATOM     15  C   UNL     1       7.737  -0.868  23.026  0.00  0.00    +0.060 A 
ATOM     16  C   UNL     1       8.641  -0.145  22.155  0.00  0.00    +0.159 A 
ATOM     17  C   UNL     1       8.813   1.236  22.209  0.00  0.00    +0.158 A 
ATOM     18  C   UNL     1       8.097   1.942  23.136  0.00  0.00    +0.050 A 
BRANCH  17  19
ATOM     19  O   UNL     1       9.696   1.862  21.362  0.00  0.00    -0.503 OA
ATOM     20  H   UNL     1       9.324   1.814  20.460  0.00  0.00    +0.292 HD
ENDBRANCH  17  19
BRANCH  16  21
ATOM     21  O   UNL     1       9.363  -0.816  21.188  0.00  0.00    -0.503 OA
ATOM     22  H   UNL     1      10.269  -0.882  21.545  0.00  0.00    +0.292 HD
ENDBRANCH  16  21
ENDBRANCH   2  14
BRANCH   8  23
ATOM     23  O   UNL     1       5.044   1.815  30.355  0.00  0.00    -0.507 OA
ATOM     24  H   UNL     1       6.000   1.896  30.529  0.00  0.00    +0.292 HD
ENDBRANCH   8  23
BRANCH   6  25
ATOM     25  O   UNL     1       3.247  -2.347  28.952  0.00  0.00    -0.506 OA
ATOM     26  H   UNL     1       2.368  -2.304  28.514  0.00  0.00    +0.292 HD
ENDBRANCH   6  25
ENDBRANCH   1  12
BRANCH   1  27
ATOM     27  C   UNL     1       6.257  -4.102  25.524  0.00  0.00    +0.340 C 
ATOM     28  O   UNL     1       7.644  -3.695  25.524  0.00  0.00    -0.331 OA
ATOM     29  C   UNL     1       8.557  -4.095  24.471  0.00  0.00    +0.179 C 
ATOM     30  C   UNL     1       7.975  -4.894  23.269  0.00  0.00    +0.177 C 
ATOM     31  C   UNL     1       6.457  -5.065  23.321  0.00  0.00    +0.180 C 
ATOM     32  C   UNL     1       6.023  -5.400  24.787  0.00  0.00    +0.221 C 
BRANCH  31  33
ATOM     33  O   UNL     1       5.903  -3.894  22.701  0.00  0.00    -0.386 OA
ATOM     34  H   UNL     1       4.974  -3.773  23.010  0.00  0.00    +0.210 HD
ENDBRANCH  31  33
BRANCH  30  35
ATOM     35  O   UNL     1       8.561  -6.193  23.139  0.00  0.00    -0.386 OA
ATOM     36  H   UNL     1       9.271  -6.247  23.810  0.00  0.00    +0.210 HD
ENDBRANCH  30  35
BRANCH  32  37
ATOM     37  O   UNL     1       4.616  -5.657  24.924  0.00  0.00    -0.337 OA
BRANCH  37  38
ATOM     38  C   UNL     1       4.161  -6.729  25.743  0.00  0.00    +0.282 C 
ATOM     39  O   UNL     1       3.714  -7.708  24.786  0.00  0.00    -0.341 OA
ATOM     40  C   UNL     1       2.331  -7.359  24.527  0.00  0.00    +0.178 C 
ATOM     41  C   UNL     1       1.774  -7.273  25.937  0.00  0.00    +0.179 C 
ATOM     42  C   UNL     1       2.876  -6.441  26.611  0.00  0.00    +0.201 C 
BRANCH  42  43
ATOM     43  O   UNL     1       2.461  -5.078  26.615  0.00  0.00    -0.384 OA
ATOM     44  H   UNL     1       2.309  -4.812  27.538  0.00  0.00    +0.210 HD
ENDBRANCH  42  43
BRANCH  41  45
ATOM     45  O   UNL     1       1.666  -8.567  26.544  0.00  0.00    -0.386 OA
ATOM     46  H   UNL     1       1.504  -9.215  25.833  0.00  0.00    +0.210 HD
ENDBRANCH  41  45
BRANCH  40  47
ATOM     47  C   UNL     1       1.701  -8.397  23.616  0.00  0.00    +0.190 C 
BRANCH  47  48
ATOM     48  O   UNL     1       1.783  -7.994  22.246  0.00  0.00    -0.392 OA
ATOM     49  H   UNL     1       2.050  -7.057  22.209  0.00  0.00    +0.210 HD
ENDBRANCH  47  48
ENDBRANCH  40  47
ENDBRANCH  37  38
ENDBRANCH  32  37
BRANCH  29  50
ATOM     50  C   UNL     1       9.877  -4.775  24.983  0.00  0.00    +0.190 C 
BRANCH  50  51
ATOM     51  O   UNL     1       9.698  -5.968  25.740  0.00  0.00    -0.392 OA
ATOM     52  H   UNL     1       8.752  -6.087  25.917  0.00  0.00    +0.210 HD
ENDBRANCH  50  51
ENDBRANCH  29  50
ENDBRANCH   1  27
TORSDOF 17
ENDMDL
MODEL 5
REMARK VINA RESULT:      -7.4      1.883      6.256
REMARK  Name = 
REMARK  17 active torsions:
REMARK  status: ('A' for Active; 'I' for Inactive)
REMARK    1  A    between atoms: C_3  and  O_48
REMARK    2  A    between atoms: C_4  and  O_47
REMARK    3  A    between atoms: C_6  and  C_7
REMARK    4  A    between atoms: C_8  and  O_20
REMARK    5  A    between atoms: C_12  and  O_19
REMARK    6  A    between atoms: C_14  and  O_18
REMARK    7  A    between atoms: O_20  and  C_21
REMARK    8  A    between atoms: C_23  and  O_34
REMARK    9  A    between atoms: C_24  and  O_33
REMARK   10  A    between atoms: C_26  and  O_32
REMARK   11  A    between atoms: C_28  and  C_30
REMARK   12  A    between atoms: C_30  and  O_31
REMARK   13  A    between atoms: O_34  and  C_35
REMARK   14  A    between atoms: C_37  and  O_46
REMARK   15  A    between atoms: C_39  and  O_45
REMARK   16  A    between atoms: C_40  and  C_43
REMARK   17  A    between atoms: C_43  and  O_44
REMARK                            x       y       z     vdW  Elec       q    Type
REMARK                         _______ _______ _______ _____ _____    ______ ____
ROOT
ATOM      1  O   UNL     1       6.496  -1.480  26.205  0.00  0.00    -0.453 OA
ENDROOT
BRANCH   1  12
ATOM      2  C   UNL     1       7.915  -1.726  24.121  0.00  0.00    +0.181 A 
ATOM      3  O   UNL     1       8.158  -2.700  23.088  0.00  0.00    -0.451 OA
ATOM      4  C   UNL     1       7.212  -3.659  22.852  0.00  0.00    +0.147 A 
ATOM      5  C   UNL     1       6.457  -4.130  23.899  0.00  0.00    +0.109 A 
ATOM      6  C   UNL     1       5.473  -5.100  23.754  0.00  0.00    +0.135 A 
ATOM      7  C   UNL     1       5.288  -5.677  22.516  0.00  0.00    +0.091 A 
ATOM      8  C   UNL     1       6.102  -5.261  21.458  0.00  0.00    +0.124 A 
ATOM      9  C   UNL     1       6.807  -3.604  25.176  0.00  0.00    +0.238 A 
ATOM     10  O   UNL     1       6.718  -4.335  26.153  0.00  0.00    -0.283 OA
ATOM     11  C   UNL     1       7.049  -4.240  21.605  0.00  0.00    +0.092 A 
ATOM     12  C   UNL     1       7.148  -2.158  25.202  0.00  0.00    +0.214 A 
BRANCH   2  14
ATOM     13  C   UNL     1       9.823  -0.024  24.365  0.00  0.00    +0.015 A 
ATOM     14  C   UNL     1       8.650  -0.416  23.617  0.00  0.00    +0.025 A 
ATOM     15  C   UNL     1       8.301   0.527  22.629  0.00  0.00    +0.060 A 
ATOM     16  C   UNL     1       9.084   1.730  22.441  0.00  0.00    +0.159 A 
ATOM     17  C   UNL     1      10.206   2.039  23.207  0.00  0.00    +0.158 A 
ATOM     18  C   UNL     1      10.588   1.158  24.180  0.00  0.00    +0.050 A 
BRANCH  17  19
ATOM     19  O   UNL     1      10.914   3.193  22.970  0.00  0.00    -0.503 OA
ATOM     20  H   UNL     1      10.331   3.947  23.184  0.00  0.00    +0.292 HD
ENDBRANCH  17  19
BRANCH  16  21
ATOM     21  O   UNL     1       8.717   2.658  21.487  0.00  0.00    -0.503 OA
ATOM     22  H   UNL     1       8.325   3.398  21.989  0.00  0.00    +0.292 HD
ENDBRANCH  16  21
ENDBRANCH   2  14
BRANCH   8  23
ATOM     23  O   UNL     1       6.008  -5.876  20.246  0.00  0.00    -0.507 OA
ATOM     24  H   UNL     1       6.418  -6.756  20.321  0.00  0.00    +0.292 HD
ENDBRANCH   8  23
BRANCH   6  25
ATOM     25  O   UNL     1       4.681  -5.510  24.788  0.00  0.00    -0.506 OA
ATOM     26  H   UNL     1       4.045  -4.790  24.998  0.00  0.00    +0.292 HD
ENDBRANCH   6  25
ENDBRANCH   1  12
BRANCH   1  27
ATOM     27  C   UNL     1       5.063  -1.022  26.109  0.00  0.00    +0.340 C 
ATOM     28  O   UNL     1       4.831   0.246  25.454  0.00  0.00    -0.331 OA
ATOM     29  C   UNL     1       4.783   1.490  26.195  0.00  0.00    +0.179 C 
ATOM     30  C   UNL     1       5.098   1.441  27.718  0.00  0.00    +0.177 C 
ATOM     31  C   UNL     1       5.524   0.060  28.216  0.00  0.00    +0.180 C 
ATOM     32  C   UNL     1       4.617  -1.030  27.552  0.00  0.00    +0.221 C 
BRANCH  31  33
ATOM     33  O   UNL     1       6.942  -0.019  28.006  0.00  0.00    -0.386 OA
ATOM     34  H   UNL     1       7.369  -0.389  28.814  0.00  0.00    +0.210 HD
ENDBRANCH  31  33
BRANCH  30  35
ATOM     35  O   UNL     1       3.997   1.879  28.520  0.00  0.00    -0.386 OA
ATOM     36  H   UNL     1       3.319   1.176  28.469  0.00  0.00    +0.210 HD
ENDBRANCH  30  35
BRANCH  32  37
ATOM     37  O   UNL     1       4.890  -2.362  28.017  0.00  0.00    -0.337 OA
BRANCH  37  38
ATOM     38  C   UNL     1       3.876  -3.109  28.682  0.00  0.00    +0.282 C 
ATOM     39  O   UNL     1       4.625  -4.056  29.466  0.00  0.00    -0.341 OA
ATOM     40  C   UNL     1       4.830  -5.184  28.578  0.00  0.00    +0.178 C 
ATOM     41  C   UNL     1       3.415  -5.450  28.098  0.00  0.00    +0.179 C 
ATOM     42  C   UNL     1       2.970  -4.018  27.763  0.00  0.00    +0.201 C 
BRANCH  42  43
ATOM     43  O   UNL     1       3.156  -3.812  26.365  0.00  0.00    -0.384 OA
ATOM     44  H   UNL     1       3.829  -3.120  26.250  0.00  0.00    +0.210 HD
ENDBRANCH  42  43
BRANCH  41  45
ATOM     45  O   UNL     1       2.599  -6.009  29.136  0.00  0.00    -0.386 OA
ATOM     46  H   UNL     1       2.649  -6.980  29.061  0.00  0.00    +0.210 HD
ENDBRANCH  41  45
BRANCH  40  47
ATOM     47  C   UNL     1       5.510  -6.314  29.331  0.00  0.00    +0.190 C 
BRANCH  47  48
ATOM     48  O   UNL     1       5.367  -7.554  28.632  0.00  0.00    -0.392 OA
ATOM     49  H   UNL     1       5.435  -8.286  29.273  0.00  0.00    +0.210 HD
ENDBRANCH  47  48
ENDBRANCH  40  47
ENDBRANCH  37  38
ENDBRANCH  32  37
BRANCH  29  50
ATOM     50  C   UNL     1       3.493   2.347  25.938  0.00  0.00    +0.190 C 
BRANCH  50  51
ATOM     51  O   UNL     1       2.257   1.662  26.114  0.00  0.00    -0.392 OA
ATOM     52  H   UNL     1       1.537   2.311  26.113  0.00  0.00    +0.210 HD
ENDBRANCH  50  51
ENDBRANCH  29  50
ENDBRANCH   1  27
TORSDOF 17
ENDMDL
MODEL 6
REMARK VINA RESULT:      -7.4      1.950      6.922
REMARK  Name = 
REMARK  17 active torsions:
REMARK  status: ('A' for Active; 'I' for Inactive)
REMARK    1  A    between atoms: C_3  and  O_48
REMARK    2  A    between atoms: C_4  and  O_47
REMARK    3  A    between atoms: C_6  and  C_7
REMARK    4  A    between atoms: C_8  and  O_20
REMARK    5  A    between atoms: C_12  and  O_19
REMARK    6  A    between atoms: C_14  and  O_18
REMARK    7  A    between atoms: O_20  and  C_21
REMARK    8  A    between atoms: C_23  and  O_34
REMARK    9  A    between atoms: C_24  and  O_33
REMARK   10  A    between atoms: C_26  and  O_32
REMARK   11  A    between atoms: C_28  and  C_30
REMARK   12  A    between atoms: C_30  and  O_31
REMARK   13  A    between atoms: O_34  and  C_35
REMARK   14  A    between atoms: C_37  and  O_46
REMARK   15  A    between atoms: C_39  and  O_45
REMARK   16  A    between atoms: C_40  and  C_43
REMARK   17  A    between atoms: C_43  and  O_44
REMARK                            x       y       z     vdW  Elec       q    Type
REMARK                         _______ _______ _______ _____ _____    ______ ____
ROOT
ATOM      1  O   UNL     1       6.963  -2.261  25.601  0.00  0.00    -0.453 OA
ENDROOT
BRANCH   1  12
ATOM      2  C   UNL     1       5.281  -2.540  27.475  0.00  0.00    +0.181 A 
ATOM      3  O   UNL     1       4.357  -1.729  28.225  0.00  0.00    -0.451 OA
ATOM      4  C   UNL     1       3.924  -0.550  27.684  0.00  0.00    +0.147 A 
ATOM      5  C   UNL     1       4.773   0.171  26.879  0.00  0.00    +0.109 A 
ATOM      6  C   UNL     1       4.420   1.376  26.284  0.00  0.00    +0.135 A 
ATOM      7  C   UNL     1       3.187   1.920  26.570  0.00  0.00    +0.091 A 
ATOM      8  C   UNL     1       2.343   1.235  27.449  0.00  0.00    +0.124 A 
ATOM      9  C   UNL     1       6.084  -0.372  26.752  0.00  0.00    +0.238 A 
ATOM     10  O   UNL     1       7.029   0.401  26.656  0.00  0.00    -0.283 OA
ATOM     11  C   UNL     1       2.688  -0.008  27.994  0.00  0.00    +0.092 A 
ATOM     12  C   UNL     1       6.159  -1.851  26.638  0.00  0.00    +0.214 A 
BRANCH   2  14
ATOM     13  C   UNL     1       3.582  -4.260  28.341  0.00  0.00    +0.015 A 
ATOM     14  C   UNL     1       4.936  -4.029  27.890  0.00  0.00    +0.025 A 
ATOM     15  C   UNL     1       5.750  -5.172  28.020  0.00  0.00    +0.060 A 
ATOM     16  C   UNL     1       5.214  -6.409  28.550  0.00  0.00    +0.159 A 
ATOM     17  C   UNL     1       3.893  -6.553  28.967  0.00  0.00    +0.158 A 
ATOM     18  C   UNL     1       3.060  -5.473  28.862  0.00  0.00    +0.050 A 
BRANCH  17  19
ATOM     19  O   UNL     1       3.443  -7.758  29.450  0.00  0.00    -0.503 OA
ATOM     20  H   UNL     1       3.147  -7.615  30.370  0.00  0.00    +0.292 HD
ENDBRANCH  17  19
BRANCH  16  21
ATOM     21  O   UNL     1       6.028  -7.514  28.696  0.00  0.00    -0.503 OA
ATOM     22  H   UNL     1       5.926  -7.785  29.628  0.00  0.00    +0.292 HD
ENDBRANCH  16  21
ENDBRANCH   2  14
BRANCH   8  23
ATOM     23  O   UNL     1       1.157   1.791  27.825  0.00  0.00    -0.507 OA
ATOM     24  H   UNL     1       0.806   2.295  27.069  0.00  0.00    +0.292 HD
ENDBRANCH   8  23
BRANCH   6  25
ATOM     25  O   UNL     1       5.246   2.048  25.429  0.00  0.00    -0.506 OA
ATOM     26  H   UNL     1       4.710   2.706  24.932  0.00  0.00    +0.292 HD
ENDBRANCH   6  25
ENDBRANCH   1  12
BRANCH   1  27
ATOM     27  C   UNL     1       6.442  -2.631  24.236  0.00  0.00    +0.340 C 
ATOM     28  O   UNL     1       5.608  -3.809  24.159  0.00  0.00    -0.331 OA
ATOM     29  C   UNL     1       6.161  -5.120  23.888  0.00  0.00    +0.179 C 
ATOM     30  C   UNL     1       7.709  -5.249  23.787  0.00  0.00    +0.177 C 
ATOM     31  C   UNL     1       8.456  -3.952  24.095  0.00  0.00    +0.180 C 
ATOM     32  C   UNL     1       7.709  -2.752  23.422  0.00  0.00    +0.221 C 
BRANCH  31  33
ATOM     33  O   UNL     1       8.637  -3.925  25.519  0.00  0.00    -0.386 OA
ATOM     34  H   UNL     1       9.600  -3.872  25.723  0.00  0.00    +0.210 HD
ENDBRANCH  31  33
BRANCH  30  35
ATOM     35  O   UNL     1       8.137  -5.712  22.502  0.00  0.00    -0.386 OA
ATOM     36  H   UNL     1       7.593  -6.497  22.294  0.00  0.00    +0.210 HD
ENDBRANCH  30  35
BRANCH  32  37
ATOM     37  O   UNL     1       8.380  -1.493  23.590  0.00  0.00    -0.337 OA
BRANCH  37  38
ATOM     38  C   UNL     1       8.512  -0.601  22.488  0.00  0.00    +0.282 C 
ATOM     39  O   UNL     1       9.784   0.031  22.726  0.00  0.00    -0.341 OA
ATOM     40  C   UNL     1       9.475   1.168  23.570  0.00  0.00    +0.178 C 
ATOM     41  C   UNL     1       8.361   1.833  22.781  0.00  0.00    +0.179 C 
ATOM     42  C   UNL     1       7.498   0.607  22.448  0.00  0.00    +0.201 C 
BRANCH  42  43
ATOM     43  O   UNL     1       6.451   0.527  23.412  0.00  0.00    -0.384 OA
ATOM     44  H   UNL     1       6.816   0.130  24.221  0.00  0.00    +0.210 HD
ENDBRANCH  42  43
BRANCH  41  45
ATOM     45  O   UNL     1       8.855   2.451  21.586  0.00  0.00    -0.386 OA
ATOM     46  H   UNL     1       8.100   2.877  21.139  0.00  0.00    +0.210 HD
ENDBRANCH  41  45
BRANCH  40  47
ATOM     47  C   UNL     1      10.727   1.996  23.797  0.00  0.00    +0.190 C 
BRANCH  47  48
ATOM     48  O   UNL     1      10.450   3.392  23.660  0.00  0.00    -0.392 OA
ATOM     49  H   UNL     1      10.275   3.767  24.543  0.00  0.00    +0.210 HD
ENDBRANCH  47  48
ENDBRANCH  40  47
ENDBRANCH  37  38
ENDBRANCH  32  37
BRANCH  29  50
ATOM     50  C   UNL     1       5.477  -5.878  22.695  0.00  0.00    +0.190 C 
BRANCH  50  51
ATOM     51  O   UNL     1       5.518  -5.207  21.439  0.00  0.00    -0.392 OA
ATOM     52  H   UNL     1       6.265  -4.589  21.439  0.00  0.00    +0.210 HD
ENDBRANCH  50  51
ENDBRANCH  29  50
ENDBRANCH   1  27
TORSDOF 17
ENDMDL
MODEL 7
REMARK VINA RESULT:      -7.3      1.705      4.578
REMARK  Name = 
REMARK  17 active torsions:
REMARK  status: ('A' for Active; 'I' for Inactive)
REMARK    1  A    between atoms: C_3  and  O_48
REMARK    2  A    between atoms: C_4  and  O_47
REMARK    3  A    between atoms: C_6  and  C_7
REMARK    4  A    between atoms: C_8  and  O_20
REMARK    5  A    between atoms: C_12  and  O_19
REMARK    6  A    between atoms: C_14  and  O_18
REMARK    7  A    between atoms: O_20  and  C_21
REMARK    8  A    between atoms: C_23  and  O_34
REMARK    9  A    between atoms: C_24  and  O_33
REMARK   10  A    between atoms: C_26  and  O_32
REMARK   11  A    between atoms: C_28  and  C_30
REMARK   12  A    between atoms: C_30  and  O_31
REMARK   13  A    between atoms: O_34  and  C_35
REMARK   14  A    between atoms: C_37  and  O_46
REMARK   15  A    between atoms: C_39  and  O_45
REMARK   16  A    between atoms: C_40  and  C_43
REMARK   17  A    between atoms: C_43  and  O_44
REMARK                            x       y       z     vdW  Elec       q    Type
REMARK                         _______ _______ _______ _____ _____    ______ ____
ROOT
ATOM      1  O   UNL     1       6.187  -3.602  26.441  0.00  0.00    -0.453 OA
ENDROOT
BRANCH   1  12
ATOM      2  C   UNL     1       6.502  -1.135  26.923  0.00  0.00    +0.181 A 
ATOM      3  O   UNL     1       7.482  -0.106  26.690  0.00  0.00    -0.451 OA
ATOM      4  C   UNL     1       8.382  -0.271  25.673  0.00  0.00    +0.147 A 
ATOM      5  C   UNL     1       8.815  -1.537  25.359  0.00  0.00    +0.109 A 
ATOM      6  C   UNL     1       9.724  -1.802  24.343  0.00  0.00    +0.135 A 
ATOM      7  C   UNL     1      10.281  -0.743  23.659  0.00  0.00    +0.091 A 
ATOM      8  C   UNL     1       9.907   0.555  24.020  0.00  0.00    +0.124 A 
ATOM      9  C   UNL     1       8.318  -2.569  26.207  0.00  0.00    +0.238 A 
ATOM     10  O   UNL     1       9.050  -3.517  26.463  0.00  0.00    -0.283 OA
ATOM     11  C   UNL     1       8.944   0.804  25.006  0.00  0.00    +0.092 A 
ATOM     12  C   UNL     1       6.896  -2.437  26.613  0.00  0.00    +0.214 A 
BRANCH   2  14
ATOM     13  C   UNL     1       5.444   0.408  28.683  0.00  0.00    +0.015 A 
ATOM     14  C   UNL     1       5.235  -0.363  27.478  0.00  0.00    +0.025 A 
ATOM     15  C   UNL     1       3.883  -0.383  27.077  0.00  0.00    +0.060 A 
ATOM     16  C   UNL     1       2.874   0.323  27.839  0.00  0.00    +0.159 A 
ATOM     17  C   UNL     1       3.155   1.046  28.996  0.00  0.00    +0.158 A 
ATOM     18  C   UNL     1       4.451   1.097  29.429  0.00  0.00    +0.050 A 
BRANCH  17  19
ATOM     19  O   UNL     1       2.152   1.704  29.667  0.00  0.00    -0.503 OA
ATOM     20  H   UNL     1       1.496   1.996  29.005  0.00  0.00    +0.292 HD
ENDBRANCH  17  19
BRANCH  16  21
ATOM     21  O   UNL     1       1.550   0.275  27.451  0.00  0.00    -0.503 OA
ATOM     22  H   UNL     1       1.568   0.284  26.475  0.00  0.00    +0.292 HD
ENDBRANCH  16  21
ENDBRANCH   2  14
BRANCH   8  23
ATOM     23  O   UNL     1      10.507   1.626  23.428  0.00  0.00    -0.507 OA
ATOM     24  H   UNL     1      10.531   2.354  24.074  0.00  0.00    +0.292 HD
ENDBRANCH   8  23
BRANCH   6  25
ATOM     25  O   UNL     1      10.094  -3.069  23.992  0.00  0.00    -0.506 OA
ATOM     26  H   UNL     1       9.393  -3.691  24.289  0.00  0.00    +0.292 HD
ENDBRANCH   6  25
ENDBRANCH   1  12
BRANCH   1  27
ATOM     27  C   UNL     1       4.918  -3.926  27.187  0.00  0.00    +0.340 C 
ATOM     28  O   UNL     1       5.005  -3.955  28.630  0.00  0.00    -0.331 OA
ATOM     29  C   UNL     1       5.294  -5.178  29.352  0.00  0.00    +0.179 C 
ATOM     30  C   UNL     1       5.619  -6.453  28.521  0.00  0.00    +0.177 C 
ATOM     31  C   UNL     1       5.686  -6.206  27.015  0.00  0.00    +0.180 C 
ATOM     32  C   UNL     1       4.516  -5.256  26.593  0.00  0.00    +0.221 C 
BRANCH  31  33
ATOM     33  O   UNL     1       7.032  -5.787  26.740  0.00  0.00    -0.386 OA
ATOM     34  H   UNL     1       7.129  -4.833  26.973  0.00  0.00    +0.210 HD
ENDBRANCH  31  33
BRANCH  30  35
ATOM     35  O   UNL     1       4.685  -7.512  28.754  0.00  0.00    -0.386 OA
ATOM     36  H   UNL     1       4.744  -8.110  27.983  0.00  0.00    +0.210 HD
ENDBRANCH  30  35
BRANCH  32  37
ATOM     37  O   UNL     1       4.448  -5.024  25.177  0.00  0.00    -0.337 OA
BRANCH  37  38
ATOM     38  C   UNL     1       4.904  -6.020  24.267  0.00  0.00    +0.282 C 
ATOM     39  O   UNL     1       6.242  -5.592  23.954  0.00  0.00    -0.341 OA
ATOM     40  C   UNL     1       6.083  -4.685  22.834  0.00  0.00    +0.178 C 
ATOM     41  C   UNL     1       5.245  -5.523  21.886  0.00  0.00    +0.179 C 
ATOM     42  C   UNL     1       4.185  -6.056  22.863  0.00  0.00    +0.201 C 
BRANCH  42  43
ATOM     43  O   UNL     1       3.035  -5.219  22.768  0.00  0.00    -0.384 OA
ATOM     44  H   UNL     1       3.178  -4.446  23.342  0.00  0.00    +0.210 HD
ENDBRANCH  42  43
BRANCH  41  45
ATOM     45  O   UNL     1       6.003  -6.598  21.317  0.00  0.00    -0.386 OA
ATOM     46  H   UNL     1       6.896  -6.259  21.119  0.00  0.00    +0.210 HD
ENDBRANCH  41  45
BRANCH  40  47
ATOM     47  C   UNL     1       7.447  -4.252  22.325  0.00  0.00    +0.190 C 
BRANCH  47  48
ATOM     48  O   UNL     1       7.490  -2.839  22.112  0.00  0.00    -0.392 OA
ATOM     49  H   UNL     1       6.669  -2.563  21.664  0.00  0.00    +0.210 HD
ENDBRANCH  47  48
ENDBRANCH  40  47
ENDBRANCH  37  38
ENDBRANCH  32  37
BRANCH  29  50
ATOM     50  C   UNL     1       4.262  -5.520  30.485  0.00  0.00    +0.190 C 
BRANCH  50  51
ATOM     51  O   UNL     1       2.903  -5.613  30.068  0.00  0.00    -0.392 OA
ATOM     52  H   UNL     1       2.706  -6.537  29.851  0.00  0.00    +0.210 HD
ENDBRANCH  50  51
ENDBRANCH  29  50
ENDBRANCH   1  27
TORSDOF 17
ENDMDL
MODEL 8
REMARK VINA RESULT:      -7.1      3.567      8.240
REMARK  Name = 
REMARK  17 active torsions:
REMARK  status: ('A' for Active; 'I' for Inactive)
REMARK    1  A    between atoms: C_3  and  O_48
REMARK    2  A    between atoms: C_4  and  O_47
REMARK    3  A    between atoms: C_6  and  C_7
REMARK    4  A    between atoms: C_8  and  O_20
REMARK    5  A    between atoms: C_12  and  O_19
REMARK    6  A    between atoms: C_14  and  O_18
REMARK    7  A    between atoms: O_20  and  C_21
REMARK    8  A    between atoms: C_23  and  O_34
REMARK    9  A    between atoms: C_24  and  O_33
REMARK   10  A    between atoms: C_26  and  O_32
REMARK   11  A    between atoms: C_28  and  C_30
REMARK   12  A    between atoms: C_30  and  O_31
REMARK   13  A    between atoms: O_34  and  C_35
REMARK   14  A    between atoms: C_37  and  O_46
REMARK   15  A    between atoms: C_39  and  O_45
REMARK   16  A    between atoms: C_40  and  C_43
REMARK   17  A    between atoms: C_43  and  O_44
REMARK                            x       y       z     vdW  Elec       q    Type
REMARK                         _______ _______ _______ _____ _____    ______ ____
ROOT
ATOM      1  O   UNL     1       4.895   0.055  25.442  0.00  0.00    -0.453 OA
ENDROOT
BRANCH   1  12
ATOM      2  C   UNL     1       7.055  -0.658  24.327  0.00  0.00    +0.181 A 
ATOM      3  O   UNL     1       7.634  -1.847  23.755  0.00  0.00    -0.451 OA
ATOM      4  C   UNL     1       6.803  -2.849  23.337  0.00  0.00    +0.147 A 
ATOM      5  C   UNL     1       5.625  -3.069  24.010  0.00  0.00    +0.109 A 
ATOM      6  C   UNL     1       4.719  -4.060  23.656  0.00  0.00    +0.135 A 
ATOM      7  C   UNL     1       5.042  -4.918  22.627  0.00  0.00    +0.091 A 
ATOM      8  C   UNL     1       6.273  -4.755  21.984  0.00  0.00    +0.124 A 
ATOM      9  C   UNL     1       5.427  -2.247  25.157  0.00  0.00    +0.238 A 
ATOM     10  O   UNL     1       4.850  -2.726  26.124  0.00  0.00    -0.283 OA
ATOM     11  C   UNL     1       7.150  -3.713  22.312  0.00  0.00    +0.092 A 
ATOM     12  C   UNL     1       5.855  -0.832  25.015  0.00  0.00    +0.214 A 
BRANCH   2  14
ATOM     13  C   UNL     1       8.160   1.594  24.876  0.00  0.00    +0.015 A 
ATOM     14  C   UNL     1       8.056   0.505  23.931  0.00  0.00    +0.025 A 
ATOM     15  C   UNL     1       8.789   0.742  22.751  0.00  0.00    +0.060 A 
ATOM     16  C   UNL     1       9.545   1.965  22.581  0.00  0.00    +0.159 A 
ATOM     17  C   UNL     1       9.595   2.973  23.540  0.00  0.00    +0.158 A 
ATOM     18  C   UNL     1       8.901   2.794  24.704  0.00  0.00    +0.050 A 
BRANCH  17  19
ATOM     19  O   UNL     1      10.342   4.106  23.322  0.00  0.00    -0.503 OA
ATOM     20  H   UNL     1      10.606   4.109  22.381  0.00  0.00    +0.292 HD
ENDBRANCH  17  19
BRANCH  16  21
ATOM     21  O   UNL     1      10.239   2.197  21.410  0.00  0.00    -0.503 OA
ATOM     22  H   UNL     1      10.816   2.960  21.601  0.00  0.00    +0.292 HD
ENDBRANCH  16  21
ENDBRANCH   2  14
BRANCH   8  23
ATOM     23  O   UNL     1       6.664  -5.642  21.027  0.00  0.00    -0.507 OA
ATOM     24  H   UNL     1       7.637  -5.690  21.039  0.00  0.00    +0.292 HD
ENDBRANCH   8  23
BRANCH   6  25
ATOM     25  O   UNL     1       3.518  -4.225  24.286  0.00  0.00    -0.506 OA
ATOM     26  H   UNL     1       2.843  -3.688  23.814  0.00  0.00    +0.292 HD
ENDBRANCH   6  25
ENDBRANCH   1  12
BRANCH   1  27
ATOM     27  C   UNL     1       5.172   1.191  26.394  0.00  0.00    +0.340 C 
ATOM     28  O   UNL     1       5.762   0.839  27.666  0.00  0.00    -0.331 OA
ATOM     29  C   UNL     1       4.950   0.558  28.832  0.00  0.00    +0.179 C 
ATOM     30  C   UNL     1       3.404   0.538  28.654  0.00  0.00    +0.177 C 
ATOM     31  C   UNL     1       2.949   0.726  27.208  0.00  0.00    +0.180 C 
ATOM     32  C   UNL     1       3.816   1.841  26.533  0.00  0.00    +0.221 C 
BRANCH  31  33
ATOM     33  O   UNL     1       2.949  -0.582  26.616  0.00  0.00    -0.386 OA
ATOM     34  H   UNL     1       2.037  -0.799  26.309  0.00  0.00    +0.210 HD
ENDBRANCH  31  33
BRANCH  30  35
ATOM     35  O   UNL     1       2.747   1.524  29.457  0.00  0.00    -0.386 OA
ATOM     36  H   UNL     1       1.978   1.836  28.940  0.00  0.00    +0.210 HD
ENDBRANCH  30  35
BRANCH  32  37
ATOM     37  O   UNL     1       3.411   2.147  25.189  0.00  0.00    -0.337 OA
BRANCH  37  38
ATOM     38  C   UNL     1       3.777   3.390  24.597  0.00  0.00    +0.282 C 
ATOM     39  O   UNL     1       2.519   3.917  24.135  0.00  0.00    -0.341 OA
ATOM     40  C   UNL     1       2.360   3.366  22.803  0.00  0.00    +0.178 C 
ATOM     41  C   UNL     1       3.689   3.730  22.167  0.00  0.00    +0.179 C 
ATOM     42  C   UNL     1       4.650   3.303  23.287  0.00  0.00    +0.201 C 
BRANCH  42  43
ATOM     43  O   UNL     1       5.130   1.995  22.985  0.00  0.00    -0.384 OA
ATOM     44  H   UNL     1       5.978   1.872  23.443  0.00  0.00    +0.210 HD
ENDBRANCH  42  43
BRANCH  41  45
ATOM     45  O   UNL     1       3.789   5.138  21.916  0.00  0.00    -0.386 OA
ATOM     46  H   UNL     1       4.722   5.338  21.718  0.00  0.00    +0.210 HD
ENDBRANCH  41  45
BRANCH  40  47
ATOM     47  C   UNL     1       1.119   3.947  22.151  0.00  0.00    +0.190 C 
BRANCH  47  48
ATOM     48  O   UNL     1       1.309   4.114  20.744  0.00  0.00    -0.392 OA
ATOM     49  H   UNL     1       2.123   3.646  20.478  0.00  0.00    +0.210 HD
ENDBRANCH  47  48
ENDBRANCH  40  47
ENDBRANCH  37  38
ENDBRANCH  32  37
BRANCH  29  50
ATOM     50  C   UNL     1       5.336   1.392  30.106  0.00  0.00    +0.190 C 
BRANCH  50  51
ATOM     51  O   UNL     1       5.353   2.805  29.931  0.00  0.00    -0.392 OA
ATOM     52  H   UNL     1       5.850   3.014  29.125  0.00  0.00    +0.210 HD
ENDBRANCH  50  51
ENDBRANCH  29  50
ENDBRANCH   1  27
TORSDOF 17
ENDMDL
MODEL 9
REMARK VINA RESULT:      -7.1      1.966      3.972
REMARK  Name = 
REMARK  17 active torsions:
REMARK  status: ('A' for Active; 'I' for Inactive)
REMARK    1  A    between atoms: C_3  and  O_48
REMARK    2  A    between atoms: C_4  and  O_47
REMARK    3  A    between atoms: C_6  and  C_7
REMARK    4  A    between atoms: C_8  and  O_20
REMARK    5  A    between atoms: C_12  and  O_19
REMARK    6  A    between atoms: C_14  and  O_18
REMARK    7  A    between atoms: O_20  and  C_21
REMARK    8  A    between atoms: C_23  and  O_34
REMARK    9  A    between atoms: C_24  and  O_33
REMARK   10  A    between atoms: C_26  and  O_32
REMARK   11  A    between atoms: C_28  and  C_30
REMARK   12  A    between atoms: C_30  and  O_31
REMARK   13  A    between atoms: O_34  and  C_35
REMARK   14  A    between atoms: C_37  and  O_46
REMARK   15  A    between atoms: C_39  and  O_45
REMARK   16  A    between atoms: C_40  and  C_43
REMARK   17  A    between atoms: C_43  and  O_44
REMARK                            x       y       z     vdW  Elec       q    Type
REMARK                         _______ _______ _______ _____ _____    ______ ____
ROOT
ATOM      1  O   UNL     1       6.327  -1.661  26.256  0.00  0.00    -0.453 OA
ENDROOT
BRANCH   1  12
ATOM      2  C   UNL     1       7.481   0.589  26.402  0.00  0.00    +0.181 A 
ATOM      3  O   UNL     1       8.529   1.311  25.727  0.00  0.00    -0.451 OA
ATOM      4  C   UNL     1       8.861   0.951  24.450  0.00  0.00    +0.147 A 
ATOM      5  C   UNL     1       8.761  -0.369  24.077  0.00  0.00    +0.109 A 
ATOM      6  C   UNL     1       9.073  -0.826  22.803  0.00  0.00    +0.135 A 
ATOM      7  C   UNL     1       9.579   0.066  21.883  0.00  0.00    +0.091 A 
ATOM      8  C   UNL     1       9.759   1.396  22.274  0.00  0.00    +0.124 A 
ATOM      9  C   UNL     1       8.381  -1.260  25.121  0.00  0.00    +0.238 A 
ATOM     10  O   UNL     1       8.858  -2.387  25.129  0.00  0.00    -0.283 OA
ATOM     11  C   UNL     1       9.383   1.856  23.542  0.00  0.00    +0.092 A 
ATOM     12  C   UNL     1       7.339  -0.753  26.051  0.00  0.00    +0.214 A 
BRANCH   2  14
ATOM     13  C   UNL     1       7.122   3.041  27.077  0.00  0.00    +0.015 A 
ATOM     14  C   UNL     1       6.812   1.658  27.361  0.00  0.00    +0.025 A 
ATOM     15  C   UNL     1       6.052   1.506  28.538  0.00  0.00    +0.060 A 
ATOM     16  C   UNL     1       5.657   2.660  29.320  0.00  0.00    +0.159 A 
ATOM     17  C   UNL     1       5.997   3.967  28.980  0.00  0.00    +0.158 A 
ATOM     18  C   UNL     1       6.735   4.170  27.847  0.00  0.00    +0.050 A 
BRANCH  17  19
ATOM     19  O   UNL     1       5.581   5.020  29.759  0.00  0.00    -0.503 OA
ATOM     20  H   UNL     1       6.282   5.699  29.736  0.00  0.00    +0.292 HD
ENDBRANCH  17  19
BRANCH  16  21
ATOM     21  O   UNL     1       4.935   2.497  30.485  0.00  0.00    -0.503 OA
ATOM     22  H   UNL     1       4.519   1.617  30.407  0.00  0.00    +0.292 HD
ENDBRANCH  16  21
ENDBRANCH   2  14
BRANCH   8  23
ATOM     23  O   UNL     1      10.343   2.283  21.419  0.00  0.00    -0.507 OA
ATOM     24  H   UNL     1      11.309   2.187  21.498  0.00  0.00    +0.292 HD
ENDBRANCH   8  23
BRANCH   6  25
ATOM     25  O   UNL     1       8.903  -2.127  22.422  0.00  0.00    -0.506 OA
ATOM     26  H   UNL     1       9.790  -2.531  22.291  0.00  0.00    +0.292 HD
ENDBRANCH   6  25
ENDBRANCH   1  12
BRANCH   1  27
ATOM     27  C   UNL     1       4.943  -1.516  25.676  0.00  0.00    +0.340 C 
ATOM     28  O   UNL     1       3.924  -0.991  26.557  0.00  0.00    -0.331 OA
ATOM     29  C   UNL     1       3.087  -1.860  27.358  0.00  0.00    +0.179 C 
ATOM     30  C   UNL     1       3.386  -3.387  27.329  0.00  0.00    +0.177 C 
ATOM     31  C   UNL     1       4.623  -3.757  26.511  0.00  0.00    +0.180 C 
ATOM     32  C   UNL     1       4.641  -2.915  25.191  0.00  0.00    +0.221 C 
BRANCH  31  33
ATOM     33  O   UNL     1       5.741  -3.640  27.404  0.00  0.00    -0.386 OA
ATOM     34  H   UNL     1       6.445  -3.100  26.973  0.00  0.00    +0.210 HD
ENDBRANCH  31  33
BRANCH  30  35
ATOM     35  O   UNL     1       2.284  -4.153  26.834  0.00  0.00    -0.386 OA
ATOM     36  H   UNL     1       2.635  -4.713  26.114  0.00  0.00    +0.210 HD
ENDBRANCH  30  35
BRANCH  32  37
ATOM     37  O   UNL     1       5.729  -3.247  24.314  0.00  0.00    -0.337 OA
BRANCH  37  38
ATOM     38  C   UNL     1       5.467  -3.774  23.017  0.00  0.00    +0.282 C 
ATOM     39  O   UNL     1       4.371  -4.680  23.246  0.00  0.00    -0.341 OA
ATOM     40  C   UNL     1       5.004  -5.937  23.596  0.00  0.00    +0.178 C 
ATOM     41  C   UNL     1       5.987  -6.106  22.451  0.00  0.00    +0.179 C 
ATOM     42  C   UNL     1       6.591  -4.695  22.403  0.00  0.00    +0.201 C 
BRANCH  42  43
ATOM     43  O   UNL     1       7.809  -4.709  23.143  0.00  0.00    -0.384 OA
ATOM     44  H   UNL     1       8.191  -5.601  23.077  0.00  0.00    +0.210 HD
ENDBRANCH  42  43
BRANCH  41  45
ATOM     45  O   UNL     1       5.320  -6.419  21.222  0.00  0.00    -0.386 OA
ATOM     46  H   UNL     1       4.403  -6.671  21.438  0.00  0.00    +0.210 HD
ENDBRANCH  41  45
BRANCH  40  47
ATOM     47  C   UNL     1       3.950  -7.019  23.745  0.00  0.00    +0.190 C 
BRANCH  47  48
ATOM     48  O   UNL     1       2.927  -6.878  22.755  0.00  0.00    -0.392 OA
ATOM     49  H   UNL     1       2.273  -6.225  23.069  0.00  0.00    +0.210 HD
ENDBRANCH  47  48
ENDBRANCH  40  47
ENDBRANCH  37  38
ENDBRANCH  32  37
BRANCH  29  50
ATOM     50  C   UNL     1       1.546  -1.609  27.190  0.00  0.00    +0.190 C 
BRANCH  50  51
ATOM     51  O   UNL     1       1.024  -1.848  25.886  0.00  0.00    -0.392 OA
ATOM     52  H   UNL     1       0.350  -2.542  25.941  0.00  0.00    +0.210 HD
ENDBRANCH  50  51
ENDBRANCH  29  50
ENDBRANCH   1  27
TORSDOF 17
ENDMDL
