MODEL 1
REMARK VINA RESULT:      -7.4      0.000      0.000
REMARK  Name = 
REMARK  17 active torsions:
REMARK  status: ('A' for Active; 'I' for Inactive)
REMARK    1  A    between atoms: C_1  and  C_2
REMARK    2  A    between atoms: C_4  and  O_37
REMARK    3  A    between atoms: C_6  and  O_36
REMARK    4  A    between atoms: C_8  and  O_35
REMARK    5  A    between atoms: C_10  and  O_13
REMARK    6  A    between atoms: O_13  and  C_14
REMARK    7  A    between atoms: C_15  and  C_27
REMARK    8  A    between atoms: C_19  and  O_26
REMARK    9  A    between atoms: C_21  and  O_25
REMARK   10  A    between atoms: C_29  and  O_34
REMARK   11  A    between atoms: C_30  and  O_33
REMARK   12  A    between atoms: O_37  and  C_38
REMARK   13  A    between atoms: C_40  and  O_53
REMARK   14  A    between atoms: C_42  and  O_52
REMARK   15  A    between atoms: C_44  and  O_51
REMARK   16  A    between atoms: C_46  and  C_49
REMARK   17  A    between atoms: C_49  and  O_50
REMARK                            x       y       z     vdW  Elec       q    Type
REMARK                         _______ _______ _______ _____ _____    ______ ____
ROOT
ATOM      1  C   UNL     1       3.757  -0.821  27.390  0.00  0.00    +0.041 C 
ATOM      2  C   UNL     1       4.649   0.009  26.462  0.00  0.00    +0.151 C 
ATOM      3  O   UNL     1       5.810  -0.711  26.010  0.00  0.00    -0.334 OA
ATOM      4  C   UNL     1       6.806  -0.889  27.033  0.00  0.00    +0.339 C 
ATOM      5  C   UNL     1       7.301   0.474  27.569  0.00  0.00    +0.214 C 
ATOM      6  C   UNL     1       6.110   1.251  28.134  0.00  0.00    +0.180 C 
ATOM      7  C   UNL     1       5.033   1.388  27.050  0.00  0.00    +0.181 C 
ENDROOT
BRANCH   5   8
ATOM      8  O   UNL     1       8.324   0.415  28.570  0.00  0.00    -0.383 OA
ATOM      9  H   UNL     1       9.125   0.011  28.172  0.00  0.00    +0.210 HD
ENDBRANCH   5   8
BRANCH   6  10
ATOM     10  O   UNL     1       5.533   0.647  29.297  0.00  0.00    -0.386 OA
ATOM     11  H   UNL     1       6.200   0.597  30.007  0.00  0.00    +0.210 HD
ENDBRANCH   6  10
BRANCH   7  12
ATOM     12  O   UNL     1       5.588   2.286  26.069  0.00  0.00    -0.340 OA
BRANCH  12  13
ATOM     13  C   UNL     1       5.206   2.078  24.712  0.00  0.00    +0.282 C 
ATOM     14  O   UNL     1       6.367   2.139  23.873  0.00  0.00    -0.341 OA
ATOM     15  C   UNL     1       6.991   3.426  23.723  0.00  0.00    +0.178 C 
ATOM     16  C   UNL     1       5.978   4.526  23.339  0.00  0.00    +0.177 C 
ATOM     17  C   UNL     1       4.724   4.494  24.223  0.00  0.00    +0.179 C 
ATOM     18  C   UNL     1       4.129   3.075  24.241  0.00  0.00    +0.201 C 
BRANCH  18  19
ATOM     19  O   UNL     1       3.634   2.704  22.949  0.00  0.00    -0.384 OA
ATOM     20  H   UNL     1       4.374   2.839  22.316  0.00  0.00    +0.210 HD
ENDBRANCH  18  19
BRANCH  17  21
ATOM     21  O   UNL     1       5.011   5.001  25.528  0.00  0.00    -0.386 OA
ATOM     22  H   UNL     1       4.353   4.647  26.161  0.00  0.00    +0.210 HD
ENDBRANCH  17  21
BRANCH  16  23
ATOM     23  O   UNL     1       5.567   4.290  21.976  0.00  0.00    -0.386 OA
ATOM     24  H   UNL     1       5.589   5.148  21.513  0.00  0.00    +0.210 HD
ENDBRANCH  16  23
BRANCH  15  25
ATOM     25  C   UNL     1       7.910   3.767  24.910  0.00  0.00    +0.190 C 
BRANCH  25  26
ATOM     26  O   UNL     1       8.951   4.661  24.527  0.00  0.00    -0.392 OA
ATOM     27  H   UNL     1       8.562   5.547  24.422  0.00  0.00    +0.210 HD
ENDBRANCH  25  26
ENDBRANCH  15  25
ENDBRANCH  12  13
ENDBRANCH   7  12
BRANCH   4  28
ATOM     28  O   UNL     1       7.935  -1.584  26.488  0.00  0.00    -0.453 OA
BRANCH  28  29
ATOM     29  C   UNL     1       7.699  -2.346  25.354  0.00  0.00    +0.214 A 
ATOM     30  C   UNL     1       7.022  -3.679  25.461  0.00  0.00    +0.238 A 
ATOM     31  O   UNL     1       6.800  -4.195  26.556  0.00  0.00    -0.283 OA
ATOM     32  C   UNL     1       6.660  -4.360  24.219  0.00  0.00    +0.109 A 
ATOM     33  C   UNL     1       7.190  -3.861  23.036  0.00  0.00    +0.147 A 
ATOM     34  C   UNL     1       6.953  -4.531  21.832  0.00  0.00    +0.092 A 
ATOM     35  C   UNL     1       6.170  -5.685  21.835  0.00  0.00    +0.124 A 
ATOM     36  C   UNL     1       5.604  -6.171  23.008  0.00  0.00    +0.091 A 
ATOM     37  O   UNL     1       7.958  -2.724  22.980  0.00  0.00    -0.451 OA
ATOM     38  C   UNL     1       5.846  -5.504  24.203  0.00  0.00    +0.135 A 
ATOM     39  C   UNL     1       8.133  -1.957  24.133  0.00  0.00    +0.181 A 
BRANCH  39  40
ATOM     40  C   UNL     1       8.909  -0.692  23.883  0.00  0.00    +0.025 A 
ATOM     41  C   UNL     1       9.794  -0.203  24.870  0.00  0.00    +0.015 A 
ATOM     42  C   UNL     1      10.545   0.967  24.674  0.00  0.00    +0.050 A 
ATOM     43  C   UNL     1      10.414   1.671  23.491  0.00  0.00    +0.158 A 
ATOM     44  C   UNL     1       9.550   1.219  22.504  0.00  0.00    +0.159 A 
ATOM     45  C   UNL     1       8.819   0.043  22.683  0.00  0.00    +0.060 A 
BRANCH  44  46
ATOM     46  O   UNL     1       9.445   1.965  21.360  0.00  0.00    -0.503 OA
ATOM     47  H   UNL     1      10.010   1.557  20.679  0.00  0.00    +0.292 HD
ENDBRANCH  44  46
BRANCH  43  48
ATOM     48  O   UNL     1      11.137   2.811  23.297  0.00  0.00    -0.503 OA
ATOM     49  H   UNL     1      10.468   3.496  23.097  0.00  0.00    +0.292 HD
ENDBRANCH  43  48
ENDBRANCH  39  40
BRANCH  38  50
ATOM     50  O   UNL     1       5.257  -5.963  25.348  0.00  0.00    -0.506 OA
ATOM     51  H   UNL     1       4.773  -6.787  25.172  0.00  0.00    +0.292 HD
ENDBRANCH  38  50
BRANCH  35  52
ATOM     52  O   UNL     1       5.917  -6.386  20.693  0.00  0.00    -0.507 OA
ATOM     53  H   UNL     1       6.713  -6.384  20.133  0.00  0.00    +0.292 HD
ENDBRANCH  35  52
ENDBRANCH  28  29
ENDBRANCH   4  28
TORSDOF 16
ENDMDL
MODEL 2
REMARK VINA RESULT:      -7.3      2.235      7.125
REMARK  Name = 
REMARK  17 active torsions:
REMARK  status: ('A' for Active; 'I' for Inactive)
REMARK    1  A    between atoms: C_1  and  C_2
REMARK    2  A    between atoms: C_4  and  O_37
REMARK    3  A    between atoms: C_6  and  O_36
REMARK    4  A    between atoms: C_8  and  O_35
REMARK    5  A    between atoms: C_10  and  O_13
REMARK    6  A    between atoms: O_13  and  C_14
REMARK    7  A    between atoms: C_15  and  C_27
REMARK    8  A    between atoms: C_19  and  O_26
REMARK    9  A    between atoms: C_21  and  O_25
REMARK   10  A    between atoms: C_29  and  O_34
REMARK   11  A    between atoms: C_30  and  O_33
REMARK   12  A    between atoms: O_37  and  C_38
REMARK   13  A    between atoms: C_40  and  O_53
REMARK   14  A    between atoms: C_42  and  O_52
REMARK   15  A    between atoms: C_44  and  O_51
REMARK   16  A    between atoms: C_46  and  C_49
REMARK   17  A    between atoms: C_49  and  O_50
REMARK                            x       y       z     vdW  Elec       q    Type
REMARK                         _______ _______ _______ _____ _____    ______ ____
ROOT
ATOM      1  C   UNL     1       9.218  -3.647  24.920  0.00  0.00    +0.041 C 
ATOM      2  C   UNL     1       8.637  -2.234  24.815  0.00  0.00    +0.151 C 
ATOM      3  O   UNL     1       7.277  -2.152  25.280  0.00  0.00    -0.334 OA
ATOM      4  C   UNL     1       6.329  -2.756  24.382  0.00  0.00    +0.339 C 
ATOM      5  C   UNL     1       6.373  -2.080  22.993  0.00  0.00    +0.214 C 
ATOM      6  C   UNL     1       7.785  -2.207  22.418  0.00  0.00    +0.180 C 
ATOM      7  C   UNL     1       8.792  -1.608  23.409  0.00  0.00    +0.181 C 
ENDROOT
BRANCH   5   8
ATOM      8  O   UNL     1       5.441  -2.580  22.027  0.00  0.00    -0.383 OA
ATOM      9  H   UNL     1       5.021  -3.390  22.390  0.00  0.00    +0.210 HD
ENDBRANCH   5   8
BRANCH   6  10
ATOM     10  O   UNL     1       8.162  -3.556  22.123  0.00  0.00    -0.386 OA
ATOM     11  H   UNL     1       7.952  -4.131  22.883  0.00  0.00    +0.210 HD
ENDBRANCH   6  10
BRANCH   7  12
ATOM     12  O   UNL     1       8.547  -0.187  23.393  0.00  0.00    -0.340 OA
BRANCH  12  13
ATOM     13  C   UNL     1       9.655   0.657  23.093  0.00  0.00    +0.282 C 
ATOM     14  O   UNL     1       9.999   1.424  24.255  0.00  0.00    -0.341 OA
ATOM     15  C   UNL     1       9.065   2.437  24.663  0.00  0.00    +0.178 C 
ATOM     16  C   UNL     1       8.658   3.362  23.495  0.00  0.00    +0.177 C 
ATOM     17  C   UNL     1       8.275   2.573  22.236  0.00  0.00    +0.179 C 
ATOM     18  C   UNL     1       9.391   1.574  21.883  0.00  0.00    +0.201 C 
BRANCH  18  19
ATOM     19  O   UNL     1      10.593   2.252  21.498  0.00  0.00    -0.384 OA
ATOM     20  H   UNL     1      11.333   1.786  21.945  0.00  0.00    +0.210 HD
ENDBRANCH  18  19
BRANCH  17  21
ATOM     21  O   UNL     1       6.996   1.956  22.394  0.00  0.00    -0.386 OA
ATOM     22  H   UNL     1       6.352   2.400  21.803  0.00  0.00    +0.210 HD
ENDBRANCH  17  21
BRANCH  16  23
ATOM     23  O   UNL     1       9.795   4.190  23.173  0.00  0.00    -0.386 OA
ATOM     24  H   UNL     1       9.607   5.085  23.511  0.00  0.00    +0.210 HD
ENDBRANCH  16  23
BRANCH  15  25
ATOM     25  C   UNL     1       7.894   1.854  25.474  0.00  0.00    +0.190 C 
BRANCH  25  26
ATOM     26  O   UNL     1       8.307   0.746  26.269  0.00  0.00    -0.392 OA
ATOM     27  H   UNL     1       8.074   0.937  27.194  0.00  0.00    +0.210 HD
ENDBRANCH  25  26
ENDBRANCH  15  25
ENDBRANCH  12  13
ENDBRANCH   7  12
BRANCH   4  28
ATOM     28  O   UNL     1       5.005  -2.600  24.906  0.00  0.00    -0.453 OA
BRANCH  28  29
ATOM     29  C   UNL     1       4.876  -1.780  26.017  0.00  0.00    +0.214 A 
ATOM     30  C   UNL     1       4.834  -0.290  25.862  0.00  0.00    +0.238 A 
ATOM     31  O   UNL     1       5.064   0.245  24.778  0.00  0.00    -0.283 OA
ATOM     32  C   UNL     1       4.538   0.510  27.051  0.00  0.00    +0.109 A 
ATOM     33  C   UNL     1       4.572  -0.134  28.281  0.00  0.00    +0.147 A 
ATOM     34  C   UNL     1       4.391   0.604  29.455  0.00  0.00    +0.092 A 
ATOM     35  C   UNL     1       4.160   1.976  29.371  0.00  0.00    +0.124 A 
ATOM     36  C   UNL     1       4.087   2.623  28.143  0.00  0.00    +0.091 A 
ATOM     37  O   UNL     1       4.785  -1.484  28.415  0.00  0.00    -0.451 OA
ATOM     38  C   UNL     1       4.272   1.887  26.978  0.00  0.00    +0.135 A 
ATOM     39  C   UNL     1       4.861  -2.283  27.273  0.00  0.00    +0.181 A 
BRANCH  39  40
ATOM     40  C   UNL     1       4.991  -3.748  27.591  0.00  0.00    +0.025 A 
ATOM     41  C   UNL     1       3.831  -4.539  27.749  0.00  0.00    +0.015 A 
ATOM     42  C   UNL     1       3.908  -5.912  28.037  0.00  0.00    +0.050 A 
ATOM     43  C   UNL     1       5.146  -6.511  28.179  0.00  0.00    +0.158 A 
ATOM     44  C   UNL     1       6.303  -5.760  28.034  0.00  0.00    +0.159 A 
ATOM     45  C   UNL     1       6.235  -4.400  27.725  0.00  0.00    +0.060 A 
BRANCH  44  46
ATOM     46  O   UNL     1       7.502  -6.400  28.205  0.00  0.00    -0.503 OA
ATOM     47  H   UNL     1       7.559  -6.693  29.133  0.00  0.00    +0.292 HD
ENDBRANCH  44  46
BRANCH  43  48
ATOM     48  O   UNL     1       5.226  -7.842  28.463  0.00  0.00    -0.503 OA
ATOM     49  H   UNL     1       5.990  -8.160  27.940  0.00  0.00    +0.292 HD
ENDBRANCH  43  48
ENDBRANCH  39  40
BRANCH  38  50
ATOM     50  O   UNL     1       4.161   2.518  25.771  0.00  0.00    -0.506 OA
ATOM     51  H   UNL     1       3.259   2.424  25.423  0.00  0.00    +0.292 HD
ENDBRANCH  38  50
BRANCH  35  52
ATOM     52  O   UNL     1       3.990   2.746  30.483  0.00  0.00    -0.507 OA
ATOM     53  H   UNL     1       3.119   3.178  30.443  0.00  0.00    +0.292 HD
ENDBRANCH  35  52
ENDBRANCH  28  29
ENDBRANCH   4  28
TORSDOF 16
ENDMDL
MODEL 3
REMARK VINA RESULT:      -7.2      2.149      8.274
REMARK  Name = 
REMARK  17 active torsions:
REMARK  status: ('A' for Active; 'I' for Inactive)
REMARK    1  A    between atoms: C_1  and  C_2
REMARK    2  A    between atoms: C_4  and  O_37
REMARK    3  A    between atoms: C_6  and  O_36
REMARK    4  A    between atoms: C_8  and  O_35
REMARK    5  A    between atoms: C_10  and  O_13
REMARK    6  A    between atoms: O_13  and  C_14
REMARK    7  A    between atoms: C_15  and  C_27
REMARK    8  A    between atoms: C_19  and  O_26
REMARK    9  A    between atoms: C_21  and  O_25
REMARK   10  A    between atoms: C_29  and  O_34
REMARK   11  A    between atoms: C_30  and  O_33
REMARK   12  A    between atoms: O_37  and  C_38
REMARK   13  A    between atoms: C_40  and  O_53
REMARK   14  A    between atoms: C_42  and  O_52
REMARK   15  A    between atoms: C_44  and  O_51
REMARK   16  A    between atoms: C_46  and  C_49
REMARK   17  A    between atoms: C_49  and  O_50
REMARK                            x       y       z     vdW  Elec       q    Type
REMARK                         _______ _______ _______ _____ _____    ______ ____
ROOT
ATOM      1  C   UNL     1       7.855  -3.360  22.473  0.00  0.00    +0.041 C 
ATOM      2  C   UNL     1       6.799  -3.482  23.576  0.00  0.00    +0.151 C 
ATOM      3  O   UNL     1       6.930  -2.470  24.590  0.00  0.00    -0.334 OA
ATOM      4  C   UNL     1       8.059  -2.673  25.459  0.00  0.00    +0.339 C 
ATOM      5  C   UNL     1       7.959  -4.032  26.188  0.00  0.00    +0.214 C 
ATOM      6  C   UNL     1       7.895  -5.154  25.150  0.00  0.00    +0.180 C 
ATOM      7  C   UNL     1       6.720  -4.897  24.198  0.00  0.00    +0.181 C 
ENDROOT
BRANCH   5   8
ATOM      8  O   UNL     1       9.017  -4.323  27.110  0.00  0.00    -0.383 OA
ATOM      9  H   UNL     1       8.705  -5.014  27.733  0.00  0.00    +0.210 HD
ENDBRANCH   5   8
BRANCH   6  10
ATOM     10  O   UNL     1       9.098  -5.294  24.386  0.00  0.00    -0.386 OA
ATOM     11  H   UNL     1       9.257  -4.482  23.870  0.00  0.00    +0.210 HD
ENDBRANCH   6  10
BRANCH   7  12
ATOM     12  O   UNL     1       5.533  -5.101  24.989  0.00  0.00    -0.340 OA
BRANCH  12  13
ATOM     13  C   UNL     1       5.389  -6.367  25.626  0.00  0.00    +0.282 C 
ATOM     14  O   UNL     1       4.541  -7.208  24.833  0.00  0.00    -0.341 OA
ATOM     15  C   UNL     1       3.151  -6.846  24.765  0.00  0.00    +0.178 C 
ATOM     16  C   UNL     1       2.539  -6.610  26.163  0.00  0.00    +0.177 C 
ATOM     17  C   UNL     1       3.419  -5.708  27.037  0.00  0.00    +0.179 C 
ATOM     18  C   UNL     1       4.859  -6.248  27.068  0.00  0.00    +0.201 C 
BRANCH  18  19
ATOM     19  O   UNL     1       4.923  -7.517  27.731  0.00  0.00    -0.384 OA
ATOM     20  H   UNL     1       4.990  -7.327  28.693  0.00  0.00    +0.210 HD
ENDBRANCH  18  19
BRANCH  17  21
ATOM     21  O   UNL     1       3.337  -4.348  26.605  0.00  0.00    -0.386 OA
ATOM     22  H   UNL     1       2.708  -3.866  27.181  0.00  0.00    +0.210 HD
ENDBRANCH  17  21
BRANCH  16  23
ATOM     23  O   UNL     1       2.429  -7.892  26.817  0.00  0.00    -0.386 OA
ATOM     24  H   UNL     1       2.357  -8.569  26.119  0.00  0.00    +0.210 HD
ENDBRANCH  16  23
BRANCH  15  25
ATOM     25  C   UNL     1       2.892  -5.727  23.740  0.00  0.00    +0.190 C 
BRANCH  25  26
ATOM     26  O   UNL     1       3.751  -5.843  22.610  0.00  0.00    -0.392 OA
ATOM     27  H   UNL     1       4.671  -5.795  22.926  0.00  0.00    +0.210 HD
ENDBRANCH  25  26
ENDBRANCH  15  25
ENDBRANCH  12  13
ENDBRANCH   7  12
BRANCH   4  28
ATOM     28  O   UNL     1       8.091  -1.641  26.453  0.00  0.00    -0.453 OA
BRANCH  28  29
ATOM     29  C   UNL     1       8.099  -0.336  25.985  0.00  0.00    +0.214 A 
ATOM     30  C   UNL     1       9.309   0.216  25.294  0.00  0.00    +0.238 A 
ATOM     31  O   UNL     1      10.367  -0.412  25.260  0.00  0.00    -0.283 OA
ATOM     32  C   UNL     1       9.198   1.542  24.685  0.00  0.00    +0.109 A 
ATOM     33  C   UNL     1       8.082   2.303  25.004  0.00  0.00    +0.147 A 
ATOM     34  C   UNL     1       7.974   3.613  24.525  0.00  0.00    +0.092 A 
ATOM     35  C   UNL     1       8.986   4.129  23.716  0.00  0.00    +0.124 A 
ATOM     36  C   UNL     1      10.089   3.362  23.360  0.00  0.00    +0.091 A 
ATOM     37  O   UNL     1       7.055   1.835  25.787  0.00  0.00    -0.451 OA
ATOM     38  C   UNL     1      10.194   2.062  23.842  0.00  0.00    +0.135 A 
ATOM     39  C   UNL     1       7.059   0.502  26.199  0.00  0.00    +0.181 A 
BRANCH  39  40
ATOM     40  C   UNL     1       5.818   0.120  26.959  0.00  0.00    +0.025 A 
ATOM     41  C   UNL     1       5.716   0.420  28.337  0.00  0.00    +0.015 A 
ATOM     42  C   UNL     1       4.573   0.090  29.082  0.00  0.00    +0.050 A 
ATOM     43  C   UNL     1       3.517  -0.552  28.462  0.00  0.00    +0.158 A 
ATOM     44  C   UNL     1       3.587  -0.863  27.112  0.00  0.00    +0.159 A 
ATOM     45  C   UNL     1       4.711  -0.517  26.360  0.00  0.00    +0.060 A 
BRANCH  44  46
ATOM     46  O   UNL     1       2.521  -1.517  26.553  0.00  0.00    -0.503 OA
ATOM     47  H   UNL     1       1.706  -1.164  26.955  0.00  0.00    +0.292 HD
ENDBRANCH  44  46
BRANCH  43  48
ATOM     48  O   UNL     1       2.405  -0.878  29.181  0.00  0.00    -0.503 OA
ATOM     49  H   UNL     1       2.371  -0.212  29.898  0.00  0.00    +0.292 HD
ENDBRANCH  43  48
ENDBRANCH  39  40
BRANCH  38  50
ATOM     50  O   UNL     1      11.260   1.298  23.459  0.00  0.00    -0.506 OA
ATOM     51  H   UNL     1      10.957   0.527  22.951  0.00  0.00    +0.292 HD
ENDBRANCH  38  50
BRANCH  35  52
ATOM     52  O   UNL     1       8.940   5.403  23.232  0.00  0.00    -0.507 OA
ATOM     53  H   UNL     1       9.617   5.507  22.542  0.00  0.00    +0.292 HD
ENDBRANCH  35  52
ENDBRANCH  28  29
ENDBRANCH   4  28
TORSDOF 16
ENDMDL
MODEL 4
REMARK VINA RESULT:      -7.1      2.228      7.237
REMARK  Name = 
REMARK  17 active torsions:
REMARK  status: ('A' for Active; 'I' for Inactive)
REMARK    1  A    between atoms: C_1  and  C_2
REMARK    2  A    between atoms: C_4  and  O_37
REMARK    3  A    between atoms: C_6  and  O_36
REMARK    4  A    between atoms: C_8  and  O_35
REMARK    5  A    between atoms: C_10  and  O_13
REMARK    6  A    between atoms: O_13  and  C_14
REMARK    7  A    between atoms: C_15  and  C_27
REMARK    8  A    between atoms: C_19  and  O_26
REMARK    9  A    between atoms: C_21  and  O_25
REMARK   10  A    between atoms: C_29  and  O_34
REMARK   11  A    between atoms: C_30  and  O_33
REMARK   12  A    between atoms: O_37  and  C_38
REMARK   13  A    between atoms: C_40  and  O_53
REMARK   14  A    between atoms: C_42  and  O_52
REMARK   15  A    between atoms: C_44  and  O_51
REMARK   16  A    between atoms: C_46  and  C_49
REMARK   17  A    between atoms: C_49  and  O_50
REMARK                            x       y       z     vdW  Elec       q    Type
REMARK                         _______ _______ _______ _____ _____    ______ ____
ROOT
ATOM      1  C   UNL     1       7.548  -3.553  22.134  0.00  0.00    +0.041 C 
ATOM      2  C   UNL     1       6.575  -3.569  23.317  0.00  0.00    +0.151 C 
ATOM      3  O   UNL     1       6.768  -2.462  24.216  0.00  0.00    -0.334 OA
ATOM      4  C   UNL     1       7.958  -2.578  25.017  0.00  0.00    +0.339 C 
ATOM      5  C   UNL     1       7.923  -3.860  25.880  0.00  0.00    +0.214 C 
ATOM      6  C   UNL     1       7.795  -5.077  24.963  0.00  0.00    +0.180 C 
ATOM      7  C   UNL     1       6.554  -4.917  24.077  0.00  0.00    +0.181 C 
ENDROOT
BRANCH   5   8
ATOM      8  O   UNL     1       9.046  -4.057  26.747  0.00  0.00    -0.383 OA
ATOM      9  H   UNL     1       9.218  -3.219  27.229  0.00  0.00    +0.210 HD
ENDBRANCH   5   8
BRANCH   6  10
ATOM     10  O   UNL     1       8.942  -5.289  24.132  0.00  0.00    -0.386 OA
ATOM     11  H   UNL     1       9.524  -5.958  24.538  0.00  0.00    +0.210 HD
ENDBRANCH   6  10
BRANCH   7  12
ATOM     12  O   UNL     1       5.428  -5.045  24.968  0.00  0.00    -0.340 OA
BRANCH  12  13
ATOM     13  C   UNL     1       5.248  -6.306  25.606  0.00  0.00    +0.282 C 
ATOM     14  O   UNL     1       4.184  -7.021  24.963  0.00  0.00    -0.341 OA
ATOM     15  C   UNL     1       2.855  -6.502  25.140  0.00  0.00    +0.178 C 
ATOM     16  C   UNL     1       2.522  -6.242  26.625  0.00  0.00    +0.177 C 
ATOM     17  C   UNL     1       3.637  -5.472  27.343  0.00  0.00    +0.179 C 
ATOM     18  C   UNL     1       4.989  -6.172  27.119  0.00  0.00    +0.201 C 
BRANCH  18  19
ATOM     19  O   UNL     1       5.016  -7.460  27.748  0.00  0.00    -0.384 OA
ATOM     20  H   UNL     1       5.730  -7.427  28.422  0.00  0.00    +0.210 HD
ENDBRANCH  18  19
BRANCH  17  21
ATOM     21  O   UNL     1       3.642  -4.099  26.946  0.00  0.00    -0.386 OA
ATOM     22  H   UNL     1       2.725  -3.823  26.739  0.00  0.00    +0.210 HD
ENDBRANCH  17  21
BRANCH  16  23
ATOM     23  O   UNL     1       2.376  -7.522  27.274  0.00  0.00    -0.386 OA
ATOM     24  H   UNL     1       2.548  -8.209  26.604  0.00  0.00    +0.210 HD
ENDBRANCH  16  23
BRANCH  15  25
ATOM     25  C   UNL     1       2.558  -5.330  24.187  0.00  0.00    +0.190 C 
BRANCH  25  26
ATOM     26  O   UNL     1       3.206  -5.499  22.930  0.00  0.00    -0.392 OA
ATOM     27  H   UNL     1       2.903  -6.341  22.547  0.00  0.00    +0.210 HD
ENDBRANCH  25  26
ENDBRANCH  15  25
ENDBRANCH  12  13
ENDBRANCH   7  12
BRANCH   4  28
ATOM     28  O   UNL     1       8.052  -1.454  25.901  0.00  0.00    -0.453 OA
BRANCH  28  29
ATOM     29  C   UNL     1       6.909  -0.679  26.034  0.00  0.00    +0.214 A 
ATOM     30  C   UNL     1       5.771  -1.142  26.891  0.00  0.00    +0.238 A 
ATOM     31  O   UNL     1       5.754  -2.276  27.370  0.00  0.00    -0.283 OA
ATOM     32  C   UNL     1       4.666  -0.211  27.116  0.00  0.00    +0.109 A 
ATOM     33  C   UNL     1       4.616   0.929  26.324  0.00  0.00    +0.147 A 
ATOM     34  C   UNL     1       3.530   1.802  26.433  0.00  0.00    +0.092 A 
ATOM     35  C   UNL     1       2.519   1.524  27.352  0.00  0.00    +0.124 A 
ATOM     36  C   UNL     1       2.578   0.406  28.176  0.00  0.00    +0.091 A 
ATOM     37  O   UNL     1       5.592   1.251  25.413  0.00  0.00    -0.451 OA
ATOM     38  C   UNL     1       3.657  -0.462  28.061  0.00  0.00    +0.135 A 
ATOM     39  C   UNL     1       6.749   0.474  25.343  0.00  0.00    +0.181 A 
BRANCH  39  40
ATOM     40  C   UNL     1       7.762   1.018  24.373  0.00  0.00    +0.025 A 
ATOM     41  C   UNL     1       8.829   1.815  24.843  0.00  0.00    +0.015 A 
ATOM     42  C   UNL     1       9.802   2.335  23.974  0.00  0.00    +0.050 A 
ATOM     43  C   UNL     1       9.716   2.071  22.619  0.00  0.00    +0.158 A 
ATOM     44  C   UNL     1       8.678   1.294  22.126  0.00  0.00    +0.159 A 
ATOM     45  C   UNL     1       7.721   0.755  22.987  0.00  0.00    +0.060 A 
BRANCH  44  46
ATOM     46  O   UNL     1       8.630   1.081  20.773  0.00  0.00    -0.503 OA
ATOM     47  H   UNL     1       8.117   1.805  20.370  0.00  0.00    +0.292 HD
ENDBRANCH  44  46
BRANCH  43  48
ATOM     48  O   UNL     1      10.655   2.577  21.769  0.00  0.00    -0.503 OA
ATOM     49  H   UNL     1      10.739   1.902  21.065  0.00  0.00    +0.292 HD
ENDBRANCH  43  48
ENDBRANCH  39  40
BRANCH  38  50
ATOM     50  O   UNL     1       3.732  -1.540  28.898  0.00  0.00    -0.506 OA
ATOM     51  H   UNL     1       3.542  -1.270  29.813  0.00  0.00    +0.292 HD
ENDBRANCH  38  50
BRANCH  35  52
ATOM     52  O   UNL     1       1.431   2.334  27.491  0.00  0.00    -0.507 OA
ATOM     53  H   UNL     1       1.698   3.258  27.342  0.00  0.00    +0.292 HD
ENDBRANCH  35  52
ENDBRANCH  28  29
ENDBRANCH   4  28
TORSDOF 16
ENDMDL
MODEL 5
REMARK VINA RESULT:      -7.0      0.925      1.815
REMARK  Name = 
REMARK  17 active torsions:
REMARK  status: ('A' for Active; 'I' for Inactive)
REMARK    1  A    between atoms: C_1  and  C_2
REMARK    2  A    between atoms: C_4  and  O_37
REMARK    3  A    between atoms: C_6  and  O_36
REMARK    4  A    between atoms: C_8  and  O_35
REMARK    5  A    between atoms: C_10  and  O_13
REMARK    6  A    between atoms: O_13  and  C_14
REMARK    7  A    between atoms: C_15  and  C_27
REMARK    8  A    between atoms: C_19  and  O_26
REMARK    9  A    between atoms: C_21  and  O_25
REMARK   10  A    between atoms: C_29  and  O_34
REMARK   11  A    between atoms: C_30  and  O_33
REMARK   12  A    between atoms: O_37  and  C_38
REMARK   13  A    between atoms: C_40  and  O_53
REMARK   14  A    between atoms: C_42  and  O_52
REMARK   15  A    between atoms: C_44  and  O_51
REMARK   16  A    between atoms: C_46  and  C_49
REMARK   17  A    between atoms: C_49  and  O_50
REMARK                            x       y       z     vdW  Elec       q    Type
REMARK                         _______ _______ _______ _____ _____    ______ ____
ROOT
ATOM      1  C   UNL     1       3.808  -0.322  27.152  0.00  0.00    +0.041 C 
ATOM      2  C   UNL     1       4.818   0.525  26.372  0.00  0.00    +0.151 C 
ATOM      3  O   UNL     1       5.960  -0.231  25.930  0.00  0.00    -0.334 OA
ATOM      4  C   UNL     1       6.864  -0.576  26.994  0.00  0.00    +0.339 C 
ATOM      5  C   UNL     1       7.406   0.692  27.693  0.00  0.00    +0.214 C 
ATOM      6  C   UNL     1       6.231   1.497  28.251  0.00  0.00    +0.180 C 
ATOM      7  C   UNL     1       5.247   1.812  27.117  0.00  0.00    +0.181 C 
ENDROOT
BRANCH   5   8
ATOM      8  O   UNL     1       8.347   0.467  28.750  0.00  0.00    -0.383 OA
ATOM      9  H   UNL     1       9.253   0.589  28.390  0.00  0.00    +0.210 HD
ENDBRANCH   5   8
BRANCH   6  10
ATOM     10  O   UNL     1       5.532   0.830  29.308  0.00  0.00    -0.386 OA
ATOM     11  H   UNL     1       4.582   1.045  29.262  0.00  0.00    +0.210 HD
ENDBRANCH   6  10
BRANCH   7  12
ATOM     12  O   UNL     1       5.930   2.755  26.268  0.00  0.00    -0.340 OA
BRANCH  12  13
ATOM     13  C   UNL     1       5.481   4.107  26.309  0.00  0.00    +0.282 C 
ATOM     14  O   UNL     1       4.756   4.407  25.109  0.00  0.00    -0.341 OA
ATOM     15  C   UNL     1       5.519   4.474  23.892  0.00  0.00    +0.178 C 
ATOM     16  C   UNL     1       6.758   5.386  24.028  0.00  0.00    +0.177 C 
ATOM     17  C   UNL     1       7.561   5.086  25.300  0.00  0.00    +0.179 C 
ATOM     18  C   UNL     1       6.633   5.107  26.526  0.00  0.00    +0.201 C 
BRANCH  18  19
ATOM     19  O   UNL     1       6.115   6.423  26.762  0.00  0.00    -0.384 OA
ATOM     20  H   UNL     1       5.864   6.786  25.884  0.00  0.00    +0.210 HD
ENDBRANCH  18  19
BRANCH  17  21
ATOM     21  O   UNL     1       8.287   3.862  25.164  0.00  0.00    -0.386 OA
ATOM     22  H   UNL     1       8.689   3.826  24.271  0.00  0.00    +0.210 HD
ENDBRANCH  17  21
BRANCH  16  23
ATOM     23  O   UNL     1       6.295   6.750  24.105  0.00  0.00    -0.386 OA
ATOM     24  H   UNL     1       5.681   6.806  24.861  0.00  0.00    +0.210 HD
ENDBRANCH  16  23
BRANCH  15  25
ATOM     25  C   UNL     1       5.793   3.080  23.301  0.00  0.00    +0.190 C 
BRANCH  25  26
ATOM     26  O   UNL     1       4.657   2.228  23.419  0.00  0.00    -0.392 OA
ATOM     27  H   UNL     1       4.893   1.360  23.046  0.00  0.00    +0.210 HD
ENDBRANCH  25  26
ENDBRANCH  15  25
ENDBRANCH  12  13
ENDBRANCH   7  12
BRANCH   4  28
ATOM     28  O   UNL     1       7.982  -1.295  26.460  0.00  0.00    -0.453 OA
BRANCH  28  29
ATOM     29  C   UNL     1       7.724  -2.112  25.370  0.00  0.00    +0.214 A 
ATOM     30  C   UNL     1       7.099  -3.461  25.561  0.00  0.00    +0.238 A 
ATOM     31  O   UNL     1       6.943  -3.938  26.685  0.00  0.00    -0.283 OA
ATOM     32  C   UNL     1       6.707  -4.205  24.364  0.00  0.00    +0.109 A 
ATOM     33  C   UNL     1       7.167  -3.739  23.140  0.00  0.00    +0.147 A 
ATOM     34  C   UNL     1       6.902  -4.466  21.976  0.00  0.00    +0.092 A 
ATOM     35  C   UNL     1       6.160  -5.644  22.061  0.00  0.00    +0.124 A 
ATOM     36  C   UNL     1       5.662  -6.099  23.277  0.00  0.00    +0.091 A 
ATOM     37  O   UNL     1       7.892  -2.580  23.004  0.00  0.00    -0.451 OA
ATOM     38  C   UNL     1       5.933  -5.375  24.432  0.00  0.00    +0.135 A 
ATOM     39  C   UNL     1       8.090  -1.760  24.115  0.00  0.00    +0.181 A 
BRANCH  39  40
ATOM     40  C   UNL     1       8.810  -0.482  23.780  0.00  0.00    +0.025 A 
ATOM     41  C   UNL     1       9.906  -0.065  24.568  0.00  0.00    +0.015 A 
ATOM     42  C   UNL     1      10.612   1.116  24.285  0.00  0.00    +0.050 A 
ATOM     43  C   UNL     1      10.227   1.900  23.214  0.00  0.00    +0.158 A 
ATOM     44  C   UNL     1       9.152   1.519  22.423  0.00  0.00    +0.159 A 
ATOM     45  C   UNL     1       8.461   0.335  22.685  0.00  0.00    +0.060 A 
BRANCH  44  46
ATOM     46  O   UNL     1       8.802   2.343  21.386  0.00  0.00    -0.503 OA
ATOM     47  H   UNL     1       9.148   1.956  20.561  0.00  0.00    +0.292 HD
ENDBRANCH  44  46
BRANCH  43  48
ATOM     48  O   UNL     1      10.906   3.050  22.936  0.00  0.00    -0.503 OA
ATOM     49  H   UNL     1      11.785   2.748  22.627  0.00  0.00    +0.292 HD
ENDBRANCH  43  48
ENDBRANCH  39  40
BRANCH  38  50
ATOM     50  O   UNL     1       5.411  -5.804  25.620  0.00  0.00    -0.506 OA
ATOM     51  H   UNL     1       4.716  -5.195  25.922  0.00  0.00    +0.292 HD
ENDBRANCH  38  50
BRANCH  35  52
ATOM     52  O   UNL     1       5.882  -6.400  20.961  0.00  0.00    -0.507 OA
ATOM     53  H   UNL     1       5.063  -6.902  21.116  0.00  0.00    +0.292 HD
ENDBRANCH  35  52
ENDBRANCH  28  29
ENDBRANCH   4  28
TORSDOF 16
ENDMDL
MODEL 6
REMARK VINA RESULT:      -7.0      2.159      7.428
REMARK  Name = 
REMARK  17 active torsions:
REMARK  status: ('A' for Active; 'I' for Inactive)
REMARK    1  A    between atoms: C_1  and  C_2
REMARK    2  A    between atoms: C_4  and  O_37
REMARK    3  A    between atoms: C_6  and  O_36
REMARK    4  A    between atoms: C_8  and  O_35
REMARK    5  A    between atoms: C_10  and  O_13
REMARK    6  A    between atoms: O_13  and  C_14
REMARK    7  A    between atoms: C_15  and  C_27
REMARK    8  A    between atoms: C_19  and  O_26
REMARK    9  A    between atoms: C_21  and  O_25
REMARK   10  A    between atoms: C_29  and  O_34
REMARK   11  A    between atoms: C_30  and  O_33
REMARK   12  A    between atoms: O_37  and  C_38
REMARK   13  A    between atoms: C_40  and  O_53
REMARK   14  A    between atoms: C_42  and  O_52
REMARK   15  A    between atoms: C_44  and  O_51
REMARK   16  A    between atoms: C_46  and  C_49
REMARK   17  A    between atoms: C_49  and  O_50
REMARK                            x       y       z     vdW  Elec       q    Type
REMARK                         _______ _______ _______ _____ _____    ______ ____
ROOT
ATOM      1  C   UNL     1       9.283   0.093  21.500  0.00  0.00    +0.041 C 
ATOM      2  C   UNL     1       8.123  -0.410  22.365  0.00  0.00    +0.151 C 
ATOM      3  O   UNL     1       7.590   0.608  23.232  0.00  0.00    -0.334 OA
ATOM      4  C   UNL     1       8.455   0.928  24.337  0.00  0.00    +0.339 C 
ATOM      5  C   UNL     1       8.721  -0.318  25.213  0.00  0.00    +0.214 C 
ATOM      6  C   UNL     1       9.361  -1.408  24.351  0.00  0.00    +0.180 C 
ATOM      7  C   UNL     1       8.456  -1.702  23.149  0.00  0.00    +0.181 C 
ENDROOT
BRANCH   5   8
ATOM      8  O   UNL     1       9.544  -0.104  26.366  0.00  0.00    -0.383 OA
ATOM      9  H   UNL     1      10.278  -0.755  26.348  0.00  0.00    +0.210 HD
ENDBRANCH   5   8
BRANCH   6  10
ATOM     10  O   UNL     1      10.671  -1.068  23.881  0.00  0.00    -0.386 OA
ATOM     11  H   UNL     1      11.309  -1.749  24.164  0.00  0.00    +0.210 HD
ENDBRANCH   6  10
BRANCH   7  12
ATOM     12  O   UNL     1       7.288  -2.347  23.697  0.00  0.00    -0.340 OA
BRANCH  12  13
ATOM     13  C   UNL     1       6.250  -2.690  22.783  0.00  0.00    +0.282 C 
ATOM     14  O   UNL     1       5.094  -3.119  23.514  0.00  0.00    -0.341 OA
ATOM     15  C   UNL     1       5.193  -4.377  24.204  0.00  0.00    +0.178 C 
ATOM     16  C   UNL     1       5.716  -5.506  23.289  0.00  0.00    +0.177 C 
ATOM     17  C   UNL     1       6.959  -5.082  22.497  0.00  0.00    +0.179 C 
ATOM     18  C   UNL     1       6.688  -3.758  21.762  0.00  0.00    +0.201 C 
BRANCH  18  19
ATOM     19  O   UNL     1       5.688  -3.921  20.749  0.00  0.00    -0.384 OA
ATOM     20  H   UNL     1       5.462  -3.019  20.432  0.00  0.00    +0.210 HD
ENDBRANCH  18  19
BRANCH  17  21
ATOM     21  O   UNL     1       8.107  -5.031  23.346  0.00  0.00    -0.386 OA
ATOM     22  H   UNL     1       8.807  -4.504  22.906  0.00  0.00    +0.210 HD
ENDBRANCH  17  21
BRANCH  16  23
ATOM     23  O   UNL     1       4.673  -5.825  22.344  0.00  0.00    -0.386 OA
ATOM     24  H   UNL     1       4.228  -4.989  22.109  0.00  0.00    +0.210 HD
ENDBRANCH  16  23
BRANCH  15  25
ATOM     25  C   UNL     1       5.917  -4.241  25.555  0.00  0.00    +0.190 C 
BRANCH  25  26
ATOM     26  O   UNL     1       6.602  -5.440  25.905  0.00  0.00    -0.392 OA
ATOM     27  H   UNL     1       7.313  -5.208  26.528  0.00  0.00    +0.210 HD
ENDBRANCH  25  26
ENDBRANCH  15  25
ENDBRANCH  12  13
ENDBRANCH   7  12
BRANCH   4  28
ATOM     28  O   UNL     1       7.832   1.921  25.161  0.00  0.00    -0.453 OA
BRANCH  28  29
ATOM     29  C   UNL     1       6.993   2.817  24.517  0.00  0.00    +0.214 A 
ATOM     30  C   UNL     1       5.531   2.521  24.372  0.00  0.00    +0.238 A 
ATOM     31  O   UNL     1       5.070   1.421  24.678  0.00  0.00    -0.283 OA
ATOM     32  C   UNL     1       4.674   3.573  23.826  0.00  0.00    +0.109 A 
ATOM     33  C   UNL     1       5.297   4.669  23.243  0.00  0.00    +0.147 A 
ATOM     34  C   UNL     1       4.526   5.656  22.622  0.00  0.00    +0.092 A 
ATOM     35  C   UNL     1       3.137   5.533  22.614  0.00  0.00    +0.124 A 
ATOM     36  C   UNL     1       2.502   4.460  23.228  0.00  0.00    +0.091 A 
ATOM     37  O   UNL     1       6.660   4.840  23.235  0.00  0.00    -0.451 OA
ATOM     38  C   UNL     1       3.273   3.478  23.840  0.00  0.00    +0.135 A 
ATOM     39  C   UNL     1       7.468   3.943  23.935  0.00  0.00    +0.181 A 
BRANCH  39  40
ATOM     40  C   UNL     1       8.922   4.326  23.915  0.00  0.00    +0.025 A 
ATOM     41  C   UNL     1       9.865   3.478  23.292  0.00  0.00    +0.015 A 
ATOM     42  C   UNL     1      11.230   3.802  23.242  0.00  0.00    +0.050 A 
ATOM     43  C   UNL     1      11.674   4.976  23.822  0.00  0.00    +0.158 A 
ATOM     44  C   UNL     1      10.774   5.828  24.445  0.00  0.00    +0.159 A 
ATOM     45  C   UNL     1       9.412   5.523  24.478  0.00  0.00    +0.060 A 
BRANCH  44  46
ATOM     46  O   UNL     1      11.271   6.968  25.021  0.00  0.00    -0.503 OA
ATOM     47  H   UNL     1      11.676   7.509  24.319  0.00  0.00    +0.292 HD
ENDBRANCH  44  46
BRANCH  43  48
ATOM     48  O   UNL     1      13.000   5.294  23.781  0.00  0.00    -0.503 OA
ATOM     49  H   UNL     1      13.434   4.492  23.424  0.00  0.00    +0.292 HD
ENDBRANCH  43  48
ENDBRANCH  39  40
BRANCH  38  50
ATOM     50  O   UNL     1       2.646   2.444  24.476  0.00  0.00    -0.506 OA
ATOM     51  H   UNL     1       1.837   2.758  24.915  0.00  0.00    +0.292 HD
ENDBRANCH  38  50
BRANCH  35  52
ATOM     52  O   UNL     1       2.337   6.459  22.012  0.00  0.00    -0.507 OA
ATOM     53  H   UNL     1       1.885   6.984  22.695  0.00  0.00    +0.292 HD
ENDBRANCH  35  52
ENDBRANCH  28  29
ENDBRANCH   4  28
TORSDOF 16
ENDMDL
MODEL 7
REMARK VINA RESULT:      -6.9      2.723      6.295
REMARK  Name = 
REMARK  17 active torsions:
REMARK  status: ('A' for Active; 'I' for Inactive)
REMARK    1  A    between atoms: C_1  and  C_2
REMARK    2  A    between atoms: C_4  and  O_37
REMARK    3  A    between atoms: C_6  and  O_36
REMARK    4  A    between atoms: C_8  and  O_35
REMARK    5  A    between atoms: C_10  and  O_13
REMARK    6  A    between atoms: O_13  and  C_14
REMARK    7  A    between atoms: C_15  and  C_27
REMARK    8  A    between atoms: C_19  and  O_26
REMARK    9  A    between atoms: C_21  and  O_25
REMARK   10  A    between atoms: C_29  and  O_34
REMARK   11  A    between atoms: C_30  and  O_33
REMARK   12  A    between atoms: O_37  and  C_38
REMARK   13  A    between atoms: C_40  and  O_53
REMARK   14  A    between atoms: C_42  and  O_52
REMARK   15  A    between atoms: C_44  and  O_51
REMARK   16  A    between atoms: C_46  and  C_49
REMARK   17  A    between atoms: C_49  and  O_50
REMARK                            x       y       z     vdW  Elec       q    Type
REMARK                         _______ _______ _______ _____ _____    ______ ____
ROOT
ATOM      1  C   UNL     1       8.446  -4.521  25.077  0.00  0.00    +0.041 C 
ATOM      2  C   UNL     1       8.124  -3.064  24.732  0.00  0.00    +0.151 C 
ATOM      3  O   UNL     1       6.746  -2.725  24.968  0.00  0.00    -0.334 OA
ATOM      4  C   UNL     1       5.844  -3.295  24.003  0.00  0.00    +0.339 C 
ATOM      5  C   UNL     1       6.188  -2.820  22.573  0.00  0.00    +0.214 C 
ATOM      6  C   UNL     1       7.625  -3.226  22.243  0.00  0.00    +0.180 C 
ATOM      7  C   UNL     1       8.571  -2.656  23.308  0.00  0.00    +0.181 C 
ENDROOT
BRANCH   5   8
ATOM      8  O   UNL     1       5.328  -3.300  21.533  0.00  0.00    -0.383 OA
ATOM      9  H   UNL     1       4.661  -3.899  21.933  0.00  0.00    +0.210 HD
ENDBRANCH   5   8
BRANCH   6  10
ATOM     10  O   UNL     1       7.813  -4.643  22.156  0.00  0.00    -0.386 OA
ATOM     11  H   UNL     1       8.220  -4.870  21.299  0.00  0.00    +0.210 HD
ENDBRANCH   6  10
BRANCH   7  12
ATOM     12  O   UNL     1       8.567  -1.230  23.102  0.00  0.00    -0.340 OA
BRANCH  12  13
ATOM     13  C   UNL     1       9.317  -0.441  24.021  0.00  0.00    +0.282 C 
ATOM     14  O   UNL     1       8.425   0.399  24.767  0.00  0.00    -0.341 OA
ATOM     15  C   UNL     1       7.784   1.466  24.046  0.00  0.00    +0.178 C 
ATOM     16  C   UNL     1       8.791   2.313  23.238  0.00  0.00    +0.177 C 
ATOM     17  C   UNL     1       9.757   1.444  22.422  0.00  0.00    +0.179 C 
ATOM     18  C   UNL     1      10.414   0.391  23.331  0.00  0.00    +0.201 C 
BRANCH  18  19
ATOM     19  O   UNL     1      11.264   1.006  24.307  0.00  0.00    -0.384 OA
ATOM     20  H   UNL     1      11.126   0.516  25.147  0.00  0.00    +0.210 HD
ENDBRANCH  18  19
BRANCH  17  21
ATOM     21  O   UNL     1       9.094   0.877  21.290  0.00  0.00    -0.386 OA
ATOM     22  H   UNL     1       9.568   0.065  21.016  0.00  0.00    +0.210 HD
ENDBRANCH  17  21
BRANCH  16  23
ATOM     23  O   UNL     1       9.571   3.083  24.177  0.00  0.00    -0.386 OA
ATOM     24  H   UNL     1      10.510   2.883  24.008  0.00  0.00    +0.210 HD
ENDBRANCH  16  23
BRANCH  15  25
ATOM     25  C   UNL     1       6.558   0.976  23.256  0.00  0.00    +0.190 C 
BRANCH  25  26
ATOM     26  O   UNL     1       5.758   0.086  24.028  0.00  0.00    -0.392 OA
ATOM     27  H   UNL     1       4.892   0.006  23.591  0.00  0.00    +0.210 HD
ENDBRANCH  25  26
ENDBRANCH  15  25
ENDBRANCH  12  13
ENDBRANCH   7  12
BRANCH   4  28
ATOM     28  O   UNL     1       4.504  -2.880  24.294  0.00  0.00    -0.453 OA
BRANCH  28  29
ATOM     29  C   UNL     1       3.712  -3.791  24.975  0.00  0.00    +0.214 A 
ATOM     30  C   UNL     1       3.395  -5.125  24.370  0.00  0.00    +0.238 A 
ATOM     31  O   UNL     1       3.696  -5.384  23.205  0.00  0.00    -0.283 OA
ATOM     32  C   UNL     1       2.690  -6.100  25.202  0.00  0.00    +0.109 A 
ATOM     33  C   UNL     1       2.136  -5.646  26.392  0.00  0.00    +0.147 A 
ATOM     34  C   UNL     1       1.371  -6.513  27.177  0.00  0.00    +0.092 A 
ATOM     35  C   UNL     1       1.190  -7.832  26.761  0.00  0.00    +0.124 A 
ATOM     36  C   UNL     1       1.772  -8.306  25.591  0.00  0.00    +0.091 A 
ATOM     37  O   UNL     1       2.295  -4.360  26.850  0.00  0.00    -0.451 OA
ATOM     38  C   UNL     1       2.528  -7.439  24.811  0.00  0.00    +0.135 A 
ATOM     39  C   UNL     1       3.138  -3.487  26.163  0.00  0.00    +0.181 A 
BRANCH  39  40
ATOM     40  C   UNL     1       3.285  -2.155  26.847  0.00  0.00    +0.025 A 
ATOM     41  C   UNL     1       2.143  -1.361  27.096  0.00  0.00    +0.015 A 
ATOM     42  C   UNL     1       2.234  -0.117  27.741  0.00  0.00    +0.050 A 
ATOM     43  C   UNL     1       3.471   0.356  28.138  0.00  0.00    +0.158 A 
ATOM     44  C   UNL     1       4.612  -0.398  27.905  0.00  0.00    +0.159 A 
ATOM     45  C   UNL     1       4.526  -1.646  27.286  0.00  0.00    +0.060 A 
BRANCH  44  46
ATOM     46  O   UNL     1       5.814   0.127  28.302  0.00  0.00    -0.503 OA
ATOM     47  H   UNL     1       5.908  -0.025  29.261  0.00  0.00    +0.292 HD
ENDBRANCH  44  46
BRANCH  43  48
ATOM     48  O   UNL     1       3.566   1.565  28.761  0.00  0.00    -0.503 OA
ATOM     49  H   UNL     1       2.640   1.818  28.950  0.00  0.00    +0.292 HD
ENDBRANCH  43  48
ENDBRANCH  39  40
BRANCH  38  50
ATOM     50  O   UNL     1       3.130  -7.918  23.681  0.00  0.00    -0.506 OA
ATOM     51  H   UNL     1       4.010  -8.272  23.893  0.00  0.00    +0.292 HD
ENDBRANCH  38  50
BRANCH  35  52
ATOM     52  O   UNL     1       0.444  -8.717  27.480  0.00  0.00    -0.507 OA
ATOM     53  H   UNL     1      -0.191  -9.156  26.887  0.00  0.00    +0.292 HD
ENDBRANCH  35  52
ENDBRANCH  28  29
ENDBRANCH   4  28
TORSDOF 16
ENDMDL
MODEL 8
REMARK VINA RESULT:      -6.8      1.763      2.758
REMARK  Name = 
REMARK  17 active torsions:
REMARK  status: ('A' for Active; 'I' for Inactive)
REMARK    1  A    between atoms: C_1  and  C_2
REMARK    2  A    between atoms: C_4  and  O_37
REMARK    3  A    between atoms: C_6  and  O_36
REMARK    4  A    between atoms: C_8  and  O_35
REMARK    5  A    between atoms: C_10  and  O_13
REMARK    6  A    between atoms: O_13  and  C_14
REMARK    7  A    between atoms: C_15  and  C_27
REMARK    8  A    between atoms: C_19  and  O_26
REMARK    9  A    between atoms: C_21  and  O_25
REMARK   10  A    between atoms: C_29  and  O_34
REMARK   11  A    between atoms: C_30  and  O_33
REMARK   12  A    between atoms: O_37  and  C_38
REMARK   13  A    between atoms: C_40  and  O_53
REMARK   14  A    between atoms: C_42  and  O_52
REMARK   15  A    between atoms: C_44  and  O_51
REMARK   16  A    between atoms: C_46  and  C_49
REMARK   17  A    between atoms: C_49  and  O_50
REMARK                            x       y       z     vdW  Elec       q    Type
REMARK                         _______ _______ _______ _____ _____    ______ ____
ROOT
ATOM      1  C   UNL     1       3.816  -0.086  27.857  0.00  0.00    +0.041 C 
ATOM      2  C   UNL     1       4.744   0.452  26.764  0.00  0.00    +0.151 C 
ATOM      3  O   UNL     1       5.627  -0.553  26.234  0.00  0.00    -0.334 OA
ATOM      4  C   UNL     1       6.682  -0.922  27.140  0.00  0.00    +0.339 C 
ATOM      5  C   UNL     1       7.556   0.301  27.501  0.00  0.00    +0.214 C 
ATOM      6  C   UNL     1       6.674   1.374  28.142  0.00  0.00    +0.180 C 
ATOM      7  C   UNL     1       5.522   1.720  27.189  0.00  0.00    +0.181 C 
ENDROOT
BRANCH   5   8
ATOM      8  O   UNL     1       8.663   0.040  28.372  0.00  0.00    -0.383 OA
ATOM      9  H   UNL     1       9.473  -0.055  27.826  0.00  0.00    +0.210 HD
ENDBRANCH   5   8
BRANCH   6  10
ATOM     10  O   UNL     1       6.134   0.988  29.411  0.00  0.00    -0.386 OA
ATOM     11  H   UNL     1       5.243   1.368  29.519  0.00  0.00    +0.210 HD
ENDBRANCH   6  10
BRANCH   7  12
ATOM     12  O   UNL     1       6.136   2.405  26.079  0.00  0.00    -0.340 OA
BRANCH  12  13
ATOM     13  C   UNL     1       6.205   3.826  26.153  0.00  0.00    +0.282 C 
ATOM     14  O   UNL     1       5.382   4.399  25.128  0.00  0.00    -0.341 OA
ATOM     15  C   UNL     1       5.829   4.236  23.771  0.00  0.00    +0.178 C 
ATOM     16  C   UNL     1       7.305   4.652  23.588  0.00  0.00    +0.177 C 
ATOM     17  C   UNL     1       8.216   4.050  24.666  0.00  0.00    +0.179 C 
ATOM     18  C   UNL     1       7.650   4.354  26.063  0.00  0.00    +0.201 C 
BRANCH  18  19
ATOM     19  O   UNL     1       7.687   5.759  26.344  0.00  0.00    -0.384 OA
ATOM     20  H   UNL     1       7.390   6.215  25.526  0.00  0.00    +0.210 HD
ENDBRANCH  18  19
BRANCH  17  21
ATOM     21  O   UNL     1       8.422   2.655  24.433  0.00  0.00    -0.386 OA
ATOM     22  H   UNL     1       8.577   2.510  23.476  0.00  0.00    +0.210 HD
ENDBRANCH  17  21
BRANCH  16  23
ATOM     23  O   UNL     1       7.374   6.089  23.700  0.00  0.00    -0.386 OA
ATOM     24  H   UNL     1       7.002   6.331  24.568  0.00  0.00    +0.210 HD
ENDBRANCH  16  23
BRANCH  15  25
ATOM     25  C   UNL     1       5.464   2.853  23.202  0.00  0.00    +0.190 C 
BRANCH  25  26
ATOM     26  O   UNL     1       4.250   2.360  23.762  0.00  0.00    -0.392 OA
ATOM     27  H   UNL     1       3.556   2.432  23.084  0.00  0.00    +0.210 HD
ENDBRANCH  25  26
ENDBRANCH  15  25
ENDBRANCH  12  13
ENDBRANCH   7  12
BRANCH   4  28
ATOM     28  O   UNL     1       7.527  -1.899  26.520  0.00  0.00    -0.453 OA
BRANCH  28  29
ATOM     29  C   UNL     1       6.886  -2.952  25.884  0.00  0.00    +0.214 A 
ATOM     30  C   UNL     1       6.265  -4.058  26.683  0.00  0.00    +0.238 A 
ATOM     31  O   UNL     1       6.438  -4.141  27.899  0.00  0.00    -0.283 OA
ATOM     32  C   UNL     1       5.470  -5.052  25.963  0.00  0.00    +0.109 A 
ATOM     33  C   UNL     1       5.553  -5.060  24.577  0.00  0.00    +0.147 A 
ATOM     34  C   UNL     1       4.889  -6.050  23.847  0.00  0.00    +0.092 A 
ATOM     35  C   UNL     1       4.134  -7.007  24.524  0.00  0.00    +0.124 A 
ATOM     36  C   UNL     1       4.014  -6.986  25.909  0.00  0.00    +0.091 A 
ATOM     37  O   UNL     1       6.274  -4.132  23.865  0.00  0.00    -0.451 OA
ATOM     38  C   UNL     1       4.680  -6.002  26.631  0.00  0.00    +0.135 A 
ATOM     39  C   UNL     1       6.864  -3.060  24.536  0.00  0.00    +0.181 A 
BRANCH  39  40
ATOM     40  C   UNL     1       7.527  -2.081  23.605  0.00  0.00    +0.025 A 
ATOM     41  C   UNL     1       6.876  -0.869  23.280  0.00  0.00    +0.015 A 
ATOM     42  C   UNL     1       7.462   0.077  22.423  0.00  0.00    +0.050 A 
ATOM     43  C   UNL     1       8.704  -0.179  21.873  0.00  0.00    +0.158 A 
ATOM     44  C   UNL     1       9.367  -1.361  22.170  0.00  0.00    +0.159 A 
ATOM     45  C   UNL     1       8.801  -2.295  23.039  0.00  0.00    +0.060 A 
BRANCH  44  46
ATOM     46  O   UNL     1      10.586  -1.572  21.581  0.00  0.00    -0.503 OA
ATOM     47  H   UNL     1      11.278  -1.309  22.216  0.00  0.00    +0.292 HD
ENDBRANCH  44  46
BRANCH  43  48
ATOM     48  O   UNL     1       9.276   0.734  21.037  0.00  0.00    -0.503 OA
ATOM     49  H   UNL     1       9.492   1.495  21.614  0.00  0.00    +0.292 HD
ENDBRANCH  43  48
ENDBRANCH  39  40
BRANCH  38  50
ATOM     50  O   UNL     1       4.529  -5.961  27.989  0.00  0.00    -0.506 OA
ATOM     51  H   UNL     1       3.870  -6.615  28.275  0.00  0.00    +0.292 HD
ENDBRANCH  38  50
BRANCH  35  52
ATOM     52  O   UNL     1       3.476  -8.002  23.864  0.00  0.00    -0.507 OA
ATOM     53  H   UNL     1       2.716  -8.292  24.398  0.00  0.00    +0.292 HD
ENDBRANCH  35  52
ENDBRANCH  28  29
ENDBRANCH   4  28
TORSDOF 16
ENDMDL
MODEL 9
REMARK VINA RESULT:      -6.7      2.050      7.387
REMARK  Name = 
REMARK  17 active torsions:
REMARK  status: ('A' for Active; 'I' for Inactive)
REMARK    1  A    between atoms: C_1  and  C_2
REMARK    2  A    between atoms: C_4  and  O_37
REMARK    3  A    between atoms: C_6  and  O_36
REMARK    4  A    between atoms: C_8  and  O_35
REMARK    5  A    between atoms: C_10  and  O_13
REMARK    6  A    between atoms: O_13  and  C_14
REMARK    7  A    between atoms: C_15  and  C_27
REMARK    8  A    between atoms: C_19  and  O_26
REMARK    9  A    between atoms: C_21  and  O_25
REMARK   10  A    between atoms: C_29  and  O_34
REMARK   11  A    between atoms: C_30  and  O_33
REMARK   12  A    between atoms: O_37  and  C_38
REMARK   13  A    between atoms: C_40  and  O_53
REMARK   14  A    between atoms: C_42  and  O_52
REMARK   15  A    between atoms: C_44  and  O_51
REMARK   16  A    between atoms: C_46  and  C_49
REMARK   17  A    between atoms: C_49  and  O_50
REMARK                            x       y       z     vdW  Elec       q    Type
REMARK                         _______ _______ _______ _____ _____    ______ ____
ROOT
ATOM      1  C   UNL     1       7.247   1.162  28.512  0.00  0.00    +0.041 C 
ATOM      2  C   UNL     1       6.846   0.046  27.544  0.00  0.00    +0.151 C 
ATOM      3  O   UNL     1       7.133   0.367  26.170  0.00  0.00    -0.334 OA
ATOM      4  C   UNL     1       6.245   1.354  25.616  0.00  0.00    +0.339 C 
ATOM      5  C   UNL     1       4.777   0.871  25.670  0.00  0.00    +0.214 C 
ATOM      6  C   UNL     1       4.396   0.587  27.124  0.00  0.00    +0.180 C 
ATOM      7  C   UNL     1       5.383  -0.425  27.719  0.00  0.00    +0.181 C 
ENDROOT
BRANCH   5   8
ATOM      8  O   UNL     1       3.807   1.763  25.109  0.00  0.00    -0.383 OA
ATOM      9  H   UNL     1       4.257   2.602  24.870  0.00  0.00    +0.210 HD
ENDBRANCH   5   8
BRANCH   6  10
ATOM     10  O   UNL     1       4.372   1.759  27.946  0.00  0.00    -0.386 OA
ATOM     11  H   UNL     1       4.986   1.649  28.696  0.00  0.00    +0.210 HD
ENDBRANCH   6  10
BRANCH   7  12
ATOM     12  O   UNL     1       5.106  -1.671  27.049  0.00  0.00    -0.340 OA
BRANCH  12  13
ATOM     13  C   UNL     1       5.947  -2.777  27.365  0.00  0.00    +0.282 C 
ATOM     14  O   UNL     1       6.544  -3.281  26.162  0.00  0.00    -0.341 OA
ATOM     15  C   UNL     1       5.669  -3.940  25.231  0.00  0.00    +0.178 C 
ATOM     16  C   UNL     1       4.801  -5.022  25.910  0.00  0.00    +0.177 C 
ATOM     17  C   UNL     1       4.140  -4.512  27.197  0.00  0.00    +0.179 C 
ATOM     18  C   UNL     1       5.201  -3.891  28.122  0.00  0.00    +0.201 C 
BRANCH  18  19
ATOM     19  O   UNL     1       6.124  -4.882  28.592  0.00  0.00    -0.384 OA
ATOM     20  H   UNL     1       6.317  -5.469  27.828  0.00  0.00    +0.210 HD
ENDBRANCH  18  19
BRANCH  17  21
ATOM     21  O   UNL     1       3.064  -3.621  26.896  0.00  0.00    -0.386 OA
ATOM     22  H   UNL     1       3.134  -3.341  25.960  0.00  0.00    +0.210 HD
ENDBRANCH  17  21
BRANCH  16  23
ATOM     23  O   UNL     1       5.665  -6.124  26.259  0.00  0.00    -0.386 OA
ATOM     24  H   UNL     1       6.584  -5.811  26.173  0.00  0.00    +0.210 HD
ENDBRANCH  16  23
BRANCH  15  25
ATOM     25  C   UNL     1       4.899  -2.939  24.352  0.00  0.00    +0.190 C 
BRANCH  25  26
ATOM     26  O   UNL     1       4.798  -3.393  23.006  0.00  0.00    -0.392 OA
ATOM     27  H   UNL     1       4.535  -2.637  22.452  0.00  0.00    +0.210 HD
ENDBRANCH  25  26
ENDBRANCH  15  25
ENDBRANCH  12  13
ENDBRANCH   7  12
BRANCH   4  28
ATOM     28  O   UNL     1       6.582   1.586  24.243  0.00  0.00    -0.453 OA
BRANCH  28  29
ATOM     29  C   UNL     1       7.827   2.146  24.002  0.00  0.00    +0.214 A 
ATOM     30  C   UNL     1       7.996   3.634  23.956  0.00  0.00    +0.238 A 
ATOM     31  O   UNL     1       7.023   4.387  23.976  0.00  0.00    -0.283 OA
ATOM     32  C   UNL     1       9.356   4.162  23.856  0.00  0.00    +0.109 A 
ATOM     33  C   UNL     1      10.372   3.264  23.552  0.00  0.00    +0.147 A 
ATOM     34  C   UNL     1      11.674   3.731  23.351  0.00  0.00    +0.092 A 
ATOM     35  C   UNL     1      11.938   5.095  23.478  0.00  0.00    +0.124 A 
ATOM     36  C   UNL     1      10.936   5.996  23.819  0.00  0.00    +0.091 A 
ATOM     37  O   UNL     1      10.164   1.912  23.428  0.00  0.00    -0.451 OA
ATOM     38  C   UNL     1       9.642   5.528  24.013  0.00  0.00    +0.135 A 
ATOM     39  C   UNL     1       8.909   1.381  23.726  0.00  0.00    +0.181 A 
BRANCH  39  40
ATOM     40  C   UNL     1       8.874  -0.121  23.642  0.00  0.00    +0.025 A 
ATOM     41  C   UNL     1       9.675  -0.894  24.513  0.00  0.00    +0.015 A 
ATOM     42  C   UNL     1       9.666  -2.297  24.474  0.00  0.00    +0.050 A 
ATOM     43  C   UNL     1       8.861  -2.949  23.558  0.00  0.00    +0.158 A 
ATOM     44  C   UNL     1       8.065  -2.219  22.687  0.00  0.00    +0.159 A 
ATOM     45  C   UNL     1       8.052  -0.824  22.736  0.00  0.00    +0.060 A 
BRANCH  44  46
ATOM     46  O   UNL     1       7.303  -2.915  21.787  0.00  0.00    -0.503 OA
ATOM     47  H   UNL     1       6.473  -3.173  22.229  0.00  0.00    +0.292 HD
ENDBRANCH  44  46
BRANCH  43  48
ATOM     48  O   UNL     1       8.851  -4.312  23.514  0.00  0.00    -0.503 OA
ATOM     49  H   UNL     1       7.906  -4.554  23.597  0.00  0.00    +0.292 HD
ENDBRANCH  43  48
ENDBRANCH  39  40
BRANCH  38  50
ATOM     50  O   UNL     1       8.667   6.410  24.386  0.00  0.00    -0.506 OA
ATOM     51  H   UNL     1       8.185   6.730  23.604  0.00  0.00    +0.292 HD
ENDBRANCH  38  50
BRANCH  35  52
ATOM     52  O   UNL     1      13.186   5.607  23.281  0.00  0.00    -0.507 OA
ATOM     53  H   UNL     1      13.745   5.393  24.047  0.00  0.00    +0.292 HD
ENDBRANCH  35  52
ENDBRANCH  28  29
ENDBRANCH   4  28
TORSDOF 16
ENDMDL
