MODEL 1
REMARK VINA RESULT:      -7.2      0.000      0.000
REMARK  Name = 
REMARK  14 active torsions:
REMARK  status: ('A' for Active; 'I' for Inactive)
REMARK    1  A    between atoms: C_1  and  C_2
REMARK    2  A    between atoms: C_2  and  O_4
REMARK    3  A    between atoms: O_4  and  C_5
REMARK    4  A    between atoms: C_6  and  O_39
REMARK    5  A    between atoms: C_8  and  O_38
REMARK    6  A    between atoms: C_10  and  C_36
REMARK    7  A    between atoms: C_12  and  O_14
REMARK    8  A    between atoms: O_14  and  C_15
REMARK    9  A    between atoms: C_16  and  C_28
REMARK   10  A    between atoms: C_20  and  O_27
REMARK   11  A    between atoms: C_22  and  O_26
REMARK   12  A    between atoms: C_30  and  O_35
REMARK   13  A    between atoms: C_31  and  O_34
REMARK   14  A    between atoms: C_36  and  O_37
REMARK                            x       y       z     vdW  Elec       q    Type
REMARK                         _______ _______ _______ _____ _____    ______ ____
ROOT
ATOM      1  C   UNL     1       7.559  -0.380  25.075  0.00  0.00    +0.214 A 
ATOM      2  C   UNL     1       8.200   0.704  24.237  0.00  0.00    +0.238 A 
ATOM      3  O   UNL     1       9.403   0.891  24.147  0.00  0.00    -0.283 OA
ATOM      4  C   UNL     1       7.413   1.700  23.580  0.00  0.00    +0.109 A 
ATOM      5  C   UNL     1       6.051   1.648  23.785  0.00  0.00    +0.147 A 
ATOM      6  C   UNL     1       5.287   2.727  23.347  0.00  0.00    +0.092 A 
ATOM      7  C   UNL     1       5.917   3.820  22.723  0.00  0.00    +0.124 A 
ATOM      8  C   UNL     1       7.285   3.837  22.481  0.00  0.00    +0.091 A 
ATOM      9  O   UNL     1       5.438   0.586  24.407  0.00  0.00    -0.451 OA
ATOM     10  C   UNL     1       8.031   2.769  22.880  0.00  0.00    +0.135 A 
ATOM     11  C   UNL     1       6.195  -0.413  25.076  0.00  0.00    +0.181 A 
ENDROOT
BRANCH  11  12
ATOM     12  C   UNL     1       5.275  -1.392  25.815  0.00  0.00    +0.025 A 
ATOM     13  C   UNL     1       4.651  -2.518  25.244  0.00  0.00    +0.015 A 
ATOM     14  C   UNL     1       3.941  -3.468  26.030  0.00  0.00    +0.050 A 
ATOM     15  C   UNL     1       3.831  -3.290  27.397  0.00  0.00    +0.158 A 
ATOM     16  C   UNL     1       4.338  -2.142  27.974  0.00  0.00    +0.159 A 
ATOM     17  C   UNL     1       5.035  -1.196  27.204  0.00  0.00    +0.060 A 
BRANCH  15  18
ATOM     18  O   UNL     1       3.233  -4.248  28.172  0.00  0.00    -0.503 OA
ATOM     19  H   UNL     1       3.119  -5.019  27.581  0.00  0.00    +0.292 HD
ENDBRANCH  15  18
BRANCH  16  20
ATOM     20  O   UNL     1       4.148  -1.979  29.325  0.00  0.00    -0.503 OA
ATOM     21  H   UNL     1       5.019  -1.916  29.753  0.00  0.00    +0.292 HD
ENDBRANCH  16  20
ENDBRANCH  11  12
BRANCH   7  22
ATOM     22  O   UNL     1       5.247   4.927  22.322  0.00  0.00    -0.507 OA
ATOM     23  H   UNL     1       5.714   5.720  22.651  0.00  0.00    +0.292 HD
ENDBRANCH   7  22
BRANCH  10  24
ATOM     24  O   UNL     1       9.381   2.775  22.617  0.00  0.00    -0.506 OA
ATOM     25  H   UNL     1       9.888   2.509  23.402  0.00  0.00    +0.292 HD
ENDBRANCH  10  24
BRANCH   1  26
ATOM     26  O   UNL     1       8.390  -1.239  25.829  0.00  0.00    -0.452 OA
BRANCH  26  28
ATOM     27  C   UNL     1       8.358  -3.123  24.141  0.00  0.00    +0.275 C 
ATOM     28  C   UNL     1       8.110  -2.635  25.564  0.00  0.00    +0.352 C 
ATOM     29  O   UNL     1       8.750  -3.418  26.576  0.00  0.00    -0.330 OA
ATOM     30  C   UNL     1       8.438  -4.821  26.638  0.00  0.00    +0.179 C 
ATOM     31  C   UNL     1       8.618  -5.431  25.239  0.00  0.00    +0.178 C 
ATOM     32  C   UNL     1       7.916  -4.615  24.127  0.00  0.00    +0.192 C 
BRANCH  31  33
ATOM     33  O   UNL     1      10.044  -5.391  24.979  0.00  0.00    -0.386 OA
ATOM     34  H   UNL     1      10.285  -4.444  24.934  0.00  0.00    +0.210 HD
ENDBRANCH  31  33
BRANCH  32  35
ATOM     35  O   UNL     1       8.125  -5.227  22.849  0.00  0.00    -0.385 OA
ATOM     36  H   UNL     1       8.468  -4.554  22.228  0.00  0.00    +0.210 HD
ENDBRANCH  32  35
BRANCH  27  37
ATOM     37  O   UNL     1       9.727  -2.916  23.789  0.00  0.00    -0.452 OA
BRANCH  37  39
ATOM     38  C   UNL     1       8.591  -1.952  22.001  0.00  0.00    +0.136 C 
ATOM     39  C   UNL     1       9.900  -2.116  22.702  0.00  0.00    +0.304 C 
ATOM     40  O   UNL     1      10.972  -1.667  22.314  0.00  0.00    -0.251 OA
ENDBRANCH  37  39
ENDBRANCH  27  37
BRANCH  30  41
ATOM     41  C   UNL     1       7.166  -5.144  27.462  0.00  0.00    +0.190 C 
BRANCH  41  42
ATOM     42  O   UNL     1       7.299  -6.346  28.220  0.00  0.00    -0.392 OA
ATOM     43  H   UNL     1       7.144  -7.086  27.590  0.00  0.00    +0.210 HD
ENDBRANCH  41  42
ENDBRANCH  30  41
ENDBRANCH  26  28
ENDBRANCH   1  26
TORSDOF 13
ENDMDL
MODEL 2
REMARK VINA RESULT:      -7.2      2.323      6.149
REMARK  Name = 
REMARK  14 active torsions:
REMARK  status: ('A' for Active; 'I' for Inactive)
REMARK    1  A    between atoms: C_1  and  C_2
REMARK    2  A    between atoms: C_2  and  O_4
REMARK    3  A    between atoms: O_4  and  C_5
REMARK    4  A    between atoms: C_6  and  O_39
REMARK    5  A    between atoms: C_8  and  O_38
REMARK    6  A    between atoms: C_10  and  C_36
REMARK    7  A    between atoms: C_12  and  O_14
REMARK    8  A    between atoms: O_14  and  C_15
REMARK    9  A    between atoms: C_16  and  C_28
REMARK   10  A    between atoms: C_20  and  O_27
REMARK   11  A    between atoms: C_22  and  O_26
REMARK   12  A    between atoms: C_30  and  O_35
REMARK   13  A    between atoms: C_31  and  O_34
REMARK   14  A    between atoms: C_36  and  O_37
REMARK                            x       y       z     vdW  Elec       q    Type
REMARK                         _______ _______ _______ _____ _____    ______ ____
ROOT
ATOM      1  C   UNL     1       6.167  -1.661  23.978  0.00  0.00    +0.214 A 
ATOM      2  C   UNL     1       6.267  -2.839  23.033  0.00  0.00    +0.238 A 
ATOM      3  O   UNL     1       6.554  -2.755  21.849  0.00  0.00    -0.283 OA
ATOM      4  C   UNL     1       5.888  -4.155  23.441  0.00  0.00    +0.109 A 
ATOM      5  C   UNL     1       5.388  -4.287  24.719  0.00  0.00    +0.147 A 
ATOM      6  C   UNL     1       4.806  -5.504  25.065  0.00  0.00    +0.092 A 
ATOM      7  C   UNL     1       4.742  -6.542  24.116  0.00  0.00    +0.124 A 
ATOM      8  C   UNL     1       5.293  -6.410  22.847  0.00  0.00    +0.091 A 
ATOM      9  O   UNL     1       5.438  -3.269  25.641  0.00  0.00    -0.451 OA
ATOM     10  C   UNL     1       5.892  -5.231  22.516  0.00  0.00    +0.135 A 
ATOM     11  C   UNL     1       5.801  -1.948  25.261  0.00  0.00    +0.181 A 
ENDROOT
BRANCH  11  12
ATOM     12  C   UNL     1       5.627  -0.975  26.433  0.00  0.00    +0.025 A 
ATOM     13  C   UNL     1       4.405  -0.651  27.053  0.00  0.00    +0.015 A 
ATOM     14  C   UNL     1       4.343   0.138  28.235  0.00  0.00    +0.050 A 
ATOM     15  C   UNL     1       5.507   0.628  28.800  0.00  0.00    +0.158 A 
ATOM     16  C   UNL     1       6.712   0.421  28.158  0.00  0.00    +0.159 A 
ATOM     17  C   UNL     1       6.780  -0.351  26.986  0.00  0.00    +0.060 A 
BRANCH  15  18
ATOM     18  O   UNL     1       5.464   1.306  29.989  0.00  0.00    -0.503 OA
ATOM     19  H   UNL     1       6.326   1.126  30.416  0.00  0.00    +0.292 HD
ENDBRANCH  15  18
BRANCH  16  20
ATOM     20  O   UNL     1       7.832   0.983  28.722  0.00  0.00    -0.503 OA
ATOM     21  H   UNL     1       8.530   1.020  28.047  0.00  0.00    +0.292 HD
ENDBRANCH  16  20
ENDBRANCH  11  12
BRANCH   7  22
ATOM     22  O   UNL     1       4.143  -7.731  24.362  0.00  0.00    -0.507 OA
ATOM     23  H   UNL     1       4.310  -8.334  23.612  0.00  0.00    +0.292 HD
ENDBRANCH   7  22
BRANCH  10  24
ATOM     24  O   UNL     1       6.460  -5.110  21.269  0.00  0.00    -0.506 OA
ATOM     25  H   UNL     1       5.784  -4.922  20.598  0.00  0.00    +0.292 HD
ENDBRANCH  10  24
BRANCH   1  26
ATOM     26  O   UNL     1       6.401  -0.362  23.475  0.00  0.00    -0.452 OA
BRANCH  26  28
ATOM     27  C   UNL     1       8.141   1.181  22.476  0.00  0.00    +0.275 C 
ATOM     28  C   UNL     1       7.779  -0.177  23.070  0.00  0.00    +0.352 C 
ATOM     29  O   UNL     1       8.621  -0.590  24.151  0.00  0.00    -0.330 OA
ATOM     30  C   UNL     1      10.034  -0.694  23.900  0.00  0.00    +0.179 C 
ATOM     31  C   UNL     1      10.521   0.617  23.261  0.00  0.00    +0.178 C 
ATOM     32  C   UNL     1       9.640   1.076  22.075  0.00  0.00    +0.192 C 
BRANCH  31  33
ATOM     33  O   UNL     1      10.413   1.620  24.303  0.00  0.00    -0.386 OA
ATOM     34  H   UNL     1      11.239   2.143  24.261  0.00  0.00    +0.210 HD
ENDBRANCH  31  33
BRANCH  32  35
ATOM     35  O   UNL     1      10.138   2.303  21.527  0.00  0.00    -0.385 OA
ATOM     36  H   UNL     1      10.453   2.870  22.258  0.00  0.00    +0.210 HD
ENDBRANCH  32  35
BRANCH  27  37
ATOM     37  O   UNL     1       7.859   2.214  23.423  0.00  0.00    -0.452 OA
BRANCH  37  39
ATOM     38  C   UNL     1       5.824   3.068  22.687  0.00  0.00    +0.136 C 
ATOM     39  C   UNL     1       7.284   3.319  22.876  0.00  0.00    +0.304 C 
ATOM     40  O   UNL     1       7.881   4.328  22.522  0.00  0.00    -0.251 OA
ENDBRANCH  37  39
ENDBRANCH  27  37
BRANCH  30  41
ATOM     41  C   UNL     1      10.465  -2.053  23.295  0.00  0.00    +0.190 C 
BRANCH  41  42
ATOM     42  O   UNL     1       9.820  -3.160  23.926  0.00  0.00    -0.392 OA
ATOM     43  H   UNL     1       9.996  -3.941  23.355  0.00  0.00    +0.210 HD
ENDBRANCH  41  42
ENDBRANCH  30  41
ENDBRANCH  26  28
ENDBRANCH   1  26
TORSDOF 13
ENDMDL
MODEL 3
REMARK VINA RESULT:      -7.0      2.369      3.613
REMARK  Name = 
REMARK  14 active torsions:
REMARK  status: ('A' for Active; 'I' for Inactive)
REMARK    1  A    between atoms: C_1  and  C_2
REMARK    2  A    between atoms: C_2  and  O_4
REMARK    3  A    between atoms: O_4  and  C_5
REMARK    4  A    between atoms: C_6  and  O_39
REMARK    5  A    between atoms: C_8  and  O_38
REMARK    6  A    between atoms: C_10  and  C_36
REMARK    7  A    between atoms: C_12  and  O_14
REMARK    8  A    between atoms: O_14  and  C_15
REMARK    9  A    between atoms: C_16  and  C_28
REMARK   10  A    between atoms: C_20  and  O_27
REMARK   11  A    between atoms: C_22  and  O_26
REMARK   12  A    between atoms: C_30  and  O_35
REMARK   13  A    between atoms: C_31  and  O_34
REMARK   14  A    between atoms: C_36  and  O_37
REMARK                            x       y       z     vdW  Elec       q    Type
REMARK                         _______ _______ _______ _____ _____    ______ ____
ROOT
ATOM      1  C   UNL     1       7.093  -2.545  24.796  0.00  0.00    +0.214 A 
ATOM      2  C   UNL     1       8.025  -2.308  23.627  0.00  0.00    +0.238 A 
ATOM      3  O   UNL     1       8.829  -3.124  23.205  0.00  0.00    -0.283 OA
ATOM      4  C   UNL     1       8.126  -1.025  23.004  0.00  0.00    +0.109 A 
ATOM      5  C   UNL     1       7.369  -0.010  23.549  0.00  0.00    +0.147 A 
ATOM      6  C   UNL     1       7.615   1.289  23.111  0.00  0.00    +0.092 A 
ATOM      7  C   UNL     1       8.613   1.523  22.147  0.00  0.00    +0.124 A 
ATOM      8  C   UNL     1       9.336   0.485  21.573  0.00  0.00    +0.091 A 
ATOM      9  O   UNL     1       6.404  -0.239  24.501  0.00  0.00    -0.451 OA
ATOM     10  C   UNL     1       9.076  -0.791  21.976  0.00  0.00    +0.135 A 
ATOM     11  C   UNL     1       6.287  -1.501  25.143  0.00  0.00    +0.181 A 
ENDROOT
BRANCH  11  12
ATOM     12  C   UNL     1       5.244  -1.447  26.267  0.00  0.00    +0.025 A 
ATOM     13  C   UNL     1       5.502  -1.098  27.606  0.00  0.00    +0.015 A 
ATOM     14  C   UNL     1       4.458  -0.918  28.555  0.00  0.00    +0.050 A 
ATOM     15  C   UNL     1       3.140  -1.104  28.176  0.00  0.00    +0.158 A 
ATOM     16  C   UNL     1       2.859  -1.551  26.900  0.00  0.00    +0.159 A 
ATOM     17  C   UNL     1       3.886  -1.739  25.959  0.00  0.00    +0.060 A 
BRANCH  15  18
ATOM     18  O   UNL     1       2.125  -0.839  29.056  0.00  0.00    -0.503 OA
ATOM     19  H   UNL     1       1.573  -1.646  29.058  0.00  0.00    +0.292 HD
ENDBRANCH  15  18
BRANCH  16  20
ATOM     20  O   UNL     1       1.540  -1.784  26.590  0.00  0.00    -0.503 OA
ATOM     21  H   UNL     1       1.354  -2.728  26.731  0.00  0.00    +0.292 HD
ENDBRANCH  16  20
ENDBRANCH  11  12
BRANCH   7  22
ATOM     22  O   UNL     1       8.945   2.763  21.716  0.00  0.00    -0.507 OA
ATOM     23  H   UNL     1       9.783   3.035  22.138  0.00  0.00    +0.292 HD
ENDBRANCH   7  22
BRANCH  10  24
ATOM     24  O   UNL     1       9.773  -1.821  21.388  0.00  0.00    -0.506 OA
ATOM     25  H   UNL     1       9.599  -2.660  21.844  0.00  0.00    +0.292 HD
ENDBRANCH  10  24
BRANCH   1  26
ATOM     26  O   UNL     1       7.150  -3.784  25.473  0.00  0.00    -0.452 OA
BRANCH  26  28
ATOM     27  C   UNL     1       5.236  -4.520  23.992  0.00  0.00    +0.275 C 
ATOM     28  C   UNL     1       5.909  -4.521  25.361  0.00  0.00    +0.352 C 
ATOM     29  O   UNL     1       6.112  -5.823  25.917  0.00  0.00    -0.330 OA
ATOM     30  C   UNL     1       4.958  -6.661  26.106  0.00  0.00    +0.179 C 
ATOM     31  C   UNL     1       4.165  -6.715  24.790  0.00  0.00    +0.178 C 
ATOM     32  C   UNL     1       3.912  -5.317  24.177  0.00  0.00    +0.192 C 
BRANCH  31  33
ATOM     33  O   UNL     1       4.999  -7.456  23.864  0.00  0.00    -0.386 OA
ATOM     34  H   UNL     1       4.400  -7.785  23.164  0.00  0.00    +0.210 HD
ENDBRANCH  31  33
BRANCH  32  35
ATOM     35  O   UNL     1       3.177  -5.432  22.953  0.00  0.00    -0.385 OA
ATOM     36  H   UNL     1       3.236  -6.355  22.635  0.00  0.00    +0.210 HD
ENDBRANCH  32  35
BRANCH  27  37
ATOM     37  O   UNL     1       6.120  -5.075  23.016  0.00  0.00    -0.452 OA
BRANCH  37  39
ATOM     38  C   UNL     1       6.300  -5.711  20.785  0.00  0.00    +0.136 C 
ATOM     39  C   UNL     1       5.875  -4.650  21.747  0.00  0.00    +0.304 C 
ATOM     40  O   UNL     1       5.448  -3.544  21.439  0.00  0.00    -0.251 OA
ENDBRANCH  37  39
ENDBRANCH  27  37
BRANCH  30  41
ATOM     41  C   UNL     1       4.216  -6.413  27.443  0.00  0.00    +0.190 C 
BRANCH  41  42
ATOM     42  O   UNL     1       4.562  -7.372  28.443  0.00  0.00    -0.392 OA
ATOM     43  H   UNL     1       4.597  -6.880  29.294  0.00  0.00    +0.210 HD
ENDBRANCH  41  42
ENDBRANCH  30  41
ENDBRANCH  26  28
ENDBRANCH   1  26
TORSDOF 13
ENDMDL
MODEL 4
REMARK VINA RESULT:      -6.9      2.641      4.489
REMARK  Name = 
REMARK  14 active torsions:
REMARK  status: ('A' for Active; 'I' for Inactive)
REMARK    1  A    between atoms: C_1  and  C_2
REMARK    2  A    between atoms: C_2  and  O_4
REMARK    3  A    between atoms: O_4  and  C_5
REMARK    4  A    between atoms: C_6  and  O_39
REMARK    5  A    between atoms: C_8  and  O_38
REMARK    6  A    between atoms: C_10  and  C_36
REMARK    7  A    between atoms: C_12  and  O_14
REMARK    8  A    between atoms: O_14  and  C_15
REMARK    9  A    between atoms: C_16  and  C_28
REMARK   10  A    between atoms: C_20  and  O_27
REMARK   11  A    between atoms: C_22  and  O_26
REMARK   12  A    between atoms: C_30  and  O_35
REMARK   13  A    between atoms: C_31  and  O_34
REMARK   14  A    between atoms: C_36  and  O_37
REMARK                            x       y       z     vdW  Elec       q    Type
REMARK                         _______ _______ _______ _____ _____    ______ ____
ROOT
ATOM      1  C   UNL     1       6.938  -3.854  25.552  0.00  0.00    +0.214 A 
ATOM      2  C   UNL     1       8.095  -3.469  24.656  0.00  0.00    +0.238 A 
ATOM      3  O   UNL     1       8.789  -4.262  24.040  0.00  0.00    -0.283 OA
ATOM      4  C   UNL     1       8.555  -2.118  24.575  0.00  0.00    +0.109 A 
ATOM      5  C   UNL     1       7.923  -1.198  25.383  0.00  0.00    +0.147 A 
ATOM      6  C   UNL     1       8.491   0.069  25.493  0.00  0.00    +0.092 A 
ATOM      7  C   UNL     1       9.675   0.366  24.791  0.00  0.00    +0.124 A 
ATOM      8  C   UNL     1      10.275  -0.557  23.943  0.00  0.00    +0.091 A 
ATOM      9  O   UNL     1       6.774  -1.493  26.079  0.00  0.00    -0.451 OA
ATOM     10  C   UNL     1       9.704  -1.787  23.809  0.00  0.00    +0.135 A 
ATOM     11  C   UNL     1       6.300  -2.828  26.185  0.00  0.00    +0.181 A 
ENDROOT
BRANCH  11  12
ATOM     12  C   UNL     1       5.100  -2.908  27.137  0.00  0.00    +0.025 A 
ATOM     13  C   UNL     1       3.846  -2.304  26.926  0.00  0.00    +0.015 A 
ATOM     14  C   UNL     1       2.734  -2.553  27.777  0.00  0.00    +0.050 A 
ATOM     15  C   UNL     1       2.871  -3.399  28.863  0.00  0.00    +0.158 A 
ATOM     16  C   UNL     1       4.113  -3.922  29.162  0.00  0.00    +0.159 A 
ATOM     17  C   UNL     1       5.218  -3.674  28.330  0.00  0.00    +0.060 A 
BRANCH  15  18
ATOM     18  O   UNL     1       1.782  -3.720  29.629  0.00  0.00    -0.503 OA
ATOM     19  H   UNL     1       2.139  -3.873  30.527  0.00  0.00    +0.292 HD
ENDBRANCH  15  18
BRANCH  16  20
ATOM     20  O   UNL     1       4.214  -4.703  30.288  0.00  0.00    -0.503 OA
ATOM     21  H   UNL     1       4.869  -5.402  30.120  0.00  0.00    +0.292 HD
ENDBRANCH  16  20
ENDBRANCH  11  12
BRANCH   7  22
ATOM     22  O   UNL     1      10.313   1.555  24.892  0.00  0.00    -0.507 OA
ATOM     23  H   UNL     1       9.656   2.256  25.071  0.00  0.00    +0.292 HD
ENDBRANCH   7  22
BRANCH  10  24
ATOM     24  O   UNL     1      10.283  -2.691  22.949  0.00  0.00    -0.506 OA
ATOM     25  H   UNL     1      10.976  -3.201  23.399  0.00  0.00    +0.292 HD
ENDBRANCH  10  24
BRANCH   1  26
ATOM     26  O   UNL     1       6.629  -5.223  25.715  0.00  0.00    -0.452 OA
BRANCH  26  28
ATOM     27  C   UNL     1       4.689  -5.198  24.092  0.00  0.00    +0.275 C 
ATOM     28  C   UNL     1       5.225  -5.494  25.489  0.00  0.00    +0.352 C 
ATOM     29  O   UNL     1       4.944  -6.815  25.960  0.00  0.00    -0.330 OA
ATOM     30  C   UNL     1       3.567  -7.224  26.031  0.00  0.00    +0.179 C 
ATOM     31  C   UNL     1       2.897  -6.943  24.677  0.00  0.00    +0.178 C 
ATOM     32  C   UNL     1       3.167  -5.512  24.153  0.00  0.00    +0.192 C 
BRANCH  31  33
ATOM     33  O   UNL     1       3.501  -7.873  23.744  0.00  0.00    -0.386 OA
ATOM     34  H   UNL     1       4.392  -8.070  24.097  0.00  0.00    +0.210 HD
ENDBRANCH  31  33
BRANCH  32  35
ATOM     35  O   UNL     1       2.524  -5.312  22.888  0.00  0.00    -0.385 OA
ATOM     36  H   UNL     1       1.942  -6.076  22.706  0.00  0.00    +0.210 HD
ENDBRANCH  32  35
BRANCH  27  37
ATOM     37  O   UNL     1       5.406  -5.968  23.125  0.00  0.00    -0.452 OA
BRANCH  37  39
ATOM     38  C   UNL     1       7.057  -5.876  21.487  0.00  0.00    +0.136 C 
ATOM     39  C   UNL     1       5.823  -5.248  22.048  0.00  0.00    +0.304 C 
ATOM     40  O   UNL     1       5.314  -4.208  21.650  0.00  0.00    -0.251 OA
ENDBRANCH  37  39
ENDBRANCH  27  37
BRANCH  30  41
ATOM     41  C   UNL     1       2.856  -6.809  27.344  0.00  0.00    +0.190 C 
BRANCH  41  42
ATOM     42  O   UNL     1       3.547  -7.267  28.506  0.00  0.00    -0.392 OA
ATOM     43  H   UNL     1       4.506  -7.215  28.292  0.00  0.00    +0.210 HD
ENDBRANCH  41  42
ENDBRANCH  30  41
ENDBRANCH  26  28
ENDBRANCH   1  26
TORSDOF 13
ENDMDL
MODEL 5
REMARK VINA RESULT:      -6.9      2.026      4.128
REMARK  Name = 
REMARK  14 active torsions:
REMARK  status: ('A' for Active; 'I' for Inactive)
REMARK    1  A    between atoms: C_1  and  C_2
REMARK    2  A    between atoms: C_2  and  O_4
REMARK    3  A    between atoms: O_4  and  C_5
REMARK    4  A    between atoms: C_6  and  O_39
REMARK    5  A    between atoms: C_8  and  O_38
REMARK    6  A    between atoms: C_10  and  C_36
REMARK    7  A    between atoms: C_12  and  O_14
REMARK    8  A    between atoms: O_14  and  C_15
REMARK    9  A    between atoms: C_16  and  C_28
REMARK   10  A    between atoms: C_20  and  O_27
REMARK   11  A    between atoms: C_22  and  O_26
REMARK   12  A    between atoms: C_30  and  O_35
REMARK   13  A    between atoms: C_31  and  O_34
REMARK   14  A    between atoms: C_36  and  O_37
REMARK                            x       y       z     vdW  Elec       q    Type
REMARK                         _______ _______ _______ _____ _____    ______ ____
ROOT
ATOM      1  C   UNL     1       6.284  -0.843  24.207  0.00  0.00    +0.214 A 
ATOM      2  C   UNL     1       7.339  -0.769  23.125  0.00  0.00    +0.238 A 
ATOM      3  O   UNL     1       7.647  -1.697  22.394  0.00  0.00    -0.283 OA
ATOM      4  C   UNL     1       8.167   0.385  22.971  0.00  0.00    +0.109 A 
ATOM      5  C   UNL     1       7.986   1.404  23.881  0.00  0.00    +0.147 A 
ATOM      6  C   UNL     1       8.922   2.435  23.895  0.00  0.00    +0.092 A 
ATOM      7  C   UNL     1      10.007   2.405  22.999  0.00  0.00    +0.124 A 
ATOM      8  C   UNL     1      10.150   1.396  22.055  0.00  0.00    +0.091 A 
ATOM      9  O   UNL     1       6.934   1.426  24.765  0.00  0.00    -0.451 OA
ATOM     10  C   UNL     1       9.219   0.402  22.018  0.00  0.00    +0.135 A 
ATOM     11  C   UNL     1       6.100   0.289  24.947  0.00  0.00    +0.181 A 
ENDROOT
BRANCH  11  12
ATOM     12  C   UNL     1       5.108   0.517  26.093  0.00  0.00    +0.025 A 
ATOM     13  C   UNL     1       4.033   1.427  26.077  0.00  0.00    +0.015 A 
ATOM     14  C   UNL     1       3.062   1.468  27.115  0.00  0.00    +0.050 A 
ATOM     15  C   UNL     1       3.167   0.608  28.194  0.00  0.00    +0.158 A 
ATOM     16  C   UNL     1       4.266  -0.222  28.295  0.00  0.00    +0.159 A 
ATOM     17  C   UNL     1       5.234  -0.263  27.277  0.00  0.00    +0.060 A 
BRANCH  15  18
ATOM     18  O   UNL     1       2.185   0.575  29.148  0.00  0.00    -0.503 OA
ATOM     19  H   UNL     1       2.480  -0.097  29.794  0.00  0.00    +0.292 HD
ENDBRANCH  15  18
BRANCH  16  20
ATOM     20  O   UNL     1       4.359  -1.010  29.417  0.00  0.00    -0.503 OA
ATOM     21  H   UNL     1       4.186  -0.456  30.197  0.00  0.00    +0.292 HD
ENDBRANCH  16  20
ENDBRANCH  11  12
BRANCH   7  22
ATOM     22  O   UNL     1      10.985   3.342  22.993  0.00  0.00    -0.507 OA
ATOM     23  H   UNL     1      11.738   3.022  23.527  0.00  0.00    +0.292 HD
ENDBRANCH   7  22
BRANCH  10  24
ATOM     24  O   UNL     1       9.347  -0.583  21.066  0.00  0.00    -0.506 OA
ATOM     25  H   UNL     1       8.659  -0.499  20.387  0.00  0.00    +0.292 HD
ENDBRANCH  10  24
BRANCH   1  26
ATOM     26  O   UNL     1       5.605  -2.064  24.416  0.00  0.00    -0.452 OA
BRANCH  26  28
ATOM     27  C   UNL     1       5.740  -3.409  26.555  0.00  0.00    +0.275 C 
ATOM     28  C   UNL     1       6.373  -2.978  25.236  0.00  0.00    +0.352 C 
ATOM     29  O   UNL     1       6.808  -4.062  24.410  0.00  0.00    -0.330 OA
ATOM     30  C   UNL     1       7.764  -4.985  24.960  0.00  0.00    +0.179 C 
ATOM     31  C   UNL     1       7.252  -5.473  26.324  0.00  0.00    +0.178 C 
ATOM     32  C   UNL     1       6.795  -4.319  27.248  0.00  0.00    +0.192 C 
BRANCH  31  33
ATOM     33  O   UNL     1       6.089  -6.289  26.034  0.00  0.00    -0.386 OA
ATOM     34  H   UNL     1       5.697  -6.520  26.900  0.00  0.00    +0.210 HD
ENDBRANCH  31  33
BRANCH  32  35
ATOM     35  O   UNL     1       6.323  -4.835  28.498  0.00  0.00    -0.385 OA
ATOM     36  H   UNL     1       5.649  -5.521  28.323  0.00  0.00    +0.210 HD
ENDBRANCH  32  35
BRANCH  27  37
ATOM     37  O   UNL     1       4.488  -4.051  26.305  0.00  0.00    -0.452 OA
BRANCH  37  39
ATOM     38  C   UNL     1       2.488  -2.865  26.227  0.00  0.00    +0.136 C 
ATOM     39  C   UNL     1       3.470  -3.595  27.084  0.00  0.00    +0.304 C 
ATOM     40  O   UNL     1       3.408  -3.698  28.302  0.00  0.00    -0.251 OA
ENDBRANCH  37  39
ENDBRANCH  27  37
BRANCH  30  41
ATOM     41  C   UNL     1       9.237  -4.528  24.808  0.00  0.00    +0.190 C 
BRANCH  41  42
ATOM     42  O   UNL     1      10.161  -5.497  25.304  0.00  0.00    -0.392 OA
ATOM     43  H   UNL     1       9.661  -6.341  25.375  0.00  0.00    +0.210 HD
ENDBRANCH  41  42
ENDBRANCH  30  41
ENDBRANCH  26  28
ENDBRANCH   1  26
TORSDOF 13
ENDMDL
MODEL 6
REMARK VINA RESULT:      -6.9      1.850      5.213
REMARK  Name = 
REMARK  14 active torsions:
REMARK  status: ('A' for Active; 'I' for Inactive)
REMARK    1  A    between atoms: C_1  and  C_2
REMARK    2  A    between atoms: C_2  and  O_4
REMARK    3  A    between atoms: O_4  and  C_5
REMARK    4  A    between atoms: C_6  and  O_39
REMARK    5  A    between atoms: C_8  and  O_38
REMARK    6  A    between atoms: C_10  and  C_36
REMARK    7  A    between atoms: C_12  and  O_14
REMARK    8  A    between atoms: O_14  and  C_15
REMARK    9  A    between atoms: C_16  and  C_28
REMARK   10  A    between atoms: C_20  and  O_27
REMARK   11  A    between atoms: C_22  and  O_26
REMARK   12  A    between atoms: C_30  and  O_35
REMARK   13  A    between atoms: C_31  and  O_34
REMARK   14  A    between atoms: C_36  and  O_37
REMARK                            x       y       z     vdW  Elec       q    Type
REMARK                         _______ _______ _______ _____ _____    ______ ____
ROOT
ATOM      1  C   UNL     1       7.497  -0.439  26.337  0.00  0.00    +0.214 A 
ATOM      2  C   UNL     1       6.245  -0.899  27.053  0.00  0.00    +0.238 A 
ATOM      3  O   UNL     1       6.088  -2.012  27.528  0.00  0.00    -0.283 OA
ATOM      4  C   UNL     1       5.075  -0.080  27.104  0.00  0.00    +0.109 A 
ATOM      5  C   UNL     1       5.129   1.123  26.434  0.00  0.00    +0.147 A 
ATOM      6  C   UNL     1       3.942   1.833  26.277  0.00  0.00    +0.092 A 
ATOM      7  C   UNL     1       2.742   1.309  26.794  0.00  0.00    +0.124 A 
ATOM      8  C   UNL     1       2.710   0.119  27.509  0.00  0.00    +0.091 A 
ATOM      9  O   UNL     1       6.299   1.627  25.916  0.00  0.00    -0.451 OA
ATOM     10  C   UNL     1       3.876  -0.563  27.691  0.00  0.00    +0.135 A 
ATOM     11  C   UNL     1       7.475   0.833  25.843  0.00  0.00    +0.181 A 
ENDROOT
BRANCH  11  12
ATOM     12  C   UNL     1       8.587   1.570  25.088  0.00  0.00    +0.025 A 
ATOM     13  C   UNL     1       9.868   1.056  24.810  0.00  0.00    +0.015 A 
ATOM     14  C   UNL     1      10.790   1.737  23.968  0.00  0.00    +0.050 A 
ATOM     15  C   UNL     1      10.445   2.954  23.407  0.00  0.00    +0.158 A 
ATOM     16  C   UNL     1       9.240   3.538  23.745  0.00  0.00    +0.159 A 
ATOM     17  C   UNL     1       8.328   2.875  24.582  0.00  0.00    +0.060 A 
BRANCH  15  18
ATOM     18  O   UNL     1      11.288   3.569  22.520  0.00  0.00    -0.503 OA
ATOM     19  H   UNL     1      10.914   3.375  21.638  0.00  0.00    +0.292 HD
ENDBRANCH  15  18
BRANCH  16  20
ATOM     20  O   UNL     1       8.971   4.777  23.215  0.00  0.00    -0.503 OA
ATOM     21  H   UNL     1       9.797   5.289  23.196  0.00  0.00    +0.292 HD
ENDBRANCH  16  20
ENDBRANCH  11  12
BRANCH   7  22
ATOM     22  O   UNL     1       1.542   1.916  26.632  0.00  0.00    -0.507 OA
ATOM     23  H   UNL     1       0.991   1.378  26.030  0.00  0.00    +0.292 HD
ENDBRANCH   7  22
BRANCH  10  24
ATOM     24  O   UNL     1       3.849  -1.729  28.422  0.00  0.00    -0.506 OA
ATOM     25  H   UNL     1       4.737  -1.959  28.738  0.00  0.00    +0.292 HD
ENDBRANCH  10  24
BRANCH   1  26
ATOM     26  O   UNL     1       8.566  -1.350  26.180  0.00  0.00    -0.452 OA
BRANCH  26  28
ATOM     27  C   UNL     1       8.183  -2.922  24.235  0.00  0.00    +0.275 C 
ATOM     28  C   UNL     1       8.110  -2.649  25.734  0.00  0.00    +0.352 C 
ATOM     29  O   UNL     1       8.740  -3.646  26.545  0.00  0.00    -0.330 OA
ATOM     30  C   UNL     1       8.278  -5.003  26.424  0.00  0.00    +0.179 C 
ATOM     31  C   UNL     1       8.273  -5.392  24.936  0.00  0.00    +0.178 C 
ATOM     32  C   UNL     1       7.577  -4.341  24.038  0.00  0.00    +0.192 C 
BRANCH  31  33
ATOM     33  O   UNL     1       9.667  -5.450  24.545  0.00  0.00    -0.386 OA
ATOM     34  H   UNL     1       9.798  -6.332  24.141  0.00  0.00    +0.210 HD
ENDBRANCH  31  33
BRANCH  32  35
ATOM     35  O   UNL     1       7.609  -4.755  22.667  0.00  0.00    -0.385 OA
ATOM     36  H   UNL     1       6.905  -4.284  22.178  0.00  0.00    +0.210 HD
ENDBRANCH  32  35
BRANCH  27  37
ATOM     37  O   UNL     1       9.533  -2.795  23.785  0.00  0.00    -0.452 OA
BRANCH  37  39
ATOM     38  C   UNL     1       8.367  -1.300  22.436  0.00  0.00    +0.136 C 
ATOM     39  C   UNL     1       9.694  -1.896  22.776  0.00  0.00    +0.304 C 
ATOM     40  O   UNL     1      10.743  -1.670  22.187  0.00  0.00    -0.251 OA
ENDBRANCH  37  39
ENDBRANCH  27  37
BRANCH  30  41
ATOM     41  C   UNL     1       7.050  -5.330  27.311  0.00  0.00    +0.190 C 
BRANCH  41  42
ATOM     42  O   UNL     1       7.329  -6.347  28.272  0.00  0.00    -0.392 OA
ATOM     43  H   UNL     1       6.457  -6.706  28.552  0.00  0.00    +0.210 HD
ENDBRANCH  41  42
ENDBRANCH  30  41
ENDBRANCH  26  28
ENDBRANCH   1  26
TORSDOF 13
ENDMDL
MODEL 7
REMARK VINA RESULT:      -6.9      2.582      6.571
REMARK  Name = 
REMARK  14 active torsions:
REMARK  status: ('A' for Active; 'I' for Inactive)
REMARK    1  A    between atoms: C_1  and  C_2
REMARK    2  A    between atoms: C_2  and  O_4
REMARK    3  A    between atoms: O_4  and  C_5
REMARK    4  A    between atoms: C_6  and  O_39
REMARK    5  A    between atoms: C_8  and  O_38
REMARK    6  A    between atoms: C_10  and  C_36
REMARK    7  A    between atoms: C_12  and  O_14
REMARK    8  A    between atoms: O_14  and  C_15
REMARK    9  A    between atoms: C_16  and  C_28
REMARK   10  A    between atoms: C_20  and  O_27
REMARK   11  A    between atoms: C_22  and  O_26
REMARK   12  A    between atoms: C_30  and  O_35
REMARK   13  A    between atoms: C_31  and  O_34
REMARK   14  A    between atoms: C_36  and  O_37
REMARK                            x       y       z     vdW  Elec       q    Type
REMARK                         _______ _______ _______ _____ _____    ______ ____
ROOT
ATOM      1  C   UNL     1       8.328  -0.917  25.986  0.00  0.00    +0.214 A 
ATOM      2  C   UNL     1       8.604  -2.306  25.453  0.00  0.00    +0.238 A 
ATOM      3  O   UNL     1       9.511  -2.586  24.685  0.00  0.00    -0.283 OA
ATOM      4  C   UNL     1       7.714  -3.394  25.713  0.00  0.00    +0.109 A 
ATOM      5  C   UNL     1       6.574  -3.103  26.431  0.00  0.00    +0.147 A 
ATOM      6  C   UNL     1       5.587  -4.083  26.505  0.00  0.00    +0.092 A 
ATOM      7  C   UNL     1       5.777  -5.315  25.853  0.00  0.00    +0.124 A 
ATOM      8  C   UNL     1       6.951  -5.611  25.172  0.00  0.00    +0.091 A 
ATOM      9  O   UNL     1       6.384  -1.894  27.057  0.00  0.00    -0.451 OA
ATOM     10  C   UNL     1       7.932  -4.666  25.124  0.00  0.00    +0.135 A 
ATOM     11  C   UNL     1       7.247  -0.793  26.810  0.00  0.00    +0.181 A 
ENDROOT
BRANCH  11  12
ATOM     12  C   UNL     1       6.730   0.474  27.503  0.00  0.00    +0.025 A 
ATOM     13  C   UNL     1       5.476   1.075  27.278  0.00  0.00    +0.015 A 
ATOM     14  C   UNL     1       5.003   2.156  28.073  0.00  0.00    +0.050 A 
ATOM     15  C   UNL     1       5.791   2.661  29.092  0.00  0.00    +0.158 A 
ATOM     16  C   UNL     1       7.069   2.167  29.269  0.00  0.00    +0.159 A 
ATOM     17  C   UNL     1       7.546   1.104  28.483  0.00  0.00    +0.060 A 
BRANCH  15  18
ATOM     18  O   UNL     1       5.305   3.636  29.922  0.00  0.00    -0.503 OA
ATOM     19  H   UNL     1       4.336   3.502  29.931  0.00  0.00    +0.292 HD
ENDBRANCH  15  18
BRANCH  16  20
ATOM     20  O   UNL     1       7.837   2.745  30.251  0.00  0.00    -0.503 OA
ATOM     21  H   UNL     1       8.168   3.597  29.920  0.00  0.00    +0.292 HD
ENDBRANCH  16  20
ENDBRANCH  11  12
BRANCH   7  22
ATOM     22  O   UNL     1       4.839  -6.292  25.835  0.00  0.00    -0.507 OA
ATOM     23  H   UNL     1       4.291  -6.224  26.641  0.00  0.00    +0.292 HD
ENDBRANCH   7  22
BRANCH  10  24
ATOM     24  O   UNL     1       9.105  -4.969  24.471  0.00  0.00    -0.506 OA
ATOM     25  H   UNL     1       9.002  -5.767  23.928  0.00  0.00    +0.292 HD
ENDBRANCH  10  24
BRANCH   1  26
ATOM     26  O   UNL     1       9.153   0.151  25.568  0.00  0.00    -0.452 OA
BRANCH  26  28
ATOM     27  C   UNL     1       8.325   1.950  23.994  0.00  0.00    +0.275 C 
ATOM     28  C   UNL     1       8.880   0.544  24.202  0.00  0.00    +0.352 C 
ATOM     29  O   UNL     1      10.034   0.245  23.411  0.00  0.00    -0.330 OA
ATOM     30  C   UNL     1       9.917   0.356  21.982  0.00  0.00    +0.179 C 
ATOM     31  C   UNL     1       9.329   1.735  21.639  0.00  0.00    +0.178 C 
ATOM     32  C   UNL     1       8.066   2.076  22.465  0.00  0.00    +0.192 C 
BRANCH  31  33
ATOM     33  O   UNL     1      10.357   2.694  21.992  0.00  0.00    -0.386 OA
ATOM     34  H   UNL     1      10.383   2.716  22.971  0.00  0.00    +0.210 HD
ENDBRANCH  31  33
BRANCH  32  35
ATOM     35  O   UNL     1       7.569   3.371  22.108  0.00  0.00    -0.385 OA
ATOM     36  H   UNL     1       7.807   4.006  22.812  0.00  0.00    +0.210 HD
ENDBRANCH  32  35
BRANCH  27  37
ATOM     37  O   UNL     1       9.242   2.915  24.513  0.00  0.00    -0.452 OA
BRANCH  37  39
ATOM     38  C   UNL     1       7.684   3.858  25.962  0.00  0.00    +0.136 C 
ATOM     39  C   UNL     1       8.661   4.096  24.857  0.00  0.00    +0.304 C 
ATOM     40  O   UNL     1       8.850   5.169  24.299  0.00  0.00    -0.251 OA
ENDBRANCH  37  39
ENDBRANCH  27  37
BRANCH  30  41
ATOM     41  C   UNL     1       9.353  -0.914  21.297  0.00  0.00    +0.190 C 
BRANCH  41  42
ATOM     42  O   UNL     1       9.927  -2.114  21.818  0.00  0.00    -0.392 OA
ATOM     43  H   UNL     1      10.282  -1.884  22.706  0.00  0.00    +0.210 HD
ENDBRANCH  41  42
ENDBRANCH  30  41
ENDBRANCH  26  28
ENDBRANCH   1  26
TORSDOF 13
ENDMDL
MODEL 8
REMARK VINA RESULT:      -6.9      2.452      5.233
REMARK  Name = 
REMARK  14 active torsions:
REMARK  status: ('A' for Active; 'I' for Inactive)
REMARK    1  A    between atoms: C_1  and  C_2
REMARK    2  A    between atoms: C_2  and  O_4
REMARK    3  A    between atoms: O_4  and  C_5
REMARK    4  A    between atoms: C_6  and  O_39
REMARK    5  A    between atoms: C_8  and  O_38
REMARK    6  A    between atoms: C_10  and  C_36
REMARK    7  A    between atoms: C_12  and  O_14
REMARK    8  A    between atoms: O_14  and  C_15
REMARK    9  A    between atoms: C_16  and  C_28
REMARK   10  A    between atoms: C_20  and  O_27
REMARK   11  A    between atoms: C_22  and  O_26
REMARK   12  A    between atoms: C_30  and  O_35
REMARK   13  A    between atoms: C_31  and  O_34
REMARK   14  A    between atoms: C_36  and  O_37
REMARK                            x       y       z     vdW  Elec       q    Type
REMARK                         _______ _______ _______ _____ _____    ______ ____
ROOT
ATOM      1  C   UNL     1       7.692  -2.616  25.226  0.00  0.00    +0.214 A 
ATOM      2  C   UNL     1       8.716  -1.515  25.393  0.00  0.00    +0.238 A 
ATOM      3  O   UNL     1       9.171  -1.149  26.465  0.00  0.00    -0.283 OA
ATOM      4  C   UNL     1       9.133  -0.712  24.286  0.00  0.00    +0.109 A 
ATOM      5  C   UNL     1       8.524  -0.962  23.075  0.00  0.00    +0.147 A 
ATOM      6  C   UNL     1       8.742  -0.056  22.040  0.00  0.00    +0.092 A 
ATOM      7  C   UNL     1       9.559   1.069  22.259  0.00  0.00    +0.124 A 
ATOM      8  C   UNL     1      10.205   1.282  23.470  0.00  0.00    +0.091 A 
ATOM      9  O   UNL     1       7.715  -2.054  22.867  0.00  0.00    -0.451 OA
ATOM     10  C   UNL     1      10.018   0.381  24.475  0.00  0.00    +0.135 A 
ATOM     11  C   UNL     1       7.277  -2.863  23.950  0.00  0.00    +0.181 A 
ENDROOT
BRANCH  11  12
ATOM     12  C   UNL     1       6.266  -3.913  23.473  0.00  0.00    +0.025 A 
ATOM     13  C   UNL     1       6.587  -5.146  22.873  0.00  0.00    +0.015 A 
ATOM     14  C   UNL     1       5.601  -6.135  22.602  0.00  0.00    +0.050 A 
ATOM     15  C   UNL     1       4.275  -5.892  22.914  0.00  0.00    +0.158 A 
ATOM     16  C   UNL     1       3.910  -4.653  23.404  0.00  0.00    +0.159 A 
ATOM     17  C   UNL     1       4.878  -3.668  23.666  0.00  0.00    +0.060 A 
BRANCH  15  18
ATOM     18  O   UNL     1       3.336  -6.874  22.746  0.00  0.00    -0.503 OA
ATOM     19  H   UNL     1       2.907  -6.968  23.620  0.00  0.00    +0.292 HD
ENDBRANCH  15  18
BRANCH  16  20
ATOM     20  O   UNL     1       2.573  -4.437  23.636  0.00  0.00    -0.503 OA
ATOM     21  H   UNL     1       2.485  -3.893  24.438  0.00  0.00    +0.292 HD
ENDBRANCH  16  20
ENDBRANCH  11  12
BRANCH   7  22
ATOM     22  O   UNL     1       9.772   2.020  21.318  0.00  0.00    -0.507 OA
ATOM     23  H   UNL     1      10.372   1.663  20.634  0.00  0.00    +0.292 HD
ENDBRANCH   7  22
BRANCH  10  24
ATOM     24  O   UNL     1      10.678   0.579  25.666  0.00  0.00    -0.506 OA
ATOM     25  H   UNL     1      11.613   0.329  25.589  0.00  0.00    +0.292 HD
ENDBRANCH  10  24
BRANCH   1  26
ATOM     26  O   UNL     1       7.199  -3.270  26.378  0.00  0.00    -0.452 OA
BRANCH  26  28
ATOM     27  C   UNL     1       4.895  -3.959  27.161  0.00  0.00    +0.275 C 
ATOM     28  C   UNL     1       5.847  -2.862  26.696  0.00  0.00    +0.352 C 
ATOM     29  O   UNL     1       5.916  -1.732  27.572  0.00  0.00    -0.330 OA
ATOM     30  C   UNL     1       4.696  -1.025  27.854  0.00  0.00    +0.179 C 
ATOM     31  C   UNL     1       3.631  -2.038  28.306  0.00  0.00    +0.178 C 
ATOM     32  C   UNL     1       3.520  -3.261  27.364  0.00  0.00    +0.192 C 
BRANCH  31  33
ATOM     33  O   UNL     1       4.076  -2.519  29.599  0.00  0.00    -0.386 OA
ATOM     34  H   UNL     1       3.503  -3.283  29.816  0.00  0.00    +0.210 HD
ENDBRANCH  31  33
BRANCH  32  35
ATOM     35  O   UNL     1       2.519  -4.169  27.839  0.00  0.00    -0.385 OA
ATOM     36  H   UNL     1       2.595  -4.242  28.811  0.00  0.00    +0.210 HD
ENDBRANCH  32  35
BRANCH  27  37
ATOM     37  O   UNL     1       5.412  -4.584  28.337  0.00  0.00    -0.452 OA
BRANCH  37  39
ATOM     38  C   UNL     1       5.225  -6.438  26.943  0.00  0.00    +0.136 C 
ATOM     39  C   UNL     1       5.913  -5.831  28.122  0.00  0.00    +0.304 C 
ATOM     40  O   UNL     1       6.739  -6.396  28.828  0.00  0.00    -0.251 OA
ENDBRANCH  37  39
ENDBRANCH  27  37
BRANCH  30  41
ATOM     41  C   UNL     1       4.337   0.053  26.801  0.00  0.00    +0.190 C 
BRANCH  41  42
ATOM     42  O   UNL     1       4.931  -0.210  25.530  0.00  0.00    -0.392 OA
ATOM     43  H   UNL     1       4.243  -0.666  24.995  0.00  0.00    +0.210 HD
ENDBRANCH  41  42
ENDBRANCH  30  41
ENDBRANCH  26  28
ENDBRANCH   1  26
TORSDOF 13
ENDMDL
MODEL 9
REMARK VINA RESULT:      -6.9      2.218      7.727
REMARK  Name = 
REMARK  14 active torsions:
REMARK  status: ('A' for Active; 'I' for Inactive)
REMARK    1  A    between atoms: C_1  and  C_2
REMARK    2  A    between atoms: C_2  and  O_4
REMARK    3  A    between atoms: O_4  and  C_5
REMARK    4  A    between atoms: C_6  and  O_39
REMARK    5  A    between atoms: C_8  and  O_38
REMARK    6  A    between atoms: C_10  and  C_36
REMARK    7  A    between atoms: C_12  and  O_14
REMARK    8  A    between atoms: O_14  and  C_15
REMARK    9  A    between atoms: C_16  and  C_28
REMARK   10  A    between atoms: C_20  and  O_27
REMARK   11  A    between atoms: C_22  and  O_26
REMARK   12  A    between atoms: C_30  and  O_35
REMARK   13  A    between atoms: C_31  and  O_34
REMARK   14  A    between atoms: C_36  and  O_37
REMARK                            x       y       z     vdW  Elec       q    Type
REMARK                         _______ _______ _______ _____ _____    ______ ____
ROOT
ATOM      1  C   UNL     1       5.933  -0.855  24.708  0.00  0.00    +0.214 A 
ATOM      2  C   UNL     1       5.157  -1.896  25.484  0.00  0.00    +0.238 A 
ATOM      3  O   UNL     1       4.012  -1.753  25.883  0.00  0.00    -0.283 OA
ATOM      4  C   UNL     1       5.777  -3.103  25.934  0.00  0.00    +0.109 A 
ATOM      5  C   UNL     1       7.121  -3.248  25.666  0.00  0.00    +0.147 A 
ATOM      6  C   UNL     1       7.797  -4.298  26.282  0.00  0.00    +0.092 A 
ATOM      7  C   UNL     1       7.101  -5.162  27.149  0.00  0.00    +0.124 A 
ATOM      8  C   UNL     1       5.737  -5.032  27.373  0.00  0.00    +0.091 A 
ATOM      9  O   UNL     1       7.802  -2.395  24.830  0.00  0.00    -0.451 OA
ATOM     10  C   UNL     1       5.066  -4.025  26.747  0.00  0.00    +0.135 A 
ATOM     11  C   UNL     1       7.215  -1.184  24.375  0.00  0.00    +0.181 A 
ENDROOT
BRANCH  11  12
ATOM     12  C   UNL     1       8.231  -0.344  23.591  0.00  0.00    +0.025 A 
ATOM     13  C   UNL     1       8.575  -0.530  22.238  0.00  0.00    +0.015 A 
ATOM     14  C   UNL     1       9.407   0.387  21.538  0.00  0.00    +0.050 A 
ATOM     15  C   UNL     1       9.920   1.494  22.191  0.00  0.00    +0.158 A 
ATOM     16  C   UNL     1       9.691   1.648  23.544  0.00  0.00    +0.159 A 
ATOM     17  C   UNL     1       8.876   0.742  24.245  0.00  0.00    +0.060 A 
BRANCH  15  18
ATOM     18  O   UNL     1      10.641   2.430  21.500  0.00  0.00    -0.503 OA
ATOM     19  H   UNL     1      11.324   1.922  21.019  0.00  0.00    +0.292 HD
ENDBRANCH  15  18
BRANCH  16  20
ATOM     20  O   UNL     1      10.275   2.727  24.163  0.00  0.00    -0.503 OA
ATOM     21  H   UNL     1      10.821   3.197  23.510  0.00  0.00    +0.292 HD
ENDBRANCH  16  20
ENDBRANCH  11  12
BRANCH   7  22
ATOM     22  O   UNL     1       7.703  -6.169  27.825  0.00  0.00    -0.507 OA
ATOM     23  H   UNL     1       7.024  -6.681  28.306  0.00  0.00    +0.292 HD
ENDBRANCH   7  22
BRANCH  10  24
ATOM     24  O   UNL     1       3.710  -3.913  26.949  0.00  0.00    -0.506 OA
ATOM     25  H   UNL     1       3.485  -3.041  27.311  0.00  0.00    +0.292 HD
ENDBRANCH  10  24
BRANCH   1  26
ATOM     26  O   UNL     1       5.317   0.386  24.428  0.00  0.00    -0.452 OA
BRANCH  26  28
ATOM     27  C   UNL     1       6.163   2.529  25.473  0.00  0.00    +0.275 C 
ATOM     28  C   UNL     1       5.317   1.263  25.579  0.00  0.00    +0.352 C 
ATOM     29  O   UNL     1       3.958   1.495  25.963  0.00  0.00    -0.330 OA
ATOM     30  C   UNL     1       3.718   2.169  27.211  0.00  0.00    +0.179 C 
ATOM     31  C   UNL     1       4.551   3.460  27.244  0.00  0.00    +0.178 C 
ATOM     32  C   UNL     1       6.032   3.235  26.853  0.00  0.00    +0.192 C 
BRANCH  31  33
ATOM     33  O   UNL     1       3.961   4.330  26.245  0.00  0.00    -0.386 OA
ATOM     34  H   UNL     1       4.148   5.244  26.538  0.00  0.00    +0.210 HD
ENDBRANCH  31  33
BRANCH  32  35
ATOM     35  O   UNL     1       6.754   4.472  26.895  0.00  0.00    -0.385 OA
ATOM     36  H   UNL     1       6.170   5.166  27.260  0.00  0.00    +0.210 HD
ENDBRANCH  32  35
BRANCH  27  37
ATOM     37  O   UNL     1       5.720   3.317  24.367  0.00  0.00    -0.452 OA
BRANCH  37  39
ATOM     38  C   UNL     1       6.532   3.168  22.192  0.00  0.00    +0.136 C 
ATOM     39  C   UNL     1       6.726   3.743  23.557  0.00  0.00    +0.304 C 
ATOM     40  O   UNL     1       7.681   4.424  23.909  0.00  0.00    -0.251 OA
ENDBRANCH  37  39
ENDBRANCH  27  37
BRANCH  30  41
ATOM     41  C   UNL     1       3.706   1.227  28.441  0.00  0.00    +0.190 C 
BRANCH  41  42
ATOM     42  O   UNL     1       3.335  -0.109  28.101  0.00  0.00    -0.392 OA
ATOM     43  H   UNL     1       2.626  -0.366  28.733  0.00  0.00    +0.210 HD
ENDBRANCH  41  42
ENDBRANCH  30  41
ENDBRANCH  26  28
ENDBRANCH   1  26
TORSDOF 13
ENDMDL
