MODEL 1
REMARK VINA RESULT:      -8.1      0.000      0.000
REMARK  Name = 
REMARK  12 active torsions:
REMARK  status: ('A' for Active; 'I' for Inactive)
REMARK    1  A    between atoms: C_3  and  O_37
REMARK    2  A    between atoms: C_4  and  O_21
REMARK    3  A    between atoms: C_6  and  C_7
REMARK    4  A    between atoms: C_8  and  O_20
REMARK    5  A    between atoms: C_12  and  O_19
REMARK    6  A    between atoms: C_14  and  O_18
REMARK    7  A    between atoms: O_21  and  C_22
REMARK    8  A    between atoms: C_23  and  O_36
REMARK    9  A    between atoms: C_25  and  O_35
REMARK   10  A    between atoms: C_27  and  O_34
REMARK   11  A    between atoms: C_29  and  C_32
REMARK   12  A    between atoms: C_32  and  O_33
REMARK                            x       y       z     vdW  Elec       q    Type
REMARK                         _______ _______ _______ _____ _____    ______ ____
ROOT
ATOM      1  C   UNL     1       8.702  -0.820  22.205  0.00  0.00    +0.015 A 
ATOM      2  C   UNL     1       8.809  -0.864  23.609  0.00  0.00    +0.025 A 
ATOM      3  C   UNL     1       9.382   0.241  24.255  0.00  0.00    +0.061 A 
ATOM      4  C   UNL     1       9.978   1.262  23.525  0.00  0.00    +0.166 A 
ATOM      5  C   UNL     1       9.916   1.249  22.130  0.00  0.00    +0.159 A 
ATOM      6  C   UNL     1       9.261   0.225  21.464  0.00  0.00    +0.050 A 
ENDROOT
BRANCH   2   7
ATOM      7  C   UNL     1       8.392  -2.039  24.423  0.00  0.00    +0.181 A 
ATOM      8  O   UNL     1       7.198  -1.836  25.120  0.00  0.00    -0.451 OA
ATOM      9  C   UNL     1       6.802  -2.765  26.051  0.00  0.00    +0.147 A 
ATOM     10  C   UNL     1       7.444  -3.988  26.207  0.00  0.00    +0.109 A 
ATOM     11  C   UNL     1       6.981  -4.915  27.147  0.00  0.00    +0.135 A 
ATOM     12  C   UNL     1       5.876  -4.621  27.938  0.00  0.00    +0.091 A 
ATOM     13  C   UNL     1       5.249  -3.388  27.789  0.00  0.00    +0.124 A 
ATOM     14  C   UNL     1       8.633  -4.257  25.398  0.00  0.00    +0.238 A 
ATOM     15  O   UNL     1       9.191  -5.350  25.477  0.00  0.00    -0.283 OA
ATOM     16  C   UNL     1       5.702  -2.458  26.852  0.00  0.00    +0.092 A 
ATOM     17  C   UNL     1       9.145  -3.155  24.546  0.00  0.00    +0.208 A 
BRANCH  11  18
ATOM     18  O   UNL     1       7.573  -6.134  27.348  0.00  0.00    -0.506 OA
ATOM     19  H   UNL     1       7.412  -6.684  26.546  0.00  0.00    +0.292 HD
ENDBRANCH  11  18
BRANCH  13  20
ATOM     20  O   UNL     1       4.169  -3.055  28.554  0.00  0.00    -0.507 OA
ATOM     21  H   UNL     1       3.724  -3.872  28.837  0.00  0.00    +0.292 HD
ENDBRANCH  13  20
BRANCH  17  22
ATOM     22  O   UNL     1      10.396  -3.335  23.989  0.00  0.00    -0.501 OA
ATOM     23  H   UNL     1      10.507  -4.283  23.805  0.00  0.00    +0.292 HD
ENDBRANCH  17  22
ENDBRANCH   2   7
BRANCH   5  24
ATOM     24  O   UNL     1      10.524   2.258  21.429  0.00  0.00    -0.503 OA
ATOM     25  H   UNL     1      11.000   2.834  22.043  0.00  0.00    +0.292 HD
ENDBRANCH   5  24
BRANCH   4  26
ATOM     26  O   UNL     1      10.607   2.324  24.078  0.00  0.00    -0.457 OA
BRANCH  26  27
ATOM     27  C   UNL     1      10.028   3.622  24.072  0.00  0.00    +0.339 C 
ATOM     28  O   UNL     1      10.732   4.562  23.256  0.00  0.00    -0.331 OA
ATOM     29  C   UNL     1      10.495   5.935  23.628  0.00  0.00    +0.179 C 
ATOM     30  C   UNL     1       8.986   6.276  23.767  0.00  0.00    +0.177 C 
ATOM     31  C   UNL     1       8.134   5.172  24.433  0.00  0.00    +0.180 C 
ATOM     32  C   UNL     1       8.503   3.774  23.889  0.00  0.00    +0.214 C 
BRANCH  30  33
ATOM     33  O   UNL     1       8.481   6.476  22.431  0.00  0.00    -0.386 OA
ATOM     34  H   UNL     1       8.859   5.773  21.868  0.00  0.00    +0.210 HD
ENDBRANCH  30  33
BRANCH  31  35
ATOM     35  O   UNL     1       8.218   5.226  25.858  0.00  0.00    -0.386 OA
ATOM     36  H   UNL     1       8.775   4.487  26.185  0.00  0.00    +0.210 HD
ENDBRANCH  31  35
BRANCH  32  37
ATOM     37  O   UNL     1       8.083   3.693  22.515  0.00  0.00    -0.383 OA
ATOM     38  H   UNL     1       7.156   3.369  22.516  0.00  0.00    +0.210 HD
ENDBRANCH  32  37
BRANCH  29  39
ATOM     39  C   UNL     1      11.360   6.321  24.841  0.00  0.00    +0.190 C 
BRANCH  39  40
ATOM     40  O   UNL     1      12.757   6.292  24.556  0.00  0.00    -0.392 OA
ATOM     41  H   UNL     1      13.209   6.250  25.425  0.00  0.00    +0.210 HD
ENDBRANCH  39  40
ENDBRANCH  29  39
ENDBRANCH  26  27
ENDBRANCH   4  26
TORSDOF 12
ENDMDL
MODEL 2
REMARK VINA RESULT:      -7.9      2.321      2.926
REMARK  Name = 
REMARK  12 active torsions:
REMARK  status: ('A' for Active; 'I' for Inactive)
REMARK    1  A    between atoms: C_3  and  O_37
REMARK    2  A    between atoms: C_4  and  O_21
REMARK    3  A    between atoms: C_6  and  C_7
REMARK    4  A    between atoms: C_8  and  O_20
REMARK    5  A    between atoms: C_12  and  O_19
REMARK    6  A    between atoms: C_14  and  O_18
REMARK    7  A    between atoms: O_21  and  C_22
REMARK    8  A    between atoms: C_23  and  O_36
REMARK    9  A    between atoms: C_25  and  O_35
REMARK   10  A    between atoms: C_27  and  O_34
REMARK   11  A    between atoms: C_29  and  C_32
REMARK   12  A    between atoms: C_32  and  O_33
REMARK                            x       y       z     vdW  Elec       q    Type
REMARK                         _______ _______ _______ _____ _____    ______ ____
ROOT
ATOM      1  C   UNL     1       9.725  -1.487  22.877  0.00  0.00    +0.015 A 
ATOM      2  C   UNL     1       8.364  -1.640  23.205  0.00  0.00    +0.025 A 
ATOM      3  C   UNL     1       7.475  -0.642  22.785  0.00  0.00    +0.061 A 
ATOM      4  C   UNL     1       7.945   0.539  22.221  0.00  0.00    +0.166 A 
ATOM      5  C   UNL     1       9.309   0.694  21.968  0.00  0.00    +0.159 A 
ATOM      6  C   UNL     1      10.202  -0.321  22.271  0.00  0.00    +0.050 A 
ENDROOT
BRANCH   2   7
ATOM      7  C   UNL     1       7.842  -2.779  24.010  0.00  0.00    +0.181 A 
ATOM      8  O   UNL     1       6.986  -3.620  23.294  0.00  0.00    -0.451 OA
ATOM      9  C   UNL     1       6.291  -4.594  23.967  0.00  0.00    +0.147 A 
ATOM     10  C   UNL     1       6.531  -4.899  25.302  0.00  0.00    +0.109 A 
ATOM     11  C   UNL     1       5.818  -5.924  25.932  0.00  0.00    +0.135 A 
ATOM     12  C   UNL     1       4.859  -6.647  25.233  0.00  0.00    +0.091 A 
ATOM     13  C   UNL     1       4.611  -6.325  23.901  0.00  0.00    +0.124 A 
ATOM     14  C   UNL     1       7.511  -4.095  26.032  0.00  0.00    +0.238 A 
ATOM     15  O   UNL     1       7.782  -4.374  27.199  0.00  0.00    -0.283 OA
ATOM     16  C   UNL     1       5.318  -5.306  23.263  0.00  0.00    +0.092 A 
ATOM     17  C   UNL     1       8.099  -2.927  25.330  0.00  0.00    +0.208 A 
BRANCH  11  18
ATOM     18  O   UNL     1       6.010  -6.268  27.245  0.00  0.00    -0.506 OA
ATOM     19  H   UNL     1       5.720  -7.203  27.359  0.00  0.00    +0.292 HD
ENDBRANCH  11  18
BRANCH  13  20
ATOM     20  O   UNL     1       3.669  -7.002  23.182  0.00  0.00    -0.507 OA
ATOM     21  H   UNL     1       3.177  -6.365  22.637  0.00  0.00    +0.292 HD
ENDBRANCH  13  20
BRANCH  17  22
ATOM     22  O   UNL     1       8.821  -2.040  26.103  0.00  0.00    -0.501 OA
ATOM     23  H   UNL     1       8.583  -2.194  27.033  0.00  0.00    +0.292 HD
ENDBRANCH  17  22
ENDBRANCH   2   7
BRANCH   5  24
ATOM     24  O   UNL     1       9.753   1.872  21.425  0.00  0.00    -0.503 OA
ATOM     25  H   UNL     1       9.340   2.615  21.887  0.00  0.00    +0.292 HD
ENDBRANCH   5  24
BRANCH   4  26
ATOM     26  O   UNL     1       7.154   1.572  21.854  0.00  0.00    -0.457 OA
BRANCH  26  27
ATOM     27  C   UNL     1       6.986   2.715  22.682  0.00  0.00    +0.339 C 
ATOM     28  O   UNL     1       7.704   3.866  22.229  0.00  0.00    -0.331 OA
ATOM     29  C   UNL     1       7.967   4.826  23.273  0.00  0.00    +0.179 C 
ATOM     30  C   UNL     1       6.701   5.197  24.091  0.00  0.00    +0.177 C 
ATOM     31  C   UNL     1       5.761   4.008  24.400  0.00  0.00    +0.180 C 
ATOM     32  C   UNL     1       5.571   3.107  23.160  0.00  0.00    +0.214 C 
BRANCH  30  33
ATOM     33  O   UNL     1       5.960   6.150  23.302  0.00  0.00    -0.386 OA
ATOM     34  H   UNL     1       5.336   5.645  22.745  0.00  0.00    +0.210 HD
ENDBRANCH  30  33
BRANCH  31  35
ATOM     35  O   UNL     1       6.206   3.263  25.534  0.00  0.00    -0.386 OA
ATOM     36  H   UNL     1       6.832   3.804  26.062  0.00  0.00    +0.210 HD
ENDBRANCH  31  35
BRANCH  32  37
ATOM     37  O   UNL     1       4.820   3.839  22.174  0.00  0.00    -0.383 OA
ATOM     38  H   UNL     1       5.375   4.599  21.896  0.00  0.00    +0.210 HD
ENDBRANCH  32  37
BRANCH  29  39
ATOM     39  C   UNL     1       9.178   4.387  24.115  0.00  0.00    +0.190 C 
BRANCH  39  40
ATOM     40  O   UNL     1      10.305   4.027  23.320  0.00  0.00    -0.392 OA
ATOM     41  H   UNL     1      10.409   4.743  22.659  0.00  0.00    +0.210 HD
ENDBRANCH  39  40
ENDBRANCH  29  39
ENDBRANCH  26  27
ENDBRANCH   4  26
TORSDOF 12
ENDMDL
MODEL 3
REMARK VINA RESULT:      -7.9      2.723      3.670
REMARK  Name = 
REMARK  12 active torsions:
REMARK  status: ('A' for Active; 'I' for Inactive)
REMARK    1  A    between atoms: C_3  and  O_37
REMARK    2  A    between atoms: C_4  and  O_21
REMARK    3  A    between atoms: C_6  and  C_7
REMARK    4  A    between atoms: C_8  and  O_20
REMARK    5  A    between atoms: C_12  and  O_19
REMARK    6  A    between atoms: C_14  and  O_18
REMARK    7  A    between atoms: O_21  and  C_22
REMARK    8  A    between atoms: C_23  and  O_36
REMARK    9  A    between atoms: C_25  and  O_35
REMARK   10  A    between atoms: C_27  and  O_34
REMARK   11  A    between atoms: C_29  and  C_32
REMARK   12  A    between atoms: C_32  and  O_33
REMARK                            x       y       z     vdW  Elec       q    Type
REMARK                         _______ _______ _______ _____ _____    ______ ____
ROOT
ATOM      1  C   UNL     1       9.787  -2.447  23.575  0.00  0.00    +0.015 A 
ATOM      2  C   UNL     1       8.391  -2.514  23.751  0.00  0.00    +0.025 A 
ATOM      3  C   UNL     1       7.614  -1.480  23.212  0.00  0.00    +0.061 A 
ATOM      4  C   UNL     1       8.212  -0.345  22.676  0.00  0.00    +0.166 A 
ATOM      5  C   UNL     1       9.603  -0.274  22.574  0.00  0.00    +0.159 A 
ATOM      6  C   UNL     1      10.396  -1.329  22.998  0.00  0.00    +0.050 A 
ENDROOT
BRANCH   2   7
ATOM      7  C   UNL     1       7.716  -3.598  24.519  0.00  0.00    +0.181 A 
ATOM      8  O   UNL     1       6.817  -4.344  23.755  0.00  0.00    -0.451 OA
ATOM      9  C   UNL     1       5.994  -5.246  24.383  0.00  0.00    +0.147 A 
ATOM     10  C   UNL     1       6.135  -5.578  25.726  0.00  0.00    +0.109 A 
ATOM     11  C   UNL     1       5.292  -6.529  26.311  0.00  0.00    +0.135 A 
ATOM     12  C   UNL     1       4.300  -7.147  25.558  0.00  0.00    +0.091 A 
ATOM     13  C   UNL     1       4.153  -6.796  24.220  0.00  0.00    +0.124 A 
ATOM     14  C   UNL     1       7.154  -4.881  26.511  0.00  0.00    +0.238 A 
ATOM     15  O   UNL     1       7.337  -5.192  27.686  0.00  0.00    -0.283 OA
ATOM     16  C   UNL     1       4.990  -5.852  23.626  0.00  0.00    +0.092 A 
ATOM     17  C   UNL     1       7.892  -3.777  25.849  0.00  0.00    +0.208 A 
BRANCH  11  18
ATOM     18  O   UNL     1       5.382  -6.896  27.628  0.00  0.00    -0.506 OA
ATOM     19  H   UNL     1       4.914  -6.215  28.166  0.00  0.00    +0.292 HD
ENDBRANCH  11  18
BRANCH  13  20
ATOM     20  O   UNL     1       3.184  -7.371  23.448  0.00  0.00    -0.507 OA
ATOM     21  H   UNL     1       3.211  -6.967  22.564  0.00  0.00    +0.292 HD
ENDBRANCH  13  20
BRANCH  17  22
ATOM     22  O   UNL     1       8.660  -2.971  26.665  0.00  0.00    -0.501 OA
ATOM     23  H   UNL     1       8.062  -2.366  27.135  0.00  0.00    +0.292 HD
ENDBRANCH  17  22
ENDBRANCH   2   7
BRANCH   5  24
ATOM     24  O   UNL     1      10.173   0.860  22.056  0.00  0.00    -0.503 OA
ATOM     25  H   UNL     1      10.566   0.657  21.196  0.00  0.00    +0.292 HD
ENDBRANCH   5  24
BRANCH   4  26
ATOM     26  O   UNL     1       7.530   0.720  22.199  0.00  0.00    -0.457 OA
BRANCH  26  27
ATOM     27  C   UNL     1       6.922   1.667  23.067  0.00  0.00    +0.339 C 
ATOM     28  O   UNL     1       7.852   2.369  23.896  0.00  0.00    -0.331 OA
ATOM     29  C   UNL     1       7.257   2.918  25.089  0.00  0.00    +0.179 C 
ATOM     30  C   UNL     1       5.971   3.741  24.805  0.00  0.00    +0.177 C 
ATOM     31  C   UNL     1       5.043   3.136  23.727  0.00  0.00    +0.180 C 
ATOM     32  C   UNL     1       5.850   2.630  22.511  0.00  0.00    +0.214 C 
BRANCH  30  33
ATOM     33  O   UNL     1       6.402   5.036  24.339  0.00  0.00    -0.386 OA
ATOM     34  H   UNL     1       5.659   5.655  24.473  0.00  0.00    +0.210 HD
ENDBRANCH  30  33
BRANCH  31  35
ATOM     35  O   UNL     1       4.201   2.116  24.266  0.00  0.00    -0.386 OA
ATOM     36  H   UNL     1       3.883   2.384  25.155  0.00  0.00    +0.210 HD
ENDBRANCH  31  35
BRANCH  32  37
ATOM     37  O   UNL     1       6.407   3.768  21.827  0.00  0.00    -0.383 OA
ATOM     38  H   UNL     1       5.671   4.397  21.670  0.00  0.00    +0.210 HD
ENDBRANCH  32  37
BRANCH  29  39
ATOM     39  C   UNL     1       7.103   1.827  26.164  0.00  0.00    +0.190 C 
BRANCH  39  40
ATOM     40  O   UNL     1       8.223   0.947  26.225  0.00  0.00    -0.392 OA
ATOM     41  H   UNL     1       8.882   1.388  26.802  0.00  0.00    +0.210 HD
ENDBRANCH  39  40
ENDBRANCH  29  39
ENDBRANCH  26  27
ENDBRANCH   4  26
TORSDOF 12
ENDMDL
MODEL 4
REMARK VINA RESULT:      -7.8      2.514      9.345
REMARK  Name = 
REMARK  12 active torsions:
REMARK  status: ('A' for Active; 'I' for Inactive)
REMARK    1  A    between atoms: C_3  and  O_37
REMARK    2  A    between atoms: C_4  and  O_21
REMARK    3  A    between atoms: C_6  and  C_7
REMARK    4  A    between atoms: C_8  and  O_20
REMARK    5  A    between atoms: C_12  and  O_19
REMARK    6  A    between atoms: C_14  and  O_18
REMARK    7  A    between atoms: O_21  and  C_22
REMARK    8  A    between atoms: C_23  and  O_36
REMARK    9  A    between atoms: C_25  and  O_35
REMARK   10  A    between atoms: C_27  and  O_34
REMARK   11  A    between atoms: C_29  and  C_32
REMARK   12  A    between atoms: C_32  and  O_33
REMARK                            x       y       z     vdW  Elec       q    Type
REMARK                         _______ _______ _______ _____ _____    ______ ____
ROOT
ATOM      1  C   UNL     1       6.527  -3.247  21.932  0.00  0.00    +0.015 A 
ATOM      2  C   UNL     1       7.321  -2.780  22.998  0.00  0.00    +0.025 A 
ATOM      3  C   UNL     1       7.563  -3.656  24.064  0.00  0.00    +0.061 A 
ATOM      4  C   UNL     1       6.901  -4.876  24.148  0.00  0.00    +0.166 A 
ATOM      5  C   UNL     1       6.065  -5.287  23.109  0.00  0.00    +0.159 A 
ATOM      6  C   UNL     1       5.891  -4.491  21.988  0.00  0.00    +0.050 A 
ENDROOT
BRANCH   2   7
ATOM      7  C   UNL     1       7.868  -1.396  23.063  0.00  0.00    +0.181 A 
ATOM      8  O   UNL     1       6.892  -0.406  22.928  0.00  0.00    -0.451 OA
ATOM      9  C   UNL     1       7.284   0.902  22.781  0.00  0.00    +0.147 A 
ATOM     10  C   UNL     1       8.604   1.310  22.937  0.00  0.00    +0.109 A 
ATOM     11  C   UNL     1       8.946   2.660  22.810  0.00  0.00    +0.135 A 
ATOM     12  C   UNL     1       7.971   3.608  22.523  0.00  0.00    +0.091 A 
ATOM     13  C   UNL     1       6.655   3.191  22.351  0.00  0.00    +0.124 A 
ATOM     14  C   UNL     1       9.620   0.289  23.193  0.00  0.00    +0.238 A 
ATOM     15  O   UNL     1      10.787   0.625  23.386  0.00  0.00    -0.283 OA
ATOM     16  C   UNL     1       6.303   1.847  22.478  0.00  0.00    +0.092 A 
ATOM     17  C   UNL     1       9.191  -1.131  23.151  0.00  0.00    +0.208 A 
BRANCH  11  18
ATOM     18  O   UNL     1      10.229   3.121  22.951  0.00  0.00    -0.506 OA
ATOM     19  H   UNL     1      10.842   2.369  22.780  0.00  0.00    +0.292 HD
ENDBRANCH  11  18
BRANCH  13  20
ATOM     20  O   UNL     1       5.669   4.088  22.056  0.00  0.00    -0.507 OA
ATOM     21  H   UNL     1       4.881   3.599  21.764  0.00  0.00    +0.292 HD
ENDBRANCH  13  20
BRANCH  17  22
ATOM     22  O   UNL     1      10.195  -2.079  23.141  0.00  0.00    -0.501 OA
ATOM     23  H   UNL     1       9.863  -2.869  23.600  0.00  0.00    +0.292 HD
ENDBRANCH  17  22
ENDBRANCH   2   7
BRANCH   5  24
ATOM     24  O   UNL     1       5.410  -6.486  23.218  0.00  0.00    -0.503 OA
ATOM     25  H   UNL     1       5.981  -7.195  22.889  0.00  0.00    +0.292 HD
ENDBRANCH   5  24
BRANCH   4  26
ATOM     26  O   UNL     1       7.033  -5.742  25.178  0.00  0.00    -0.457 OA
BRANCH  26  27
ATOM     27  C   UNL     1       6.138  -5.731  26.283  0.00  0.00    +0.339 C 
ATOM     28  O   UNL     1       5.284  -6.876  26.343  0.00  0.00    -0.331 OA
ATOM     29  C   UNL     1       4.076  -6.652  27.099  0.00  0.00    +0.179 C 
ATOM     30  C   UNL     1       4.339  -6.029  28.496  0.00  0.00    +0.177 C 
ATOM     31  C   UNL     1       5.439  -4.943  28.522  0.00  0.00    +0.180 C 
ATOM     32  C   UNL     1       6.667  -5.369  27.687  0.00  0.00    +0.214 C 
BRANCH  30  33
ATOM     33  O   UNL     1       4.763  -7.105  29.358  0.00  0.00    -0.386 OA
ATOM     34  H   UNL     1       4.115  -7.829  29.260  0.00  0.00    +0.210 HD
ENDBRANCH  30  33
BRANCH  31  35
ATOM     35  O   UNL     1       4.935  -3.670  28.112  0.00  0.00    -0.386 OA
ATOM     36  H   UNL     1       5.676  -3.033  28.025  0.00  0.00    +0.210 HD
ENDBRANCH  31  35
BRANCH  32  37
ATOM     37  O   UNL     1       7.313  -6.469  28.354  0.00  0.00    -0.383 OA
ATOM     38  H   UNL     1       8.267  -6.248  28.414  0.00  0.00    +0.210 HD
ENDBRANCH  32  37
BRANCH  29  39
ATOM     39  C   UNL     1       3.036  -5.908  26.242  0.00  0.00    +0.190 C 
BRANCH  39  40
ATOM     40  O   UNL     1       2.984  -6.381  24.898  0.00  0.00    -0.392 OA
ATOM     41  H   UNL     1       2.757  -5.603  24.347  0.00  0.00    +0.210 HD
ENDBRANCH  39  40
ENDBRANCH  29  39
ENDBRANCH  26  27
ENDBRANCH   4  26
TORSDOF 12
ENDMDL
MODEL 5
REMARK VINA RESULT:      -7.8      1.149      2.459
REMARK  Name = 
REMARK  12 active torsions:
REMARK  status: ('A' for Active; 'I' for Inactive)
REMARK    1  A    between atoms: C_3  and  O_37
REMARK    2  A    between atoms: C_4  and  O_21
REMARK    3  A    between atoms: C_6  and  C_7
REMARK    4  A    between atoms: C_8  and  O_20
REMARK    5  A    between atoms: C_12  and  O_19
REMARK    6  A    between atoms: C_14  and  O_18
REMARK    7  A    between atoms: O_21  and  C_22
REMARK    8  A    between atoms: C_23  and  O_36
REMARK    9  A    between atoms: C_25  and  O_35
REMARK   10  A    between atoms: C_27  and  O_34
REMARK   11  A    between atoms: C_29  and  C_32
REMARK   12  A    between atoms: C_32  and  O_33
REMARK                            x       y       z     vdW  Elec       q    Type
REMARK                         _______ _______ _______ _____ _____    ______ ____
ROOT
ATOM      1  C   UNL     1       8.928  -1.087  22.180  0.00  0.00    +0.015 A 
ATOM      2  C   UNL     1       8.670  -0.972  23.560  0.00  0.00    +0.025 A 
ATOM      3  C   UNL     1       8.812   0.293  24.147  0.00  0.00    +0.061 A 
ATOM      4  C   UNL     1       9.355   1.353  23.431  0.00  0.00    +0.166 A 
ATOM      5  C   UNL     1       9.665   1.194  22.079  0.00  0.00    +0.159 A 
ATOM      6  C   UNL     1       9.433  -0.015  21.441  0.00  0.00    +0.050 A 
ENDROOT
BRANCH   2   7
ATOM      7  C   UNL     1       8.305  -2.130  24.422  0.00  0.00    +0.181 A 
ATOM      8  O   UNL     1       7.096  -1.960  25.100  0.00  0.00    -0.451 OA
ATOM      9  C   UNL     1       6.739  -2.866  26.067  0.00  0.00    +0.147 A 
ATOM     10  C   UNL     1       7.442  -4.046  26.284  0.00  0.00    +0.109 A 
ATOM     11  C   UNL     1       7.018  -4.953  27.260  0.00  0.00    +0.135 A 
ATOM     12  C   UNL     1       5.891  -4.684  28.028  0.00  0.00    +0.091 A 
ATOM     13  C   UNL     1       5.202  -3.493  27.819  0.00  0.00    +0.124 A 
ATOM     14  C   UNL     1       8.652  -4.288  25.496  0.00  0.00    +0.238 A 
ATOM     15  O   UNL     1       9.265  -5.345  25.629  0.00  0.00    -0.283 OA
ATOM     16  C   UNL     1       5.615  -2.583  26.846  0.00  0.00    +0.092 A 
ATOM     17  C   UNL     1       9.115  -3.199  24.600  0.00  0.00    +0.208 A 
BRANCH  11  18
ATOM     18  O   UNL     1       7.671  -6.130  27.519  0.00  0.00    -0.506 OA
ATOM     19  H   UNL     1       7.126  -6.866  27.154  0.00  0.00    +0.292 HD
ENDBRANCH  11  18
BRANCH  13  20
ATOM     20  O   UNL     1       4.098  -3.184  28.559  0.00  0.00    -0.507 OA
ATOM     21  H   UNL     1       4.328  -2.470  29.178  0.00  0.00    +0.292 HD
ENDBRANCH  13  20
BRANCH  17  22
ATOM     22  O   UNL     1      10.379  -3.337  24.063  0.00  0.00    -0.501 OA
ATOM     23  H   UNL     1      10.682  -2.457  23.784  0.00  0.00    +0.292 HD
ENDBRANCH  17  22
ENDBRANCH   2   7
BRANCH   5  24
ATOM     24  O   UNL     1      10.214   2.248  21.395  0.00  0.00    -0.503 OA
ATOM     25  H   UNL     1       9.536   2.656  20.837  0.00  0.00    +0.292 HD
ENDBRANCH   5  24
BRANCH   4  26
ATOM     26  O   UNL     1       9.583   2.582  23.948  0.00  0.00    -0.457 OA
BRANCH  26  27
ATOM     27  C   UNL     1       8.629   3.629  23.838  0.00  0.00    +0.339 C 
ATOM     28  O   UNL     1       7.519   3.492  24.729  0.00  0.00    -0.331 OA
ATOM     29  C   UNL     1       6.343   4.205  24.295  0.00  0.00    +0.179 C 
ATOM     30  C   UNL     1       6.631   5.685  23.922  0.00  0.00    +0.177 C 
ATOM     31  C   UNL     1       7.957   5.912  23.159  0.00  0.00    +0.180 C 
ATOM     32  C   UNL     1       9.110   5.095  23.783  0.00  0.00    +0.214 C 
BRANCH  30  33
ATOM     33  O   UNL     1       6.706   6.419  25.161  0.00  0.00    -0.386 OA
ATOM     34  H   UNL     1       5.963   7.053  25.169  0.00  0.00    +0.210 HD
ENDBRANCH  30  33
BRANCH  31  35
ATOM     35  O   UNL     1       7.815   5.647  21.762  0.00  0.00    -0.386 OA
ATOM     36  H   UNL     1       7.535   6.465  21.297  0.00  0.00    +0.210 HD
ENDBRANCH  31  35
BRANCH  32  37
ATOM     37  O   UNL     1       9.409   5.644  25.080  0.00  0.00    -0.383 OA
ATOM     38  H   UNL     1       8.894   5.127  25.736  0.00  0.00    +0.210 HD
ENDBRANCH  32  37
BRANCH  29  39
ATOM     39  C   UNL     1       5.592   3.400  23.219  0.00  0.00    +0.190 C 
BRANCH  39  40
ATOM     40  O   UNL     1       5.324   4.161  22.044  0.00  0.00    -0.392 OA
ATOM     41  H   UNL     1       4.545   4.717  22.254  0.00  0.00    +0.210 HD
ENDBRANCH  39  40
ENDBRANCH  29  39
ENDBRANCH  26  27
ENDBRANCH   4  26
TORSDOF 12
ENDMDL
MODEL 6
REMARK VINA RESULT:      -7.8      2.620      3.500
REMARK  Name = 
REMARK  12 active torsions:
REMARK  status: ('A' for Active; 'I' for Inactive)
REMARK    1  A    between atoms: C_3  and  O_37
REMARK    2  A    between atoms: C_4  and  O_21
REMARK    3  A    between atoms: C_6  and  C_7
REMARK    4  A    between atoms: C_8  and  O_20
REMARK    5  A    between atoms: C_12  and  O_19
REMARK    6  A    between atoms: C_14  and  O_18
REMARK    7  A    between atoms: O_21  and  C_22
REMARK    8  A    between atoms: C_23  and  O_36
REMARK    9  A    between atoms: C_25  and  O_35
REMARK   10  A    between atoms: C_27  and  O_34
REMARK   11  A    between atoms: C_29  and  C_32
REMARK   12  A    between atoms: C_32  and  O_33
REMARK                            x       y       z     vdW  Elec       q    Type
REMARK                         _______ _______ _______ _____ _____    ______ ____
ROOT
ATOM      1  C   UNL     1       9.718  -2.316  23.459  0.00  0.00    +0.015 A 
ATOM      2  C   UNL     1       8.522  -2.212  24.196  0.00  0.00    +0.025 A 
ATOM      3  C   UNL     1       8.120  -0.935  24.610  0.00  0.00    +0.061 A 
ATOM      4  C   UNL     1       8.959   0.162  24.450  0.00  0.00    +0.166 A 
ATOM      5  C   UNL     1      10.172   0.019  23.774  0.00  0.00    +0.159 A 
ATOM      6  C   UNL     1      10.548  -1.210  23.256  0.00  0.00    +0.050 A 
ENDROOT
BRANCH   2   7
ATOM      7  C   UNL     1       7.701  -3.390  24.592  0.00  0.00    +0.181 A 
ATOM      8  O   UNL     1       6.640  -3.646  23.721  0.00  0.00    -0.451 OA
ATOM      9  C   UNL     1       5.700  -4.583  24.071  0.00  0.00    +0.147 A 
ATOM     10  C   UNL     1       5.849  -5.417  25.173  0.00  0.00    +0.109 A 
ATOM     11  C   UNL     1       4.877  -6.379  25.469  0.00  0.00    +0.135 A 
ATOM     12  C   UNL     1       3.749  -6.508  24.666  0.00  0.00    +0.091 A 
ATOM     13  C   UNL     1       3.598  -5.659  23.574  0.00  0.00    +0.124 A 
ATOM     14  C   UNL     1       7.019  -5.231  26.031  0.00  0.00    +0.238 A 
ATOM     15  O   UNL     1       7.204  -5.988  26.983  0.00  0.00    -0.283 OA
ATOM     16  C   UNL     1       4.562  -4.698  23.270  0.00  0.00    +0.092 A 
ATOM     17  C   UNL     1       7.912  -4.084  25.734  0.00  0.00    +0.208 A 
BRANCH  11  18
ATOM     18  O   UNL     1       4.968  -7.227  26.541  0.00  0.00    -0.506 OA
ATOM     19  H   UNL     1       4.062  -7.349  26.909  0.00  0.00    +0.292 HD
ENDBRANCH  11  18
BRANCH  13  20
ATOM     20  O   UNL     1       2.500  -5.745  22.768  0.00  0.00    -0.507 OA
ATOM     21  H   UNL     1       2.788  -6.005  21.877  0.00  0.00    +0.292 HD
ENDBRANCH  13  20
BRANCH  17  22
ATOM     22  O   UNL     1       8.858  -3.773  26.689  0.00  0.00    -0.501 OA
ATOM     23  H   UNL     1       9.668  -4.268  26.480  0.00  0.00    +0.292 HD
ENDBRANCH  17  22
ENDBRANCH   2   7
BRANCH   5  24
ATOM     24  O   UNL     1      10.991   1.110  23.641  0.00  0.00    -0.503 OA
ATOM     25  H   UNL     1      11.134   1.291  22.701  0.00  0.00    +0.292 HD
ENDBRANCH   5  24
BRANCH   4  26
ATOM     26  O   UNL     1       8.668   1.410  24.883  0.00  0.00    -0.457 OA
BRANCH  26  27
ATOM     27  C   UNL     1       7.872   2.301  24.113  0.00  0.00    +0.339 C 
ATOM     28  O   UNL     1       8.119   3.682  24.394  0.00  0.00    -0.331 OA
ATOM     29  C   UNL     1       7.019   4.545  24.039  0.00  0.00    +0.179 C 
ATOM     30  C   UNL     1       6.505   4.312  22.593  0.00  0.00    +0.177 C 
ATOM     31  C   UNL     1       6.451   2.830  22.158  0.00  0.00    +0.180 C 
ATOM     32  C   UNL     1       7.723   2.070  22.594  0.00  0.00    +0.214 C 
BRANCH  30  33
ATOM     33  O   UNL     1       7.419   4.996  21.711  0.00  0.00    -0.386 OA
ATOM     34  H   UNL     1       6.905   5.299  20.938  0.00  0.00    +0.210 HD
ENDBRANCH  30  33
BRANCH  31  35
ATOM     35  O   UNL     1       5.263   2.185  22.623  0.00  0.00    -0.386 OA
ATOM     36  H   UNL     1       4.574   2.858  22.814  0.00  0.00    +0.210 HD
ENDBRANCH  31  35
BRANCH  32  37
ATOM     37  O   UNL     1       8.837   2.569  21.831  0.00  0.00    -0.383 OA
ATOM     38  H   UNL     1       9.615   2.020  22.066  0.00  0.00    +0.210 HD
ENDBRANCH  32  37
BRANCH  29  39
ATOM     39  C   UNL     1       5.932   4.506  25.128  0.00  0.00    +0.190 C 
BRANCH  39  40
ATOM     40  O   UNL     1       4.615   4.394  24.592  0.00  0.00    -0.392 OA
ATOM     41  H   UNL     1       4.723   4.342  23.619  0.00  0.00    +0.210 HD
ENDBRANCH  39  40
ENDBRANCH  29  39
ENDBRANCH  26  27
ENDBRANCH   4  26
TORSDOF 12
ENDMDL
MODEL 7
REMARK VINA RESULT:      -7.8      2.244      3.325
REMARK  Name = 
REMARK  12 active torsions:
REMARK  status: ('A' for Active; 'I' for Inactive)
REMARK    1  A    between atoms: C_3  and  O_37
REMARK    2  A    between atoms: C_4  and  O_21
REMARK    3  A    between atoms: C_6  and  C_7
REMARK    4  A    between atoms: C_8  and  O_20
REMARK    5  A    between atoms: C_12  and  O_19
REMARK    6  A    between atoms: C_14  and  O_18
REMARK    7  A    between atoms: O_21  and  C_22
REMARK    8  A    between atoms: C_23  and  O_36
REMARK    9  A    between atoms: C_25  and  O_35
REMARK   10  A    between atoms: C_27  and  O_34
REMARK   11  A    between atoms: C_29  and  C_32
REMARK   12  A    between atoms: C_32  and  O_33
REMARK                            x       y       z     vdW  Elec       q    Type
REMARK                         _______ _______ _______ _____ _____    ______ ____
ROOT
ATOM      1  C   UNL     1       9.070  -1.444  22.206  0.00  0.00    +0.015 A 
ATOM      2  C   UNL     1       7.739  -1.263  22.631  0.00  0.00    +0.025 A 
ATOM      3  C   UNL     1       7.186   0.019  22.514  0.00  0.00    +0.061 A 
ATOM      4  C   UNL     1       7.975   1.106  22.158  0.00  0.00    +0.166 A 
ATOM      5  C   UNL     1       9.312   0.910  21.806  0.00  0.00    +0.159 A 
ATOM      6  C   UNL     1       9.861  -0.363  21.805  0.00  0.00    +0.050 A 
ENDROOT
BRANCH   2   7
ATOM      7  C   UNL     1       6.921  -2.350  23.235  0.00  0.00    +0.181 A 
ATOM      8  O   UNL     1       7.397  -2.780  24.476  0.00  0.00    -0.451 OA
ATOM      9  C   UNL     1       6.847  -3.899  25.051  0.00  0.00    +0.147 A 
ATOM     10  C   UNL     1       5.717  -4.526  24.538  0.00  0.00    +0.109 A 
ATOM     11  C   UNL     1       5.176  -5.645  25.180  0.00  0.00    +0.135 A 
ATOM     12  C   UNL     1       5.765  -6.145  26.336  0.00  0.00    +0.091 A 
ATOM     13  C   UNL     1       6.906  -5.524  26.834  0.00  0.00    +0.124 A 
ATOM     14  C   UNL     1       5.142  -4.012  23.295  0.00  0.00    +0.238 A 
ATOM     15  O   UNL     1       4.113  -4.513  22.846  0.00  0.00    -0.283 OA
ATOM     16  C   UNL     1       7.452  -4.406  26.202  0.00  0.00    +0.092 A 
ATOM     17  C   UNL     1       5.875  -2.925  22.599  0.00  0.00    +0.208 A 
BRANCH  11  18
ATOM     18  O   UNL     1       4.067  -6.305  24.721  0.00  0.00    -0.506 OA
ATOM     19  H   UNL     1       3.700  -6.836  25.466  0.00  0.00    +0.292 HD
ENDBRANCH  11  18
BRANCH  13  20
ATOM     20  O   UNL     1       7.523  -5.990  27.959  0.00  0.00    -0.507 OA
ATOM     21  H   UNL     1       8.360  -6.412  27.703  0.00  0.00    +0.292 HD
ENDBRANCH  13  20
BRANCH  17  22
ATOM     22  O   UNL     1       5.464  -2.627  21.315  0.00  0.00    -0.501 OA
ATOM     23  H   UNL     1       6.026  -3.126  20.699  0.00  0.00    +0.292 HD
ENDBRANCH  17  22
ENDBRANCH   2   7
BRANCH   5  24
ATOM     24  O   UNL     1      10.077   1.997  21.472  0.00  0.00    -0.503 OA
ATOM     25  H   UNL     1      10.977   1.705  21.267  0.00  0.00    +0.292 HD
ENDBRANCH   5  24
BRANCH   4  26
ATOM     26  O   UNL     1       7.528   2.380  22.090  0.00  0.00    -0.457 OA
BRANCH  26  27
ATOM     27  C   UNL     1       7.515   3.229  23.229  0.00  0.00    +0.339 C 
ATOM     28  O   UNL     1       8.474   2.869  24.227  0.00  0.00    -0.331 OA
ATOM     29  C   UNL     1       8.142   3.354  25.544  0.00  0.00    +0.179 C 
ATOM     30  C   UNL     1       7.798   4.868  25.566  0.00  0.00    +0.177 C 
ATOM     31  C   UNL     1       6.956   5.356  24.365  0.00  0.00    +0.180 C 
ATOM     32  C   UNL     1       7.475   4.761  23.037  0.00  0.00    +0.214 C 
BRANCH  30  33
ATOM     33  O   UNL     1       9.052   5.580  25.542  0.00  0.00    -0.386 OA
ATOM     34  H   UNL     1       8.858   6.518  25.734  0.00  0.00    +0.210 HD
ENDBRANCH  30  33
BRANCH  31  35
ATOM     35  O   UNL     1       5.564   5.095  24.554  0.00  0.00    -0.386 OA
ATOM     36  H   UNL     1       5.178   5.771  25.152  0.00  0.00    +0.210 HD
ENDBRANCH  31  35
BRANCH  32  37
ATOM     37  O   UNL     1       8.765   5.333  22.754  0.00  0.00    -0.383 OA
ATOM     38  H   UNL     1       8.687   5.810  21.900  0.00  0.00    +0.210 HD
ENDBRANCH  32  37
BRANCH  29  39
ATOM     39  C   UNL     1       7.094   2.442  26.205  0.00  0.00    +0.190 C 
BRANCH  39  40
ATOM     40  O   UNL     1       7.454   2.053  27.529  0.00  0.00    -0.392 OA
ATOM     41  H   UNL     1       6.669   2.234  28.087  0.00  0.00    +0.210 HD
ENDBRANCH  39  40
ENDBRANCH  29  39
ENDBRANCH  26  27
ENDBRANCH   4  26
TORSDOF 12
ENDMDL
MODEL 8
REMARK VINA RESULT:      -7.7      1.769      8.835
REMARK  Name = 
REMARK  12 active torsions:
REMARK  status: ('A' for Active; 'I' for Inactive)
REMARK    1  A    between atoms: C_3  and  O_37
REMARK    2  A    between atoms: C_4  and  O_21
REMARK    3  A    between atoms: C_6  and  C_7
REMARK    4  A    between atoms: C_8  and  O_20
REMARK    5  A    between atoms: C_12  and  O_19
REMARK    6  A    between atoms: C_14  and  O_18
REMARK    7  A    between atoms: O_21  and  C_22
REMARK    8  A    between atoms: C_23  and  O_36
REMARK    9  A    between atoms: C_25  and  O_35
REMARK   10  A    between atoms: C_27  and  O_34
REMARK   11  A    between atoms: C_29  and  C_32
REMARK   12  A    between atoms: C_32  and  O_33
REMARK                            x       y       z     vdW  Elec       q    Type
REMARK                         _______ _______ _______ _____ _____    ______ ____
ROOT
ATOM      1  C   UNL     1       9.871  -0.901  22.772  0.00  0.00    +0.015 A 
ATOM      2  C   UNL     1       9.047  -0.134  23.618  0.00  0.00    +0.025 A 
ATOM      3  C   UNL     1       8.662  -0.698  24.842  0.00  0.00    +0.061 A 
ATOM      4  C   UNL     1       8.940  -2.029  25.131  0.00  0.00    +0.166 A 
ATOM      5  C   UNL     1       9.703  -2.790  24.244  0.00  0.00    +0.159 A 
ATOM      6  C   UNL     1      10.192  -2.228  23.074  0.00  0.00    +0.050 A 
ENDROOT
BRANCH   2   7
ATOM      7  C   UNL     1       8.532   1.215  23.252  0.00  0.00    +0.181 A 
ATOM      8  O   UNL     1       9.428   2.247  23.535  0.00  0.00    -0.451 OA
ATOM      9  C   UNL     1       9.004   3.549  23.422  0.00  0.00    +0.147 A 
ATOM     10  C   UNL     1       7.776   3.891  22.868  0.00  0.00    +0.109 A 
ATOM     11  C   UNL     1       7.405   5.234  22.744  0.00  0.00    +0.135 A 
ATOM     12  C   UNL     1       8.259   6.242  23.178  0.00  0.00    +0.091 A 
ATOM     13  C   UNL     1       9.480   5.892  23.747  0.00  0.00    +0.124 A 
ATOM     14  C   UNL     1       6.873   2.813  22.462  0.00  0.00    +0.238 A 
ATOM     15  O   UNL     1       5.803   3.085  21.921  0.00  0.00    -0.283 OA
ATOM     16  C   UNL     1       9.860   4.556  23.873  0.00  0.00    +0.092 A 
ATOM     17  C   UNL     1       7.282   1.421  22.778  0.00  0.00    +0.208 A 
BRANCH  11  18
ATOM     18  O   UNL     1       6.208   5.631  22.209  0.00  0.00    -0.506 OA
ATOM     19  H   UNL     1       6.253   6.603  22.054  0.00  0.00    +0.292 HD
ENDBRANCH  11  18
BRANCH  13  20
ATOM     20  O   UNL     1      10.342   6.850  24.197  0.00  0.00    -0.507 OA
ATOM     21  H   UNL     1      11.225   6.455  24.289  0.00  0.00    +0.292 HD
ENDBRANCH  13  20
BRANCH  17  22
ATOM     22  O   UNL     1       6.319   0.445  22.621  0.00  0.00    -0.501 OA
ATOM     23  H   UNL     1       6.051   0.145  23.505  0.00  0.00    +0.292 HD
ENDBRANCH  17  22
ENDBRANCH   2   7
BRANCH   5  24
ATOM     24  O   UNL     1       9.953  -4.105  24.541  0.00  0.00    -0.503 OA
ATOM     25  H   UNL     1       9.272  -4.660  24.135  0.00  0.00    +0.292 HD
ENDBRANCH   5  24
BRANCH   4  26
ATOM     26  O   UNL     1       8.544  -2.660  26.260  0.00  0.00    -0.457 OA
BRANCH  26  27
ATOM     27  C   UNL     1       7.368  -3.457  26.297  0.00  0.00    +0.339 C 
ATOM     28  O   UNL     1       6.793  -3.696  25.009  0.00  0.00    -0.331 OA
ATOM     29  C   UNL     1       5.391  -4.030  25.059  0.00  0.00    +0.179 C 
ATOM     30  C   UNL     1       5.070  -5.159  26.075  0.00  0.00    +0.177 C 
ATOM     31  C   UNL     1       5.858  -5.076  27.403  0.00  0.00    +0.180 C 
ATOM     32  C   UNL     1       7.345  -4.741  27.153  0.00  0.00    +0.214 C 
BRANCH  30  33
ATOM     33  O   UNL     1       5.417  -6.404  25.436  0.00  0.00    -0.386 OA
ATOM     34  H   UNL     1       6.352  -6.339  25.159  0.00  0.00    +0.210 HD
ENDBRANCH  30  33
BRANCH  31  35
ATOM     35  O   UNL     1       5.255  -4.159  28.318  0.00  0.00    -0.386 OA
ATOM     36  H   UNL     1       5.794  -3.340  28.370  0.00  0.00    +0.210 HD
ENDBRANCH  31  35
BRANCH  32  37
ATOM     37  O   UNL     1       7.964  -5.868  26.505  0.00  0.00    -0.383 OA
ATOM     38  H   UNL     1       7.710  -6.667  27.014  0.00  0.00    +0.210 HD
ENDBRANCH  32  37
BRANCH  29  39
ATOM     39  C   UNL     1       4.540  -2.757  25.215  0.00  0.00    +0.190 C 
BRANCH  39  40
ATOM     40  O   UNL     1       5.038  -1.661  24.451  0.00  0.00    -0.392 OA
ATOM     41  H   UNL     1       5.262  -0.960  25.099  0.00  0.00    +0.210 HD
ENDBRANCH  39  40
ENDBRANCH  29  39
ENDBRANCH  26  27
ENDBRANCH   4  26
TORSDOF 12
ENDMDL
MODEL 9
REMARK VINA RESULT:      -7.7      2.700      3.684
REMARK  Name = 
REMARK  12 active torsions:
REMARK  status: ('A' for Active; 'I' for Inactive)
REMARK    1  A    between atoms: C_3  and  O_37
REMARK    2  A    between atoms: C_4  and  O_21
REMARK    3  A    between atoms: C_6  and  C_7
REMARK    4  A    between atoms: C_8  and  O_20
REMARK    5  A    between atoms: C_12  and  O_19
REMARK    6  A    between atoms: C_14  and  O_18
REMARK    7  A    between atoms: O_21  and  C_22
REMARK    8  A    between atoms: C_23  and  O_36
REMARK    9  A    between atoms: C_25  and  O_35
REMARK   10  A    between atoms: C_27  and  O_34
REMARK   11  A    between atoms: C_29  and  C_32
REMARK   12  A    between atoms: C_32  and  O_33
REMARK                            x       y       z     vdW  Elec       q    Type
REMARK                         _______ _______ _______ _____ _____    ______ ____
ROOT
ATOM      1  C   UNL     1       9.323  -2.558  23.473  0.00  0.00    +0.015 A 
ATOM      2  C   UNL     1       8.013  -2.347  23.946  0.00  0.00    +0.025 A 
ATOM      3  C   UNL     1       7.681  -1.063  24.398  0.00  0.00    +0.061 A 
ATOM      4  C   UNL     1       8.657  -0.083  24.537  0.00  0.00    +0.166 A 
ATOM      5  C   UNL     1       9.966  -0.340  24.123  0.00  0.00    +0.159 A 
ATOM      6  C   UNL     1      10.302  -1.565  23.569  0.00  0.00    +0.050 A 
ENDROOT
BRANCH   2   7
ATOM      7  C   UNL     1       6.991  -3.428  24.030  0.00  0.00    +0.181 A 
ATOM      8  O   UNL     1       6.830  -3.940  25.319  0.00  0.00    -0.451 OA
ATOM      9  C   UNL     1       6.061  -5.063  25.500  0.00  0.00    +0.147 A 
ATOM     10  C   UNL     1       5.290  -5.614  24.482  0.00  0.00    +0.109 A 
ATOM     11  C   UNL     1       4.497  -6.740  24.727  0.00  0.00    +0.135 A 
ATOM     12  C   UNL     1       4.474  -7.324  25.988  0.00  0.00    +0.091 A 
ATOM     13  C   UNL     1       5.262  -6.778  26.998  0.00  0.00    +0.124 A 
ATOM     14  C   UNL     1       5.365  -5.012  23.151  0.00  0.00    +0.238 A 
ATOM     15  O   UNL     1       4.656  -5.445  22.245  0.00  0.00    -0.283 OA
ATOM     16  C   UNL     1       6.054  -5.654  26.765  0.00  0.00    +0.092 A 
ATOM     17  C   UNL     1       6.353  -3.924  22.946  0.00  0.00    +0.208 A 
BRANCH  11  18
ATOM     18  O   UNL     1       3.718  -7.328  23.764  0.00  0.00    -0.506 OA
ATOM     19  H   UNL     1       3.075  -7.922  24.216  0.00  0.00    +0.292 HD
ENDBRANCH  11  18
BRANCH  13  20
ATOM     20  O   UNL     1       5.278  -7.327  28.247  0.00  0.00    -0.507 OA
ATOM     21  H   UNL     1       6.045  -7.920  28.317  0.00  0.00    +0.292 HD
ENDBRANCH  13  20
BRANCH  17  22
ATOM     22  O   UNL     1       6.590  -3.543  21.640  0.00  0.00    -0.501 OA
ATOM     23  H   UNL     1       7.307  -4.100  21.293  0.00  0.00    +0.292 HD
ENDBRANCH  17  22
ENDBRANCH   2   7
BRANCH   5  24
ATOM     24  O   UNL     1      10.916   0.635  24.284  0.00  0.00    -0.503 OA
ATOM     25  H   UNL     1      11.682   0.263  24.744  0.00  0.00    +0.292 HD
ENDBRANCH   5  24
BRANCH   4  26
ATOM     26  O   UNL     1       8.426   1.155  25.029  0.00  0.00    -0.457 OA
BRANCH  26  27
ATOM     27  C   UNL     1       7.819   2.170  24.241  0.00  0.00    +0.339 C 
ATOM     28  O   UNL     1       8.060   3.495  24.723  0.00  0.00    -0.331 OA
ATOM     29  C   UNL     1       7.077   4.454  24.283  0.00  0.00    +0.179 C 
ATOM     30  C   UNL     1       6.829   4.412  22.751  0.00  0.00    +0.177 C 
ATOM     31  C   UNL     1       6.801   2.992  22.140  0.00  0.00    +0.180 C 
ATOM     32  C   UNL     1       7.943   2.117  22.703  0.00  0.00    +0.214 C 
BRANCH  30  33
ATOM     33  O   UNL     1       7.914   5.134  22.134  0.00  0.00    -0.386 OA
ATOM     34  H   UNL     1       7.534   5.665  21.407  0.00  0.00    +0.210 HD
ENDBRANCH  30  33
BRANCH  31  35
ATOM     35  O   UNL     1       5.526   2.370  22.306  0.00  0.00    -0.386 OA
ATOM     36  H   UNL     1       4.831   3.057  22.395  0.00  0.00    +0.210 HD
ENDBRANCH  31  35
BRANCH  32  37
ATOM     37  O   UNL     1       9.196   2.631  22.215  0.00  0.00    -0.383 OA
ATOM     38  H   UNL     1       9.199   2.505  21.242  0.00  0.00    +0.210 HD
ENDBRANCH  32  37
BRANCH  29  39
ATOM     39  C   UNL     1       5.807   4.358  25.148  0.00  0.00    +0.190 C 
BRANCH  39  40
ATOM     40  O   UNL     1       4.608   4.389  24.377  0.00  0.00    -0.392 OA
ATOM     41  H   UNL     1       4.751   3.769  23.631  0.00  0.00    +0.210 HD
ENDBRANCH  39  40
ENDBRANCH  29  39
ENDBRANCH  26  27
ENDBRANCH   4  26
TORSDOF 12
ENDMDL
