MODEL 1
REMARK VINA RESULT:      -6.5      0.000      0.000
REMARK  Name = 
REMARK  24 active torsions:
REMARK  status: ('A' for Active; 'I' for Inactive)
REMARK    1  A    between atoms: C_3  and  O_44
REMARK    2  A    between atoms: C_4  and  O_43
REMARK    3  A    between atoms: C_6  and  C_7
REMARK    4  A    between atoms: C_8  and  O_31
REMARK    5  A    between atoms: C_12  and  O_30
REMARK    6  A    between atoms: C_14  and  O_18
REMARK    7  A    between atoms: O_18  and  C_19
REMARK    8  A    between atoms: C_20  and  O_29
REMARK    9  A    between atoms: C_21  and  O_28
REMARK   10  A    between atoms: C_22  and  O_27
REMARK   11  A    between atoms: C_23  and  C_25
REMARK   12  A    between atoms: C_25  and  O_26
REMARK   13  A    between atoms: O_31  and  C_32
REMARK   14  A    between atoms: C_33  and  O_42
REMARK   15  A    between atoms: C_34  and  O_41
REMARK   16  A    between atoms: C_35  and  O_40
REMARK   17  A    between atoms: C_36  and  C_38
REMARK   18  A    between atoms: C_38  and  O_39
REMARK   19  A    between atoms: O_44  and  C_45
REMARK   20  A    between atoms: C_46  and  O_55
REMARK   21  A    between atoms: C_47  and  O_54
REMARK   22  A    between atoms: C_48  and  O_53
REMARK   23  A    between atoms: C_49  and  C_51
REMARK   24  A    between atoms: C_51  and  O_52
REMARK                            x       y       z     vdW  Elec       q    Type
REMARK                         _______ _______ _______ _____ _____    ______ ____
ROOT
ATOM      1  C   UNL     1       7.131   0.694  24.632  0.00  0.00    +0.181 A 
ATOM      2  O   UNL     1       6.409  -0.483  24.565  0.00  0.00    -0.451 OA
ATOM      3  C   UNL     1       7.102  -1.660  24.374  0.00  0.00    +0.147 A 
ATOM      4  C   UNL     1       8.472  -1.718  24.166  0.00  0.00    +0.109 A 
ATOM      5  C   UNL     1       9.064  -2.984  23.953  0.00  0.00    +0.135 A 
ATOM      6  C   UNL     1       8.314  -4.163  24.040  0.00  0.00    +0.092 A 
ATOM      7  C   UNL     1       6.957  -4.099  24.338  0.00  0.00    +0.131 A 
ATOM      8  C   UNL     1       9.229  -0.453  24.230  0.00  0.00    +0.238 A 
ATOM      9  O   UNL     1      10.437  -0.443  24.029  0.00  0.00    -0.283 OA
ATOM     10  C   UNL     1       6.343  -2.838  24.422  0.00  0.00    +0.093 A 
ATOM     11  C   UNL     1       8.463   0.801  24.538  0.00  0.00    +0.214 A 
ENDROOT
BRANCH   1  13
ATOM     12  C   UNL     1       5.470   2.364  23.808  0.00  0.00    +0.015 A 
ATOM     13  C   UNL     1       6.331   1.924  24.826  0.00  0.00    +0.025 A 
ATOM     14  C   UNL     1       6.550   2.762  25.919  0.00  0.00    +0.060 A 
ATOM     15  C   UNL     1       6.017   4.057  25.930  0.00  0.00    +0.159 A 
ATOM     16  C   UNL     1       5.289   4.562  24.843  0.00  0.00    +0.165 A 
ATOM     17  C   UNL     1       4.957   3.670  23.820  0.00  0.00    +0.050 A 
BRANCH  15  18
ATOM     18  O   UNL     1       6.253   4.826  27.035  0.00  0.00    -0.503 OA
ATOM     19  H   UNL     1       6.401   5.730  26.698  0.00  0.00    +0.292 HD
ENDBRANCH  15  18
BRANCH  16  20
ATOM     20  O   UNL     1       4.948   5.907  24.850  0.00  0.00    -0.457 OA
BRANCH  20  21
ATOM     21  C   UNL     1       3.603   6.183  25.328  0.00  0.00    +0.339 C 
ATOM     22  O   UNL     1       3.234   5.317  26.421  0.00  0.00    -0.331 OA
ATOM     23  C   UNL     1       2.376   4.205  26.144  0.00  0.00    +0.179 C 
ATOM     24  C   UNL     1       1.128   4.657  25.379  0.00  0.00    +0.177 C 
ATOM     25  C   UNL     1       1.585   5.157  24.026  0.00  0.00    +0.180 C 
ATOM     26  C   UNL     1       2.556   6.328  24.178  0.00  0.00    +0.214 C 
BRANCH  26  27
ATOM     27  O   UNL     1       3.159   6.607  22.903  0.00  0.00    -0.383 OA
ATOM     28  H   UNL     1       4.036   6.177  22.907  0.00  0.00    +0.210 HD
ENDBRANCH  26  27
BRANCH  25  29
ATOM     29  O   UNL     1       0.443   5.613  23.274  0.00  0.00    -0.386 OA
ATOM     30  H   UNL     1       0.753   6.415  22.799  0.00  0.00    +0.210 HD
ENDBRANCH  25  29
BRANCH  24  31
ATOM     31  O   UNL     1       0.443   5.750  26.018  0.00  0.00    -0.386 OA
ATOM     32  H   UNL     1       0.767   6.573  25.587  0.00  0.00    +0.210 HD
ENDBRANCH  24  31
BRANCH  23  33
ATOM     33  C   UNL     1       1.966   3.575  27.484  0.00  0.00    +0.190 C 
BRANCH  33  34
ATOM     34  O   UNL     1       1.673   4.601  28.439  0.00  0.00    -0.392 OA
ATOM     35  H   UNL     1       1.746   4.165  29.313  0.00  0.00    +0.210 HD
ENDBRANCH  33  34
ENDBRANCH  23  33
ENDBRANCH  20  21
ENDBRANCH  16  20
ENDBRANCH   1  13
BRANCH   5  36
ATOM     36  O   UNL     1      10.399  -3.145  23.671  0.00  0.00    -0.506 OA
ATOM     37  H   UNL     1      10.487  -3.570  22.785  0.00  0.00    +0.292 HD
ENDBRANCH   5  36
BRANCH  11  38
ATOM     38  O   UNL     1       9.075   2.050  24.464  0.00  0.00    -0.453 OA
BRANCH  38  39
ATOM     39  C   UNL     1       9.940   2.345  23.358  0.00  0.00    +0.340 C 
ATOM     40  O   UNL     1      11.077   3.135  23.766  0.00  0.00    -0.331 OA
ATOM     41  C   UNL     1      10.861   4.521  24.130  0.00  0.00    +0.179 C 
ATOM     42  C   UNL     1       9.556   5.223  23.655  0.00  0.00    +0.177 C 
ATOM     43  C   UNL     1       8.473   4.291  23.093  0.00  0.00    +0.180 C 
ATOM     44  C   UNL     1       9.173   3.166  22.311  0.00  0.00    +0.214 C 
BRANCH  44  45
ATOM     45  O   UNL     1       8.296   2.398  21.498  0.00  0.00    -0.383 OA
ATOM     46  H   UNL     1       8.744   2.156  20.661  0.00  0.00    +0.210 HD
ENDBRANCH  44  45
BRANCH  43  47
ATOM     47  O   UNL     1       7.591   5.046  22.254  0.00  0.00    -0.386 OA
ATOM     48  H   UNL     1       8.111   5.774  21.863  0.00  0.00    +0.210 HD
ENDBRANCH  43  47
BRANCH  42  49
ATOM     49  O   UNL     1       9.831   6.235  22.662  0.00  0.00    -0.386 OA
ATOM     50  H   UNL     1       9.033   6.797  22.573  0.00  0.00    +0.210 HD
ENDBRANCH  42  49
BRANCH  41  51
ATOM     51  C   UNL     1      12.100   5.313  23.636  0.00  0.00    +0.190 C 
BRANCH  51  52
ATOM     52  O   UNL     1      12.365   5.076  22.256  0.00  0.00    -0.392 OA
ATOM     53  H   UNL     1      12.907   4.265  22.220  0.00  0.00    +0.210 HD
ENDBRANCH  51  52
ENDBRANCH  41  51
ENDBRANCH  38  39
ENDBRANCH  11  38
BRANCH   7  54
ATOM     54  O   UNL     1       6.302  -5.302  24.579  0.00  0.00    -0.461 OA
BRANCH  54  55
ATOM     55  C   UNL     1       4.869  -5.168  24.679  0.00  0.00    +0.339 C 
ATOM     56  O   UNL     1       4.432  -5.351  26.038  0.00  0.00    -0.331 OA
ATOM     57  C   UNL     1       4.541  -6.726  26.452  0.00  0.00    +0.179 C 
ATOM     58  C   UNL     1       3.396  -7.452  25.745  0.00  0.00    +0.177 C 
ATOM     59  C   UNL     1       3.703  -7.450  24.246  0.00  0.00    +0.180 C 
ATOM     60  C   UNL     1       4.031  -6.051  23.709  0.00  0.00    +0.214 C 
BRANCH  60  61
ATOM     61  O   UNL     1       4.615  -6.105  22.404  0.00  0.00    -0.383 OA
ATOM     62  H   UNL     1       5.137  -6.927  22.344  0.00  0.00    +0.210 HD
ENDBRANCH  60  61
BRANCH  59  63
ATOM     63  O   UNL     1       2.551  -7.965  23.544  0.00  0.00    -0.386 OA
ATOM     64  H   UNL     1       2.426  -7.383  22.765  0.00  0.00    +0.210 HD
ENDBRANCH  59  63
BRANCH  58  65
ATOM     65  O   UNL     1       2.146  -6.757  25.964  0.00  0.00    -0.386 OA
ATOM     66  H   UNL     1       2.240  -6.274  26.816  0.00  0.00    +0.210 HD
ENDBRANCH  58  65
BRANCH  57  67
ATOM     67  C   UNL     1       4.444  -6.798  27.979  0.00  0.00    +0.190 C 
BRANCH  67  68
ATOM     68  O   UNL     1       5.499  -7.602  28.513  0.00  0.00    -0.392 OA
ATOM     69  H   UNL     1       6.087  -7.863  27.783  0.00  0.00    +0.210 HD
ENDBRANCH  67  68
ENDBRANCH  57  67
ENDBRANCH  54  55
ENDBRANCH   7  54
TORSDOF 24
ENDMDL
MODEL 2
REMARK VINA RESULT:      -6.4      1.530      2.394
REMARK  Name = 
REMARK  24 active torsions:
REMARK  status: ('A' for Active; 'I' for Inactive)
REMARK    1  A    between atoms: C_3  and  O_44
REMARK    2  A    between atoms: C_4  and  O_43
REMARK    3  A    between atoms: C_6  and  C_7
REMARK    4  A    between atoms: C_8  and  O_31
REMARK    5  A    between atoms: C_12  and  O_30
REMARK    6  A    between atoms: C_14  and  O_18
REMARK    7  A    between atoms: O_18  and  C_19
REMARK    8  A    between atoms: C_20  and  O_29
REMARK    9  A    between atoms: C_21  and  O_28
REMARK   10  A    between atoms: C_22  and  O_27
REMARK   11  A    between atoms: C_23  and  C_25
REMARK   12  A    between atoms: C_25  and  O_26
REMARK   13  A    between atoms: O_31  and  C_32
REMARK   14  A    between atoms: C_33  and  O_42
REMARK   15  A    between atoms: C_34  and  O_41
REMARK   16  A    between atoms: C_35  and  O_40
REMARK   17  A    between atoms: C_36  and  C_38
REMARK   18  A    between atoms: C_38  and  O_39
REMARK   19  A    between atoms: O_44  and  C_45
REMARK   20  A    between atoms: C_46  and  O_55
REMARK   21  A    between atoms: C_47  and  O_54
REMARK   22  A    between atoms: C_48  and  O_53
REMARK   23  A    between atoms: C_49  and  C_51
REMARK   24  A    between atoms: C_51  and  O_52
REMARK                            x       y       z     vdW  Elec       q    Type
REMARK                         _______ _______ _______ _____ _____    ______ ____
ROOT
ATOM      1  C   UNL     1       7.523   0.806  25.066  0.00  0.00    +0.181 A 
ATOM      2  O   UNL     1       6.774  -0.357  25.062  0.00  0.00    -0.451 OA
ATOM      3  C   UNL     1       7.399  -1.531  24.699  0.00  0.00    +0.147 A 
ATOM      4  C   UNL     1       8.715  -1.596  24.263  0.00  0.00    +0.109 A 
ATOM      5  C   UNL     1       9.235  -2.856  23.891  0.00  0.00    +0.135 A 
ATOM      6  C   UNL     1       8.485  -4.028  24.043  0.00  0.00    +0.092 A 
ATOM      7  C   UNL     1       7.197  -3.962  24.566  0.00  0.00    +0.131 A 
ATOM      8  C   UNL     1       9.498  -0.346  24.263  0.00  0.00    +0.238 A 
ATOM      9  O   UNL     1      10.657  -0.341  23.863  0.00  0.00    -0.283 OA
ATOM     10  C   UNL     1       6.634  -2.700  24.815  0.00  0.00    +0.093 A 
ATOM     11  C   UNL     1       8.822   0.900  24.757  0.00  0.00    +0.214 A 
ENDROOT
BRANCH   1  13
ATOM     12  C   UNL     1       7.234   2.793  26.548  0.00  0.00    +0.015 A 
ATOM     13  C   UNL     1       6.793   2.034  25.453  0.00  0.00    +0.025 A 
ATOM     14  C   UNL     1       5.566   2.356  24.873  0.00  0.00    +0.060 A 
ATOM     15  C   UNL     1       4.748   3.334  25.454  0.00  0.00    +0.159 A 
ATOM     16  C   UNL     1       5.111   3.984  26.643  0.00  0.00    +0.165 A 
ATOM     17  C   UNL     1       6.399   3.756  27.134  0.00  0.00    +0.050 A 
BRANCH  15  18
ATOM     18  O   UNL     1       3.564   3.615  24.833  0.00  0.00    -0.503 OA
ATOM     19  H   UNL     1       3.072   2.773  24.812  0.00  0.00    +0.292 HD
ENDBRANCH  15  18
BRANCH  16  20
ATOM     20  O   UNL     1       4.174   4.804  27.254  0.00  0.00    -0.457 OA
BRANCH  20  21
ATOM     21  C   UNL     1       3.435   4.170  28.334  0.00  0.00    +0.339 C 
ATOM     22  O   UNL     1       4.244   3.213  29.048  0.00  0.00    -0.331 OA
ATOM     23  C   UNL     1       4.057   1.822  28.765  0.00  0.00    +0.179 C 
ATOM     24  C   UNL     1       2.575   1.442  28.860  0.00  0.00    +0.177 C 
ATOM     25  C   UNL     1       1.849   2.177  27.754  0.00  0.00    +0.180 C 
ATOM     26  C   UNL     1       2.011   3.690  27.910  0.00  0.00    +0.214 C 
BRANCH  26  27
ATOM     27  O   UNL     1       1.533   4.337  26.718  0.00  0.00    -0.383 OA
ATOM     28  H   UNL     1       1.063   5.144  27.006  0.00  0.00    +0.210 HD
ENDBRANCH  26  27
BRANCH  25  29
ATOM     29  O   UNL     1       0.444   1.864  27.814  0.00  0.00    -0.386 OA
ATOM     30  H   UNL     1       0.085   2.132  26.940  0.00  0.00    +0.210 HD
ENDBRANCH  25  29
BRANCH  24  31
ATOM     31  O   UNL     1       1.970   1.850  30.100  0.00  0.00    -0.386 OA
ATOM     32  H   UNL     1       1.001   1.893  29.937  0.00  0.00    +0.210 HD
ENDBRANCH  24  31
BRANCH  23  33
ATOM     33  C   UNL     1       4.869   1.014  29.789  0.00  0.00    +0.190 C 
BRANCH  33  34
ATOM     34  O   UNL     1       4.214  -0.231  30.062  0.00  0.00    -0.392 OA
ATOM     35  H   UNL     1       4.783  -0.913  29.651  0.00  0.00    +0.210 HD
ENDBRANCH  33  34
ENDBRANCH  23  33
ENDBRANCH  20  21
ENDBRANCH  16  20
ENDBRANCH   1  13
BRANCH   5  36
ATOM     36  O   UNL     1      10.501  -3.020  23.382  0.00  0.00    -0.506 OA
ATOM     37  H   UNL     1      10.495  -2.764  22.429  0.00  0.00    +0.292 HD
ENDBRANCH   5  36
BRANCH  11  38
ATOM     38  O   UNL     1       9.441   2.143  24.644  0.00  0.00    -0.453 OA
BRANCH  38  39
ATOM     39  C   UNL     1      10.007   2.536  23.385  0.00  0.00    +0.340 C 
ATOM     40  O   UNL     1      11.166   3.376  23.561  0.00  0.00    -0.331 OA
ATOM     41  C   UNL     1      10.973   4.730  24.040  0.00  0.00    +0.179 C 
ATOM     42  C   UNL     1       9.560   5.370  23.919  0.00  0.00    +0.177 C 
ATOM     43  C   UNL     1       8.423   4.397  23.574  0.00  0.00    +0.180 C 
ATOM     44  C   UNL     1       8.975   3.351  22.591  0.00  0.00    +0.214 C 
BRANCH  44  45
ATOM     45  O   UNL     1       7.971   2.565  21.962  0.00  0.00    -0.383 OA
ATOM     46  H   UNL     1       7.300   2.292  22.621  0.00  0.00    +0.210 HD
ENDBRANCH  44  45
BRANCH  43  47
ATOM     47  O   UNL     1       7.333   5.132  23.004  0.00  0.00    -0.386 OA
ATOM     48  H   UNL     1       7.456   6.070  23.240  0.00  0.00    +0.210 HD
ENDBRANCH  43  47
BRANCH  42  49
ATOM     49  O   UNL     1       9.543   6.437  22.946  0.00  0.00    -0.386 OA
ATOM     50  H   UNL     1      10.140   6.186  22.210  0.00  0.00    +0.210 HD
ENDBRANCH  42  49
BRANCH  41  51
ATOM     51  C   UNL     1      12.020   5.617  23.316  0.00  0.00    +0.190 C 
BRANCH  51  52
ATOM     52  O   UNL     1      13.345   5.117  23.483  0.00  0.00    -0.392 OA
ATOM     53  H   UNL     1      13.250   4.189  23.770  0.00  0.00    +0.210 HD
ENDBRANCH  51  52
ENDBRANCH  41  51
ENDBRANCH  38  39
ENDBRANCH  11  38
BRANCH   7  54
ATOM     54  O   UNL     1       6.566  -5.168  24.853  0.00  0.00    -0.461 OA
BRANCH  54  55
ATOM     55  C   UNL     1       5.126  -5.074  24.870  0.00  0.00    +0.339 C 
ATOM     56  O   UNL     1       4.618  -5.253  26.205  0.00  0.00    -0.331 OA
ATOM     57  C   UNL     1       4.742  -6.619  26.643  0.00  0.00    +0.179 C 
ATOM     58  C   UNL     1       3.659  -7.386  25.883  0.00  0.00    +0.177 C 
ATOM     59  C   UNL     1       4.051  -7.394  24.404  0.00  0.00    +0.180 C 
ATOM     60  C   UNL     1       4.369  -5.992  23.867  0.00  0.00    +0.214 C 
BRANCH  60  61
ATOM     61  O   UNL     1       5.029  -6.046  22.598  0.00  0.00    -0.383 OA
ATOM     62  H   UNL     1       5.558  -6.864  22.569  0.00  0.00    +0.210 HD
ENDBRANCH  60  61
BRANCH  59  63
ATOM     63  O   UNL     1       2.956  -7.950  23.645  0.00  0.00    -0.386 OA
ATOM     64  H   UNL     1       3.337  -8.235  22.788  0.00  0.00    +0.210 HD
ENDBRANCH  59  63
BRANCH  58  65
ATOM     65  O   UNL     1       2.381  -6.725  26.021  0.00  0.00    -0.386 OA
ATOM     66  H   UNL     1       2.362  -6.337  26.925  0.00  0.00    +0.210 HD
ENDBRANCH  58  65
BRANCH  57  67
ATOM     67  C   UNL     1       4.561  -6.675  28.163  0.00  0.00    +0.190 C 
BRANCH  67  68
ATOM     68  O   UNL     1       5.467  -7.616  28.744  0.00  0.00    -0.392 OA
ATOM     69  H   UNL     1       5.461  -7.492  29.710  0.00  0.00    +0.210 HD
ENDBRANCH  67  68
ENDBRANCH  57  67
ENDBRANCH  54  55
ENDBRANCH   7  54
TORSDOF 24
ENDMDL
MODEL 3
REMARK VINA RESULT:      -6.4      3.286     10.682
REMARK  Name = 
REMARK  24 active torsions:
REMARK  status: ('A' for Active; 'I' for Inactive)
REMARK    1  A    between atoms: C_3  and  O_44
REMARK    2  A    between atoms: C_4  and  O_43
REMARK    3  A    between atoms: C_6  and  C_7
REMARK    4  A    between atoms: C_8  and  O_31
REMARK    5  A    between atoms: C_12  and  O_30
REMARK    6  A    between atoms: C_14  and  O_18
REMARK    7  A    between atoms: O_18  and  C_19
REMARK    8  A    between atoms: C_20  and  O_29
REMARK    9  A    between atoms: C_21  and  O_28
REMARK   10  A    between atoms: C_22  and  O_27
REMARK   11  A    between atoms: C_23  and  C_25
REMARK   12  A    between atoms: C_25  and  O_26
REMARK   13  A    between atoms: O_31  and  C_32
REMARK   14  A    between atoms: C_33  and  O_42
REMARK   15  A    between atoms: C_34  and  O_41
REMARK   16  A    between atoms: C_35  and  O_40
REMARK   17  A    between atoms: C_36  and  C_38
REMARK   18  A    between atoms: C_38  and  O_39
REMARK   19  A    between atoms: O_44  and  C_45
REMARK   20  A    between atoms: C_46  and  O_55
REMARK   21  A    between atoms: C_47  and  O_54
REMARK   22  A    between atoms: C_48  and  O_53
REMARK   23  A    between atoms: C_49  and  C_51
REMARK   24  A    between atoms: C_51  and  O_52
REMARK                            x       y       z     vdW  Elec       q    Type
REMARK                         _______ _______ _______ _____ _____    ______ ____
ROOT
ATOM      1  C   UNL     1       5.845  -1.281  25.049  0.00  0.00    +0.181 A 
ATOM      2  O   UNL     1       6.498  -0.062  25.081  0.00  0.00    -0.451 OA
ATOM      3  C   UNL     1       7.400   0.219  24.076  0.00  0.00    +0.147 A 
ATOM      4  C   UNL     1       7.745  -0.684  23.081  0.00  0.00    +0.109 A 
ATOM      5  C   UNL     1       8.704  -0.288  22.122  0.00  0.00    +0.135 A 
ATOM      6  C   UNL     1       9.230   1.009  22.109  0.00  0.00    +0.092 A 
ATOM      7  C   UNL     1       8.809   1.934  23.058  0.00  0.00    +0.131 A 
ATOM      8  C   UNL     1       7.047  -1.984  23.065  0.00  0.00    +0.238 A 
ATOM      9  O   UNL     1       7.331  -2.829  22.224  0.00  0.00    -0.283 OA
ATOM     10  C   UNL     1       7.955   1.506  24.087  0.00  0.00    +0.093 A 
ATOM     11  C   UNL     1       5.999  -2.226  24.112  0.00  0.00    +0.214 A 
ENDROOT
BRANCH   1  13
ATOM     12  C   UNL     1       5.302  -1.294  27.485  0.00  0.00    +0.015 A 
ATOM     13  C   UNL     1       4.900  -1.528  26.161  0.00  0.00    +0.025 A 
ATOM     14  C   UNL     1       3.680  -2.169  25.941  0.00  0.00    +0.060 A 
ATOM     15  C   UNL     1       2.944  -2.670  27.022  0.00  0.00    +0.159 A 
ATOM     16  C   UNL     1       3.420  -2.581  28.339  0.00  0.00    +0.165 A 
ATOM     17  C   UNL     1       4.568  -1.817  28.559  0.00  0.00    +0.050 A 
BRANCH  15  18
ATOM     18  O   UNL     1       1.750  -3.275  26.745  0.00  0.00    -0.503 OA
ATOM     19  H   UNL     1       1.781  -4.135  27.204  0.00  0.00    +0.292 HD
ENDBRANCH  15  18
BRANCH  16  20
ATOM     20  O   UNL     1       2.726  -3.257  29.333  0.00  0.00    -0.457 OA
BRANCH  20  21
ATOM     21  C   UNL     1       3.282  -4.557  29.674  0.00  0.00    +0.339 C 
ATOM     22  O   UNL     1       4.668  -4.665  29.292  0.00  0.00    -0.331 OA
ATOM     23  C   UNL     1       4.988  -5.391  28.101  0.00  0.00    +0.179 C 
ATOM     24  C   UNL     1       4.330  -6.776  28.114  0.00  0.00    +0.177 C 
ATOM     25  C   UNL     1       2.832  -6.563  28.064  0.00  0.00    +0.180 C 
ATOM     26  C   UNL     1       2.358  -5.749  29.268  0.00  0.00    +0.214 C 
BRANCH  26  27
ATOM     27  O   UNL     1       0.992  -5.354  29.059  0.00  0.00    -0.383 OA
ATOM     28  H   UNL     1       0.640  -5.925  28.348  0.00  0.00    +0.210 HD
ENDBRANCH  26  27
BRANCH  25  29
ATOM     29  O   UNL     1       2.168  -7.841  28.093  0.00  0.00    -0.386 OA
ATOM     30  H   UNL     1       2.150  -8.099  29.041  0.00  0.00    +0.210 HD
ENDBRANCH  25  29
BRANCH  24  31
ATOM     31  O   UNL     1       4.607  -7.517  29.316  0.00  0.00    -0.386 OA
ATOM     32  H   UNL     1       5.264  -8.207  29.073  0.00  0.00    +0.210 HD
ENDBRANCH  24  31
BRANCH  23  33
ATOM     33  C   UNL     1       6.516  -5.541  28.029  0.00  0.00    +0.190 C 
BRANCH  33  34
ATOM     34  O   UNL     1       6.902  -6.017  26.735  0.00  0.00    -0.392 OA
ATOM     35  H   UNL     1       6.156  -6.576  26.436  0.00  0.00    +0.210 HD
ENDBRANCH  33  34
ENDBRANCH  23  33
ENDBRANCH  20  21
ENDBRANCH  16  20
ENDBRANCH   1  13
BRANCH   5  36
ATOM     36  O   UNL     1       9.165  -1.130  21.138  0.00  0.00    -0.506 OA
ATOM     37  H   UNL     1       9.539  -0.585  20.405  0.00  0.00    +0.292 HD
ENDBRANCH   5  36
BRANCH  11  38
ATOM     38  O   UNL     1       5.408  -3.479  24.259  0.00  0.00    -0.453 OA
BRANCH  38  39
ATOM     39  C   UNL     1       4.359  -3.871  23.362  0.00  0.00    +0.340 C 
ATOM     40  O   UNL     1       3.183  -4.306  24.075  0.00  0.00    -0.331 OA
ATOM     41  C   UNL     1       3.229  -5.572  24.778  0.00  0.00    +0.179 C 
ATOM     42  C   UNL     1       4.326  -6.604  24.386  0.00  0.00    +0.177 C 
ATOM     43  C   UNL     1       5.451  -6.062  23.493  0.00  0.00    +0.180 C 
ATOM     44  C   UNL     1       4.831  -5.056  22.507  0.00  0.00    +0.214 C 
BRANCH  44  45
ATOM     45  O   UNL     1       5.693  -4.694  21.436  0.00  0.00    -0.383 OA
ATOM     46  H   UNL     1       6.541  -4.357  21.790  0.00  0.00    +0.210 HD
ENDBRANCH  44  45
BRANCH  43  47
ATOM     47  O   UNL     1       6.075  -7.155  22.808  0.00  0.00    -0.386 OA
ATOM     48  H   UNL     1       6.619  -6.779  22.090  0.00  0.00    +0.210 HD
ENDBRANCH  43  47
BRANCH  42  49
ATOM     49  O   UNL     1       3.758  -7.761  23.735  0.00  0.00    -0.386 OA
ATOM     50  H   UNL     1       3.911  -8.538  24.311  0.00  0.00    +0.210 HD
ENDBRANCH  42  49
BRANCH  41  51
ATOM     51  C   UNL     1       1.824  -6.215  24.638  0.00  0.00    +0.190 C 
BRANCH  51  52
ATOM     52  O   UNL     1       1.385  -6.240  23.282  0.00  0.00    -0.392 OA
ATOM     53  H   UNL     1       0.427  -6.054  23.304  0.00  0.00    +0.210 HD
ENDBRANCH  51  52
ENDBRANCH  41  51
ENDBRANCH  38  39
ENDBRANCH  11  38
BRANCH   7  54
ATOM     54  O   UNL     1       9.234   3.249  22.894  0.00  0.00    -0.461 OA
BRANCH  54  55
ATOM     55  C   UNL     1       9.724   3.852  24.110  0.00  0.00    +0.339 C 
ATOM     56  O   UNL     1       8.824   4.877  24.570  0.00  0.00    -0.331 OA
ATOM     57  C   UNL     1       8.870   6.043  23.727  0.00  0.00    +0.179 C 
ATOM     58  C   UNL     1      10.193   6.733  24.065  0.00  0.00    +0.177 C 
ATOM     59  C   UNL     1      11.325   5.828  23.573  0.00  0.00    +0.180 C 
ATOM     60  C   UNL     1      11.186   4.383  24.069  0.00  0.00    +0.214 C 
BRANCH  60  61
ATOM     61  O   UNL     1      12.053   3.492  23.360  0.00  0.00    -0.383 OA
ATOM     62  H   UNL     1      11.925   3.645  22.406  0.00  0.00    +0.210 HD
ENDBRANCH  60  61
BRANCH  59  63
ATOM     63  O   UNL     1      12.578   6.369  24.044  0.00  0.00    -0.386 OA
ATOM     64  H   UNL     1      12.908   5.738  24.718  0.00  0.00    +0.210 HD
ENDBRANCH  59  63
BRANCH  58  65
ATOM     65  O   UNL     1      10.323   6.903  25.495  0.00  0.00    -0.386 OA
ATOM     66  H   UNL     1      10.045   6.053  25.904  0.00  0.00    +0.210 HD
ENDBRANCH  58  65
BRANCH  57  67
ATOM     67  C   UNL     1       7.647   6.919  24.017  0.00  0.00    +0.190 C 
BRANCH  67  68
ATOM     68  O   UNL     1       7.364   6.941  25.419  0.00  0.00    -0.392 OA
ATOM     69  H   UNL     1       8.005   6.364  25.870  0.00  0.00    +0.210 HD
ENDBRANCH  67  68
ENDBRANCH  57  67
ENDBRANCH  54  55
ENDBRANCH   7  54
TORSDOF 24
ENDMDL
MODEL 4
REMARK VINA RESULT:      -6.3      1.713      2.110
REMARK  Name = 
REMARK  24 active torsions:
REMARK  status: ('A' for Active; 'I' for Inactive)
REMARK    1  A    between atoms: C_3  and  O_44
REMARK    2  A    between atoms: C_4  and  O_43
REMARK    3  A    between atoms: C_6  and  C_7
REMARK    4  A    between atoms: C_8  and  O_31
REMARK    5  A    between atoms: C_12  and  O_30
REMARK    6  A    between atoms: C_14  and  O_18
REMARK    7  A    between atoms: O_18  and  C_19
REMARK    8  A    between atoms: C_20  and  O_29
REMARK    9  A    between atoms: C_21  and  O_28
REMARK   10  A    between atoms: C_22  and  O_27
REMARK   11  A    between atoms: C_23  and  C_25
REMARK   12  A    between atoms: C_25  and  O_26
REMARK   13  A    between atoms: O_31  and  C_32
REMARK   14  A    between atoms: C_33  and  O_42
REMARK   15  A    between atoms: C_34  and  O_41
REMARK   16  A    between atoms: C_35  and  O_40
REMARK   17  A    between atoms: C_36  and  C_38
REMARK   18  A    between atoms: C_38  and  O_39
REMARK   19  A    between atoms: O_44  and  C_45
REMARK   20  A    between atoms: C_46  and  O_55
REMARK   21  A    between atoms: C_47  and  O_54
REMARK   22  A    between atoms: C_48  and  O_53
REMARK   23  A    between atoms: C_49  and  C_51
REMARK   24  A    between atoms: C_51  and  O_52
REMARK                            x       y       z     vdW  Elec       q    Type
REMARK                         _______ _______ _______ _____ _____    ______ ____
ROOT
ATOM      1  C   UNL     1       7.113   1.136  24.817  0.00  0.00    +0.181 A 
ATOM      2  O   UNL     1       6.340   0.001  24.660  0.00  0.00    -0.451 OA
ATOM      3  C   UNL     1       6.848  -1.033  23.902  0.00  0.00    +0.147 A 
ATOM      4  C   UNL     1       8.058  -0.964  23.226  0.00  0.00    +0.109 A 
ATOM      5  C   UNL     1       8.459  -2.081  22.457  0.00  0.00    +0.135 A 
ATOM      6  C   UNL     1       7.712  -3.265  22.446  0.00  0.00    +0.092 A 
ATOM      7  C   UNL     1       6.546  -3.353  23.200  0.00  0.00    +0.131 A 
ATOM      8  C   UNL     1       8.868   0.257  23.395  0.00  0.00    +0.238 A 
ATOM      9  O   UNL     1       9.932   0.381  22.801  0.00  0.00    -0.283 OA
ATOM     10  C   UNL     1       6.079  -2.205  23.860  0.00  0.00    +0.093 A 
ATOM     11  C   UNL     1       8.336   1.326  24.305  0.00  0.00    +0.214 A 
ENDROOT
BRANCH   1  13
ATOM     12  C   UNL     1       5.430   2.953  25.118  0.00  0.00    +0.015 A 
ATOM     13  C   UNL     1       6.508   2.214  25.631  0.00  0.00    +0.025 A 
ATOM     14  C   UNL     1       7.101   2.641  26.818  0.00  0.00    +0.060 A 
ATOM     15  C   UNL     1       6.703   3.848  27.409  0.00  0.00    +0.159 A 
ATOM     16  C   UNL     1       5.737   4.673  26.815  0.00  0.00    +0.165 A 
ATOM     17  C   UNL     1       5.053   4.169  25.706  0.00  0.00    +0.050 A 
BRANCH  15  18
ATOM     18  O   UNL     1       7.310   4.206  28.579  0.00  0.00    -0.503 OA
ATOM     19  H   UNL     1       7.923   4.929  28.345  0.00  0.00    +0.292 HD
ENDBRANCH  15  18
BRANCH  16  20
ATOM     20  O   UNL     1       5.526   5.932  27.360  0.00  0.00    -0.457 OA
BRANCH  20  21
ATOM     21  C   UNL     1       4.427   5.997  28.310  0.00  0.00    +0.339 C 
ATOM     22  O   UNL     1       4.378   4.831  29.155  0.00  0.00    -0.331 OA
ATOM     23  C   UNL     1       3.410   3.817  28.859  0.00  0.00    +0.179 C 
ATOM     24  C   UNL     1       2.012   4.427  28.711  0.00  0.00    +0.177 C 
ATOM     25  C   UNL     1       2.038   5.327  27.495  0.00  0.00    +0.180 C 
ATOM     26  C   UNL     1       3.076   6.437  27.661  0.00  0.00    +0.214 C 
BRANCH  26  27
ATOM     27  O   UNL     1       3.251   7.108  26.402  0.00  0.00    -0.383 OA
ATOM     28  H   UNL     1       3.927   6.606  25.907  0.00  0.00    +0.210 HD
ENDBRANCH  26  27
BRANCH  25  29
ATOM     29  O   UNL     1       0.745   5.939  27.326  0.00  0.00    -0.386 OA
ATOM     30  H   UNL     1       0.932   6.882  27.125  0.00  0.00    +0.210 HD
ENDBRANCH  25  29
BRANCH  24  31
ATOM     31  O   UNL     1       1.638   5.250  29.831  0.00  0.00    -0.386 OA
ATOM     32  H   UNL     1       0.803   4.874  30.188  0.00  0.00    +0.210 HD
ENDBRANCH  24  31
BRANCH  23  33
ATOM     33  C   UNL     1       3.417   2.800  30.009  0.00  0.00    +0.190 C 
BRANCH  33  34
ATOM     34  O   UNL     1       2.074   2.432  30.346  0.00  0.00    -0.392 OA
ATOM     35  H   UNL     1       2.134   2.044  31.244  0.00  0.00    +0.210 HD
ENDBRANCH  33  34
ENDBRANCH  23  33
ENDBRANCH  20  21
ENDBRANCH  16  20
ENDBRANCH   1  13
BRANCH   5  36
ATOM     36  O   UNL     1       9.603  -2.090  21.697  0.00  0.00    -0.506 OA
ATOM     37  H   UNL     1      10.384  -2.138  22.299  0.00  0.00    +0.292 HD
ENDBRANCH   5  36
BRANCH  11  38
ATOM     38  O   UNL     1       8.963   2.566  24.396  0.00  0.00    -0.453 OA
BRANCH  38  39
ATOM     39  C   UNL     1       9.354   3.247  23.195  0.00  0.00    +0.340 C 
ATOM     40  O   UNL     1      10.712   3.726  23.272  0.00  0.00    -0.331 OA
ATOM     41  C   UNL     1      11.003   4.842  24.150  0.00  0.00    +0.179 C 
ATOM     42  C   UNL     1       9.829   5.753  24.613  0.00  0.00    +0.177 C 
ATOM     43  C   UNL     1       8.422   5.205  24.336  0.00  0.00    +0.180 C 
ATOM     44  C   UNL     1       8.454   4.473  22.984  0.00  0.00    +0.214 C 
BRANCH  44  45
ATOM     45  O   UNL     1       7.167   4.168  22.463  0.00  0.00    -0.383 OA
ATOM     46  H   UNL     1       7.157   3.254  22.113  0.00  0.00    +0.210 HD
ENDBRANCH  44  45
BRANCH  43  47
ATOM     47  O   UNL     1       7.488   6.292  24.325  0.00  0.00    -0.386 OA
ATOM     48  H   UNL     1       6.596   5.911  24.227  0.00  0.00    +0.210 HD
ENDBRANCH  43  47
BRANCH  42  49
ATOM     49  O   UNL     1       9.917   7.070  24.027  0.00  0.00    -0.386 OA
ATOM     50  H   UNL     1      10.371   7.656  24.667  0.00  0.00    +0.210 HD
ENDBRANCH  42  49
BRANCH  41  51
ATOM     51  C   UNL     1      12.090   5.697  23.445  0.00  0.00    +0.190 C 
BRANCH  51  52
ATOM     52  O   UNL     1      12.852   6.460  24.378  0.00  0.00    -0.392 OA
ATOM     53  H   UNL     1      13.017   7.322  23.952  0.00  0.00    +0.210 HD
ENDBRANCH  51  52
ENDBRANCH  41  51
ENDBRANCH  38  39
ENDBRANCH  11  38
BRANCH   7  54
ATOM     54  O   UNL     1       5.940  -4.602  23.286  0.00  0.00    -0.461 OA
BRANCH  54  55
ATOM     55  C   UNL     1       4.901  -4.671  24.286  0.00  0.00    +0.339 C 
ATOM     56  O   UNL     1       5.448  -4.474  25.603  0.00  0.00    -0.331 OA
ATOM     57  C   UNL     1       6.224  -5.609  26.032  0.00  0.00    +0.179 C 
ATOM     58  C   UNL     1       5.200  -6.694  26.369  0.00  0.00    +0.177 C 
ATOM     59  C   UNL     1       4.535  -7.124  25.060  0.00  0.00    +0.180 C 
ATOM     60  C   UNL     1       3.999  -5.938  24.249  0.00  0.00    +0.214 C 
BRANCH  60  61
ATOM     61  O   UNL     1       3.671  -6.315  22.908  0.00  0.00    -0.383 OA
ATOM     62  H   UNL     1       2.761  -6.665  22.908  0.00  0.00    +0.210 HD
ENDBRANCH  60  61
BRANCH  59  63
ATOM     63  O   UNL     1       3.440  -8.011  25.376  0.00  0.00    -0.386 OA
ATOM     64  H   UNL     1       2.897  -7.544  26.045  0.00  0.00    +0.210 HD
ENDBRANCH  59  63
BRANCH  58  65
ATOM     65  O   UNL     1       4.184  -6.171  27.256  0.00  0.00    -0.386 OA
ATOM     66  H   UNL     1       4.617  -5.473  27.797  0.00  0.00    +0.210 HD
ENDBRANCH  58  65
BRANCH  57  67
ATOM     67  C   UNL     1       7.083  -5.202  27.233  0.00  0.00    +0.190 C 
BRANCH  67  68
ATOM     68  O   UNL     1       7.202  -6.286  28.158  0.00  0.00    -0.392 OA
ATOM     69  H   UNL     1       7.944  -6.098  28.759  0.00  0.00    +0.210 HD
ENDBRANCH  67  68
ENDBRANCH  57  67
ENDBRANCH  54  55
ENDBRANCH   7  54
TORSDOF 24
ENDMDL
MODEL 5
REMARK VINA RESULT:      -5.9      2.741     10.295
REMARK  Name = 
REMARK  24 active torsions:
REMARK  status: ('A' for Active; 'I' for Inactive)
REMARK    1  A    between atoms: C_3  and  O_44
REMARK    2  A    between atoms: C_4  and  O_43
REMARK    3  A    between atoms: C_6  and  C_7
REMARK    4  A    between atoms: C_8  and  O_31
REMARK    5  A    between atoms: C_12  and  O_30
REMARK    6  A    between atoms: C_14  and  O_18
REMARK    7  A    between atoms: O_18  and  C_19
REMARK    8  A    between atoms: C_20  and  O_29
REMARK    9  A    between atoms: C_21  and  O_28
REMARK   10  A    between atoms: C_22  and  O_27
REMARK   11  A    between atoms: C_23  and  C_25
REMARK   12  A    between atoms: C_25  and  O_26
REMARK   13  A    between atoms: O_31  and  C_32
REMARK   14  A    between atoms: C_33  and  O_42
REMARK   15  A    between atoms: C_34  and  O_41
REMARK   16  A    between atoms: C_35  and  O_40
REMARK   17  A    between atoms: C_36  and  C_38
REMARK   18  A    between atoms: C_38  and  O_39
REMARK   19  A    between atoms: O_44  and  C_45
REMARK   20  A    between atoms: C_46  and  O_55
REMARK   21  A    between atoms: C_47  and  O_54
REMARK   22  A    between atoms: C_48  and  O_53
REMARK   23  A    between atoms: C_49  and  C_51
REMARK   24  A    between atoms: C_51  and  O_52
REMARK                            x       y       z     vdW  Elec       q    Type
REMARK                         _______ _______ _______ _____ _____    ______ ____
ROOT
ATOM      1  C   UNL     1       6.666  -0.828  25.279  0.00  0.00    +0.181 A 
ATOM      2  O   UNL     1       6.380   0.461  24.871  0.00  0.00    -0.451 OA
ATOM      3  C   UNL     1       7.379   1.185  24.256  0.00  0.00    +0.147 A 
ATOM      4  C   UNL     1       8.676   0.719  24.094  0.00  0.00    +0.109 A 
ATOM      5  C   UNL     1       9.619   1.567  23.472  0.00  0.00    +0.135 A 
ATOM      6  C   UNL     1       9.246   2.808  22.943  0.00  0.00    +0.092 A 
ATOM      7  C   UNL     1       7.923   3.228  23.031  0.00  0.00    +0.131 A 
ATOM      8  C   UNL     1       8.969  -0.656  24.543  0.00  0.00    +0.238 A 
ATOM      9  O   UNL     1      10.103  -1.109  24.448  0.00  0.00    -0.283 OA
ATOM     10  C   UNL     1       7.014   2.446  23.761  0.00  0.00    +0.093 A 
ATOM     11  C   UNL     1       7.838  -1.457  25.120  0.00  0.00    +0.214 A 
ENDROOT
BRANCH   1  13
ATOM     12  C   UNL     1       5.737  -2.066  27.236  0.00  0.00    +0.015 A 
ATOM     13  C   UNL     1       5.557  -1.549  25.944  0.00  0.00    +0.025 A 
ATOM     14  C   UNL     1       4.399  -1.892  25.246  0.00  0.00    +0.060 A 
ATOM     15  C   UNL     1       3.506  -2.828  25.784  0.00  0.00    +0.159 A 
ATOM     16  C   UNL     1       3.761  -3.471  27.004  0.00  0.00    +0.165 A 
ATOM     17  C   UNL     1       4.847  -3.017  27.757  0.00  0.00    +0.050 A 
BRANCH  15  18
ATOM     18  O   UNL     1       2.382  -3.113  25.060  0.00  0.00    -0.503 OA
ATOM     19  H   UNL     1       1.637  -2.776  25.592  0.00  0.00    +0.292 HD
ENDBRANCH  15  18
BRANCH  16  20
ATOM     20  O   UNL     1       2.926  -4.512  27.383  0.00  0.00    -0.457 OA
BRANCH  20  21
ATOM     21  C   UNL     1       3.297  -5.807  26.835  0.00  0.00    +0.339 C 
ATOM     22  O   UNL     1       3.291  -5.802  25.394  0.00  0.00    -0.331 OA
ATOM     23  C   UNL     1       2.174  -6.390  24.718  0.00  0.00    +0.179 C 
ATOM     24  C   UNL     1       1.899  -7.802  25.246  0.00  0.00    +0.177 C 
ATOM     25  C   UNL     1       1.469  -7.667  26.691  0.00  0.00    +0.180 C 
ATOM     26  C   UNL     1       2.565  -7.002  27.525  0.00  0.00    +0.214 C 
BRANCH  26  27
ATOM     27  O   UNL     1       2.031  -6.663  28.816  0.00  0.00    -0.383 OA
ATOM     28  H   UNL     1       1.827  -7.506  29.265  0.00  0.00    +0.210 HD
ENDBRANCH  26  27
BRANCH  25  29
ATOM     29  O   UNL     1       1.217  -8.976  27.238  0.00  0.00    -0.386 OA
ATOM     30  H   UNL     1       0.267  -8.970  27.489  0.00  0.00    +0.210 HD
ENDBRANCH  25  29
BRANCH  24  31
ATOM     31  O   UNL     1       3.068  -8.642  25.235  0.00  0.00    -0.386 OA
ATOM     32  H   UNL     1       2.846  -9.437  25.770  0.00  0.00    +0.210 HD
ENDBRANCH  24  31
BRANCH  23  33
ATOM     33  C   UNL     1       2.501  -6.449  23.218  0.00  0.00    +0.190 C 
BRANCH  33  34
ATOM     34  O   UNL     1       3.203  -5.265  22.822  0.00  0.00    -0.392 OA
ATOM     35  H   UNL     1       2.504  -4.615  22.604  0.00  0.00    +0.210 HD
ENDBRANCH  33  34
ENDBRANCH  23  33
ENDBRANCH  20  21
ENDBRANCH  16  20
ENDBRANCH   1  13
BRANCH   5  36
ATOM     36  O   UNL     1      10.943   1.229  23.325  0.00  0.00    -0.506 OA
ATOM     37  H   UNL     1      11.428   2.001  22.946  0.00  0.00    +0.292 HD
ENDBRANCH   5  36
BRANCH  11  38
ATOM     38  O   UNL     1       8.067  -2.700  25.705  0.00  0.00    -0.453 OA
BRANCH  38  39
ATOM     39  C   UNL     1       8.698  -3.734  24.936  0.00  0.00    +0.340 C 
ATOM     40  O   UNL     1       8.262  -3.717  23.561  0.00  0.00    -0.331 OA
ATOM     41  C   UNL     1       6.910  -4.143  23.259  0.00  0.00    +0.179 C 
ATOM     42  C   UNL     1       6.147  -5.004  24.306  0.00  0.00    +0.177 C 
ATOM     43  C   UNL     1       6.792  -5.074  25.697  0.00  0.00    +0.180 C 
ATOM     44  C   UNL     1       8.319  -5.106  25.512  0.00  0.00    +0.214 C 
BRANCH  44  45
ATOM     45  O   UNL     1       9.034  -5.461  26.688  0.00  0.00    -0.383 OA
ATOM     46  H   UNL     1       9.021  -6.433  26.806  0.00  0.00    +0.210 HD
ENDBRANCH  44  45
BRANCH  43  47
ATOM     47  O   UNL     1       6.319  -6.244  26.377  0.00  0.00    -0.386 OA
ATOM     48  H   UNL     1       6.746  -6.266  27.253  0.00  0.00    +0.210 HD
ENDBRANCH  43  47
BRANCH  42  49
ATOM     49  O   UNL     1       5.951  -6.357  23.838  0.00  0.00    -0.386 OA
ATOM     50  H   UNL     1       5.253  -6.769  24.387  0.00  0.00    +0.210 HD
ENDBRANCH  42  49
BRANCH  41  51
ATOM     51  C   UNL     1       6.967  -4.888  21.899  0.00  0.00    +0.190 C 
BRANCH  51  52
ATOM     52  O   UNL     1       5.693  -4.926  21.261  0.00  0.00    -0.392 OA
ATOM     53  H   UNL     1       5.804  -4.467  20.406  0.00  0.00    +0.210 HD
ENDBRANCH  51  52
ENDBRANCH  41  51
ENDBRANCH  38  39
ENDBRANCH  11  38
BRANCH   7  54
ATOM     54  O   UNL     1       7.578   4.386  22.342  0.00  0.00    -0.461 OA
BRANCH  54  55
ATOM     55  C   UNL     1       7.669   5.582  23.144  0.00  0.00    +0.339 C 
ATOM     56  O   UNL     1       8.990   6.149  23.068  0.00  0.00    -0.331 OA
ATOM     57  C   UNL     1       9.954   5.349  23.777  0.00  0.00    +0.179 C 
ATOM     58  C   UNL     1       9.680   5.608  25.259  0.00  0.00    +0.177 C 
ATOM     59  C   UNL     1       8.318   4.996  25.592  0.00  0.00    +0.180 C 
ATOM     60  C   UNL     1       7.214   5.448  24.626  0.00  0.00    +0.214 C 
BRANCH  60  61
ATOM     61  O   UNL     1       6.039   4.640  24.748  0.00  0.00    -0.383 OA
ATOM     62  H   UNL     1       5.810   4.309  23.860  0.00  0.00    +0.210 HD
ENDBRANCH  60  61
BRANCH  59  63
ATOM     63  O   UNL     1       7.957   5.388  26.934  0.00  0.00    -0.386 OA
ATOM     64  H   UNL     1       7.480   4.624  27.320  0.00  0.00    +0.210 HD
ENDBRANCH  59  63
BRANCH  58  65
ATOM     65  O   UNL     1       9.628   7.029  25.522  0.00  0.00    -0.386 OA
ATOM     66  H   UNL     1       9.618   7.476  24.646  0.00  0.00    +0.210 HD
ENDBRANCH  58  65
BRANCH  57  67
ATOM     67  C   UNL     1      11.364   5.766  23.347  0.00  0.00    +0.190 C 
BRANCH  67  68
ATOM     68  O   UNL     1      12.155   6.116  24.486  0.00  0.00    -0.392 OA
ATOM     69  H   UNL     1      12.759   6.836  24.231  0.00  0.00    +0.210 HD
ENDBRANCH  67  68
ENDBRANCH  57  67
ENDBRANCH  54  55
ENDBRANCH   7  54
TORSDOF 24
ENDMDL
MODEL 6
REMARK VINA RESULT:      -5.9      2.472     10.424
REMARK  Name = 
REMARK  24 active torsions:
REMARK  status: ('A' for Active; 'I' for Inactive)
REMARK    1  A    between atoms: C_3  and  O_44
REMARK    2  A    between atoms: C_4  and  O_43
REMARK    3  A    between atoms: C_6  and  C_7
REMARK    4  A    between atoms: C_8  and  O_31
REMARK    5  A    between atoms: C_12  and  O_30
REMARK    6  A    between atoms: C_14  and  O_18
REMARK    7  A    between atoms: O_18  and  C_19
REMARK    8  A    between atoms: C_20  and  O_29
REMARK    9  A    between atoms: C_21  and  O_28
REMARK   10  A    between atoms: C_22  and  O_27
REMARK   11  A    between atoms: C_23  and  C_25
REMARK   12  A    between atoms: C_25  and  O_26
REMARK   13  A    between atoms: O_31  and  C_32
REMARK   14  A    between atoms: C_33  and  O_42
REMARK   15  A    between atoms: C_34  and  O_41
REMARK   16  A    between atoms: C_35  and  O_40
REMARK   17  A    between atoms: C_36  and  C_38
REMARK   18  A    between atoms: C_38  and  O_39
REMARK   19  A    between atoms: O_44  and  C_45
REMARK   20  A    between atoms: C_46  and  O_55
REMARK   21  A    between atoms: C_47  and  O_54
REMARK   22  A    between atoms: C_48  and  O_53
REMARK   23  A    between atoms: C_49  and  C_51
REMARK   24  A    between atoms: C_51  and  O_52
REMARK                            x       y       z     vdW  Elec       q    Type
REMARK                         _______ _______ _______ _____ _____    ______ ____
ROOT
ATOM      1  C   UNL     1       5.750  -1.438  25.360  0.00  0.00    +0.181 A 
ATOM      2  O   UNL     1       5.449  -0.175  24.885  0.00  0.00    -0.451 OA
ATOM      3  C   UNL     1       6.458   0.553  24.290  0.00  0.00    +0.147 A 
ATOM      4  C   UNL     1       7.773   0.120  24.213  0.00  0.00    +0.109 A 
ATOM      5  C   UNL     1       8.723   0.970  23.603  0.00  0.00    +0.135 A 
ATOM      6  C   UNL     1       8.344   2.177  23.005  0.00  0.00    +0.092 A 
ATOM      7  C   UNL     1       7.006   2.560  23.009  0.00  0.00    +0.131 A 
ATOM      8  C   UNL     1       8.082  -1.226  24.733  0.00  0.00    +0.238 A 
ATOM      9  O   UNL     1       9.232  -1.649  24.714  0.00  0.00    -0.283 OA
ATOM     10  C   UNL     1       6.083   1.781  23.725  0.00  0.00    +0.093 A 
ATOM     11  C   UNL     1       6.946  -2.037  25.286  0.00  0.00    +0.214 A 
ENDROOT
BRANCH   1  13
ATOM     12  C   UNL     1       4.760  -2.628  27.318  0.00  0.00    +0.015 A 
ATOM     13  C   UNL     1       4.630  -2.164  25.999  0.00  0.00    +0.025 A 
ATOM     14  C   UNL     1       3.516  -2.565  25.261  0.00  0.00    +0.060 A 
ATOM     15  C   UNL     1       2.622  -3.504  25.791  0.00  0.00    +0.159 A 
ATOM     16  C   UNL     1       2.834  -4.094  27.046  0.00  0.00    +0.165 A 
ATOM     17  C   UNL     1       3.870  -3.583  27.831  0.00  0.00    +0.050 A 
BRANCH  15  18
ATOM     18  O   UNL     1       1.542  -3.847  25.027  0.00  0.00    -0.503 OA
ATOM     19  H   UNL     1       1.881  -4.478  24.364  0.00  0.00    +0.292 HD
ENDBRANCH  15  18
BRANCH  16  20
ATOM     20  O   UNL     1       2.009  -5.144  27.424  0.00  0.00    -0.457 OA
BRANCH  20  21
ATOM     21  C   UNL     1       2.428  -6.445  26.926  0.00  0.00    +0.339 C 
ATOM     22  O   UNL     1       2.277  -6.545  25.496  0.00  0.00    -0.331 OA
ATOM     23  C   UNL     1       1.148  -7.262  24.981  0.00  0.00    +0.179 C 
ATOM     24  C   UNL     1       1.044  -8.648  25.627  0.00  0.00    +0.177 C 
ATOM     25  C   UNL     1       0.751  -8.440  27.097  0.00  0.00    +0.180 C 
ATOM     26  C   UNL     1       1.868  -7.637  27.765  0.00  0.00    +0.214 C 
BRANCH  26  27
ATOM     27  O   UNL     1       1.440  -7.244  29.081  0.00  0.00    -0.383 OA
ATOM     28  H   UNL     1       0.808  -7.923  29.385  0.00  0.00    +0.210 HD
ENDBRANCH  26  27
BRANCH  25  29
ATOM     29  O   UNL     1       0.662  -9.720  27.752  0.00  0.00    -0.386 OA
ATOM     30  H   UNL     1       0.886  -9.543  28.692  0.00  0.00    +0.210 HD
ENDBRANCH  25  29
BRANCH  24  31
ATOM     31  O   UNL     1       2.270  -9.398  25.547  0.00  0.00    -0.386 OA
ATOM     32  H   UNL     1       2.986  -8.745  25.381  0.00  0.00    +0.210 HD
ENDBRANCH  24  31
BRANCH  23  33
ATOM     33  C   UNL     1       1.327  -7.406  23.462  0.00  0.00    +0.190 C 
BRANCH  33  34
ATOM     34  O   UNL     1       2.661  -7.834  23.164  0.00  0.00    -0.392 OA
ATOM     35  H   UNL     1       2.633  -8.811  23.216  0.00  0.00    +0.210 HD
ENDBRANCH  33  34
ENDBRANCH  23  33
ENDBRANCH  20  21
ENDBRANCH  16  20
ENDBRANCH   1  13
BRANCH   5  36
ATOM     36  O   UNL     1      10.062   0.666  23.537  0.00  0.00    -0.506 OA
ATOM     37  H   UNL     1      10.342   0.670  22.590  0.00  0.00    +0.292 HD
ENDBRANCH   5  36
BRANCH  11  38
ATOM     38  O   UNL     1       7.179  -3.248  25.934  0.00  0.00    -0.453 OA
BRANCH  38  39
ATOM     39  C   UNL     1       7.830  -4.312  25.224  0.00  0.00    +0.340 C 
ATOM     40  O   UNL     1       7.340  -4.428  23.872  0.00  0.00    -0.331 OA
ATOM     41  C   UNL     1       5.999  -4.938  23.664  0.00  0.00    +0.179 C 
ATOM     42  C   UNL     1       5.321  -5.745  24.809  0.00  0.00    +0.177 C 
ATOM     43  C   UNL     1       6.023  -5.670  26.172  0.00  0.00    +0.180 C 
ATOM     44  C   UNL     1       7.541  -5.648  25.924  0.00  0.00    +0.214 C 
BRANCH  44  45
ATOM     45  O   UNL     1       8.319  -5.872  27.093  0.00  0.00    -0.383 OA
ATOM     46  H   UNL     1       7.780  -5.696  27.890  0.00  0.00    +0.210 HD
ENDBRANCH  44  45
BRANCH  43  47
ATOM     47  O   UNL     1       5.635  -6.801  26.963  0.00  0.00    -0.386 OA
ATOM     48  H   UNL     1       5.785  -6.569  27.898  0.00  0.00    +0.210 HD
ENDBRANCH  43  47
BRANCH  42  49
ATOM     49  O   UNL     1       5.173  -7.138  24.459  0.00  0.00    -0.386 OA
ATOM     50  H   UNL     1       4.916  -7.628  25.268  0.00  0.00    +0.210 HD
ENDBRANCH  42  49
BRANCH  41  51
ATOM     51  C   UNL     1       6.039  -5.789  22.367  0.00  0.00    +0.190 C 
BRANCH  51  52
ATOM     52  O   UNL     1       4.730  -6.078  21.882  0.00  0.00    -0.392 OA
ATOM     53  H   UNL     1       4.806  -6.128  20.910  0.00  0.00    +0.210 HD
ENDBRANCH  51  52
ENDBRANCH  41  51
ENDBRANCH  38  39
ENDBRANCH  11  38
BRANCH   7  54
ATOM     54  O   UNL     1       6.664   3.678  22.256  0.00  0.00    -0.461 OA
BRANCH  54  55
ATOM     55  C   UNL     1       7.033   4.927  22.879  0.00  0.00    +0.339 C 
ATOM     56  O   UNL     1       7.680   4.695  24.143  0.00  0.00    -0.331 OA
ATOM     57  C   UNL     1       6.751   4.232  25.140  0.00  0.00    +0.179 C 
ATOM     58  C   UNL     1       5.929   5.462  25.527  0.00  0.00    +0.177 C 
ATOM     59  C   UNL     1       5.073   5.846  24.318  0.00  0.00    +0.180 C 
ATOM     60  C   UNL     1       5.895   5.978  23.029  0.00  0.00    +0.214 C 
BRANCH  60  61
ATOM     61  O   UNL     1       5.059   6.022  21.868  0.00  0.00    -0.383 OA
ATOM     62  H   UNL     1       4.312   5.412  22.013  0.00  0.00    +0.210 HD
ENDBRANCH  60  61
BRANCH  59  63
ATOM     63  O   UNL     1       4.430   7.108  24.597  0.00  0.00    -0.386 OA
ATOM     64  H   UNL     1       4.303   7.138  25.569  0.00  0.00    +0.210 HD
ENDBRANCH  59  63
BRANCH  58  65
ATOM     65  O   UNL     1       6.800   6.570  25.850  0.00  0.00    -0.386 OA
ATOM     66  H   UNL     1       6.401   7.022  26.629  0.00  0.00    +0.210 HD
ENDBRANCH  58  65
BRANCH  57  67
ATOM     67  C   UNL     1       7.533   3.640  26.317  0.00  0.00    +0.190 C 
BRANCH  67  68
ATOM     68  O   UNL     1       6.729   2.698  27.033  0.00  0.00    -0.392 OA
ATOM     69  H   UNL     1       7.163   1.828  26.988  0.00  0.00    +0.210 HD
ENDBRANCH  67  68
ENDBRANCH  57  67
ENDBRANCH  54  55
ENDBRANCH   7  54
TORSDOF 24
ENDMDL
MODEL 7
REMARK VINA RESULT:      -5.8      2.501      6.098
REMARK  Name = 
REMARK  24 active torsions:
REMARK  status: ('A' for Active; 'I' for Inactive)
REMARK    1  A    between atoms: C_3  and  O_44
REMARK    2  A    between atoms: C_4  and  O_43
REMARK    3  A    between atoms: C_6  and  C_7
REMARK    4  A    between atoms: C_8  and  O_31
REMARK    5  A    between atoms: C_12  and  O_30
REMARK    6  A    between atoms: C_14  and  O_18
REMARK    7  A    between atoms: O_18  and  C_19
REMARK    8  A    between atoms: C_20  and  O_29
REMARK    9  A    between atoms: C_21  and  O_28
REMARK   10  A    between atoms: C_22  and  O_27
REMARK   11  A    between atoms: C_23  and  C_25
REMARK   12  A    between atoms: C_25  and  O_26
REMARK   13  A    between atoms: O_31  and  C_32
REMARK   14  A    between atoms: C_33  and  O_42
REMARK   15  A    between atoms: C_34  and  O_41
REMARK   16  A    between atoms: C_35  and  O_40
REMARK   17  A    between atoms: C_36  and  C_38
REMARK   18  A    between atoms: C_38  and  O_39
REMARK   19  A    between atoms: O_44  and  C_45
REMARK   20  A    between atoms: C_46  and  O_55
REMARK   21  A    between atoms: C_47  and  O_54
REMARK   22  A    between atoms: C_48  and  O_53
REMARK   23  A    between atoms: C_49  and  C_51
REMARK   24  A    between atoms: C_51  and  O_52
REMARK                            x       y       z     vdW  Elec       q    Type
REMARK                         _______ _______ _______ _____ _____    ______ ____
ROOT
ATOM      1  C   UNL     1       5.805  -1.333  26.239  0.00  0.00    +0.181 A 
ATOM      2  O   UNL     1       5.578  -2.648  25.877  0.00  0.00    -0.451 OA
ATOM      3  C   UNL     1       4.809  -3.429  26.714  0.00  0.00    +0.147 A 
ATOM      4  C   UNL     1       4.320  -2.991  27.936  0.00  0.00    +0.109 A 
ATOM      5  C   UNL     1       3.568  -3.896  28.719  0.00  0.00    +0.135 A 
ATOM      6  C   UNL     1       3.238  -5.171  28.244  0.00  0.00    +0.092 A 
ATOM      7  C   UNL     1       3.659  -5.568  26.979  0.00  0.00    +0.131 A 
ATOM      8  C   UNL     1       4.579  -1.589  28.315  0.00  0.00    +0.238 A 
ATOM      9  O   UNL     1       4.193  -1.157  29.394  0.00  0.00    -0.283 OA
ATOM     10  C   UNL     1       4.513  -4.720  26.255  0.00  0.00    +0.093 A 
ATOM     11  C   UNL     1       5.334  -0.732  27.339  0.00  0.00    +0.214 A 
ENDROOT
BRANCH   1  13
ATOM     12  C   UNL     1       7.942  -0.167  25.689  0.00  0.00    +0.015 A 
ATOM     13  C   UNL     1       6.647  -0.550  25.306  0.00  0.00    +0.025 A 
ATOM     14  C   UNL     1       6.118  -0.021  24.129  0.00  0.00    +0.060 A 
ATOM     15  C   UNL     1       6.822   0.962  23.421  0.00  0.00    +0.159 A 
ATOM     16  C   UNL     1       8.045   1.467  23.885  0.00  0.00    +0.165 A 
ATOM     17  C   UNL     1       8.630   0.832  24.984  0.00  0.00    +0.050 A 
BRANCH  15  18
ATOM     18  O   UNL     1       6.260   1.431  22.268  0.00  0.00    -0.503 OA
ATOM     19  H   UNL     1       6.830   1.105  21.547  0.00  0.00    +0.292 HD
ENDBRANCH  15  18
BRANCH  16  20
ATOM     20  O   UNL     1       8.593   2.561  23.230  0.00  0.00    -0.457 OA
BRANCH  20  21
ATOM     21  C   UNL     1       8.891   3.690  24.096  0.00  0.00    +0.339 C 
ATOM     22  O   UNL     1       7.955   4.771  23.911  0.00  0.00    -0.331 OA
ATOM     23  C   UNL     1       8.366   5.897  23.127  0.00  0.00    +0.179 C 
ATOM     24  C   UNL     1       9.714   6.438  23.617  0.00  0.00    +0.177 C 
ATOM     25  C   UNL     1      10.752   5.368  23.357  0.00  0.00    +0.180 C 
ATOM     26  C   UNL     1      10.404   4.080  24.104  0.00  0.00    +0.214 C 
BRANCH  26  27
ATOM     27  O   UNL     1      11.258   3.022  23.638  0.00  0.00    -0.383 OA
ATOM     28  H   UNL     1      10.699   2.423  23.106  0.00  0.00    +0.210 HD
ENDBRANCH  26  27
BRANCH  25  29
ATOM     29  O   UNL     1      12.037   5.825  23.820  0.00  0.00    -0.386 OA
ATOM     30  H   UNL     1      12.078   5.559  24.765  0.00  0.00    +0.210 HD
ENDBRANCH  25  29
BRANCH  24  31
ATOM     31  O   UNL     1       9.732   6.701  25.032  0.00  0.00    -0.386 OA
ATOM     32  H   UNL     1       9.088   6.080  25.440  0.00  0.00    +0.210 HD
ENDBRANCH  24  31
BRANCH  23  33
ATOM     33  C   UNL     1       7.290   6.986  23.255  0.00  0.00    +0.190 C 
BRANCH  33  34
ATOM     34  O   UNL     1       6.727   6.966  24.572  0.00  0.00    -0.392 OA
ATOM     35  H   UNL     1       5.897   6.454  24.487  0.00  0.00    +0.210 HD
ENDBRANCH  33  34
ENDBRANCH  23  33
ENDBRANCH  20  21
ENDBRANCH  16  20
ENDBRANCH   1  13
BRANCH   5  36
ATOM     36  O   UNL     1       3.097  -3.585  29.972  0.00  0.00    -0.506 OA
ATOM     37  H   UNL     1       3.009  -2.605  30.043  0.00  0.00    +0.292 HD
ENDBRANCH   5  36
BRANCH  11  38
ATOM     38  O   UNL     1       5.751   0.551  27.687  0.00  0.00    -0.453 OA
BRANCH  38  39
ATOM     39  C   UNL     1       4.774   1.589  27.845  0.00  0.00    +0.340 C 
ATOM     40  O   UNL     1       4.367   2.137  26.574  0.00  0.00    -0.331 OA
ATOM     41  C   UNL     1       5.310   2.961  25.844  0.00  0.00    +0.179 C 
ATOM     42  C   UNL     1       6.507   3.589  26.614  0.00  0.00    +0.177 C 
ATOM     43  C   UNL     1       6.748   3.031  28.024  0.00  0.00    +0.180 C 
ATOM     44  C   UNL     1       5.378   2.742  28.661  0.00  0.00    +0.214 C 
BRANCH  44  45
ATOM     45  O   UNL     1       5.433   2.498  30.060  0.00  0.00    -0.383 OA
ATOM     46  H   UNL     1       5.101   3.278  30.548  0.00  0.00    +0.210 HD
ENDBRANCH  44  45
BRANCH  43  47
ATOM     47  O   UNL     1       7.492   3.989  28.787  0.00  0.00    -0.386 OA
ATOM     48  H   UNL     1       7.502   3.681  29.713  0.00  0.00    +0.210 HD
ENDBRANCH  43  47
BRANCH  42  49
ATOM     49  O   UNL     1       6.376   5.023  26.718  0.00  0.00    -0.386 OA
ATOM     50  H   UNL     1       7.126   5.431  26.237  0.00  0.00    +0.210 HD
ENDBRANCH  42  49
BRANCH  41  51
ATOM     51  C   UNL     1       4.486   4.076  25.146  0.00  0.00    +0.190 C 
BRANCH  51  52
ATOM     52  O   UNL     1       5.091   4.500  23.927  0.00  0.00    -0.392 OA
ATOM     53  H   UNL     1       5.846   3.899  23.776  0.00  0.00    +0.210 HD
ENDBRANCH  51  52
ENDBRANCH  41  51
ENDBRANCH  38  39
ENDBRANCH  11  38
BRANCH   7  54
ATOM     54  O   UNL     1       3.161  -6.773  26.494  0.00  0.00    -0.461 OA
BRANCH  54  55
ATOM     55  C   UNL     1       3.109  -6.836  25.053  0.00  0.00    +0.339 C 
ATOM     56  O   UNL     1       2.550  -5.626  24.509  0.00  0.00    -0.331 OA
ATOM     57  C   UNL     1       1.136  -5.531  24.763  0.00  0.00    +0.179 C 
ATOM     58  C   UNL     1       0.486  -6.533  23.807  0.00  0.00    +0.177 C 
ATOM     59  C   UNL     1       0.891  -7.936  24.262  0.00  0.00    +0.180 C 
ATOM     60  C   UNL     1       2.407  -8.086  24.448  0.00  0.00    +0.214 C 
BRANCH  60  61
ATOM     61  O   UNL     1       2.740  -9.278  25.165  0.00  0.00    -0.383 OA
ATOM     62  H   UNL     1       2.088  -9.963  24.928  0.00  0.00    +0.210 HD
ENDBRANCH  60  61
BRANCH  59  63
ATOM     63  O   UNL     1       0.443  -8.885  23.270  0.00  0.00    -0.386 OA
ATOM     64  H   UNL     1       0.968  -8.700  22.463  0.00  0.00    +0.210 HD
ENDBRANCH  59  63
BRANCH  58  65
ATOM     65  O   UNL     1       0.965  -6.327  22.458  0.00  0.00    -0.386 OA
ATOM     66  H   UNL     1       0.429  -5.594  22.080  0.00  0.00    +0.210 HD
ENDBRANCH  58  65
BRANCH  57  67
ATOM     67  C   UNL     1       0.679  -4.089  24.521  0.00  0.00    +0.190 C 
BRANCH  67  68
ATOM     68  O   UNL     1       1.290  -3.203  25.463  0.00  0.00    -0.392 OA
ATOM     69  H   UNL     1       0.977  -2.299  25.281  0.00  0.00    +0.210 HD
ENDBRANCH  67  68
ENDBRANCH  57  67
ENDBRANCH  54  55
ENDBRANCH   7  54
TORSDOF 24
ENDMDL
MODEL 8
REMARK VINA RESULT:      -5.8      2.108      3.794
REMARK  Name = 
REMARK  24 active torsions:
REMARK  status: ('A' for Active; 'I' for Inactive)
REMARK    1  A    between atoms: C_3  and  O_44
REMARK    2  A    between atoms: C_4  and  O_43
REMARK    3  A    between atoms: C_6  and  C_7
REMARK    4  A    between atoms: C_8  and  O_31
REMARK    5  A    between atoms: C_12  and  O_30
REMARK    6  A    between atoms: C_14  and  O_18
REMARK    7  A    between atoms: O_18  and  C_19
REMARK    8  A    between atoms: C_20  and  O_29
REMARK    9  A    between atoms: C_21  and  O_28
REMARK   10  A    between atoms: C_22  and  O_27
REMARK   11  A    between atoms: C_23  and  C_25
REMARK   12  A    between atoms: C_25  and  O_26
REMARK   13  A    between atoms: O_31  and  C_32
REMARK   14  A    between atoms: C_33  and  O_42
REMARK   15  A    between atoms: C_34  and  O_41
REMARK   16  A    between atoms: C_35  and  O_40
REMARK   17  A    between atoms: C_36  and  C_38
REMARK   18  A    between atoms: C_38  and  O_39
REMARK   19  A    between atoms: O_44  and  C_45
REMARK   20  A    between atoms: C_46  and  O_55
REMARK   21  A    between atoms: C_47  and  O_54
REMARK   22  A    between atoms: C_48  and  O_53
REMARK   23  A    between atoms: C_49  and  C_51
REMARK   24  A    between atoms: C_51  and  O_52
REMARK                            x       y       z     vdW  Elec       q    Type
REMARK                         _______ _______ _______ _____ _____    ______ ____
ROOT
ATOM      1  C   UNL     1       5.583  -0.886  25.668  0.00  0.00    +0.181 A 
ATOM      2  O   UNL     1       4.479  -1.713  25.746  0.00  0.00    -0.451 OA
ATOM      3  C   UNL     1       4.362  -2.730  24.822  0.00  0.00    +0.147 A 
ATOM      4  C   UNL     1       5.249  -2.917  23.772  0.00  0.00    +0.109 A 
ATOM      5  C   UNL     1       5.006  -3.980  22.872  0.00  0.00    +0.135 A 
ATOM      6  C   UNL     1       3.957  -4.883  23.077  0.00  0.00    +0.092 A 
ATOM      7  C   UNL     1       3.126  -4.738  24.183  0.00  0.00    +0.131 A 
ATOM      8  C   UNL     1       6.418  -2.020  23.695  0.00  0.00    +0.238 A 
ATOM      9  O   UNL     1       7.219  -2.124  22.775  0.00  0.00    -0.283 OA
ATOM     10  C   UNL     1       3.286  -3.611  25.006  0.00  0.00    +0.093 A 
ATOM     11  C   UNL     1       6.573  -0.985  24.772  0.00  0.00    +0.214 A 
ENDROOT
BRANCH   1  13
ATOM     12  C   UNL     1       4.563   0.399  27.549  0.00  0.00    +0.015 A 
ATOM     13  C   UNL     1       5.646   0.194  26.680  0.00  0.00    +0.025 A 
ATOM     14  C   UNL     1       6.676   1.134  26.668  0.00  0.00    +0.060 A 
ATOM     15  C   UNL     1       6.562   2.311  27.418  0.00  0.00    +0.159 A 
ATOM     16  C   UNL     1       5.409   2.598  28.164  0.00  0.00    +0.165 A 
ATOM     17  C   UNL     1       4.449   1.590  28.281  0.00  0.00    +0.050 A 
BRANCH  15  18
ATOM     18  O   UNL     1       7.609   3.188  27.378  0.00  0.00    -0.503 OA
ATOM     19  H   UNL     1       7.754   3.466  28.302  0.00  0.00    +0.292 HD
ENDBRANCH  15  18
BRANCH  16  20
ATOM     20  O   UNL     1       5.294   3.859  28.733  0.00  0.00    -0.457 OA
BRANCH  20  21
ATOM     21  C   UNL     1       4.564   4.819  27.921  0.00  0.00    +0.339 C 
ATOM     22  O   UNL     1       3.659   4.169  27.006  0.00  0.00    -0.331 OA
ATOM     23  C   UNL     1       4.051   4.051  25.633  0.00  0.00    +0.179 C 
ATOM     24  C   UNL     1       4.490   5.409  25.074  0.00  0.00    +0.177 C 
ATOM     25  C   UNL     1       5.744   5.819  25.816  0.00  0.00    +0.180 C 
ATOM     26  C   UNL     1       5.474   5.935  27.316  0.00  0.00    +0.214 C 
BRANCH  26  27
ATOM     27  O   UNL     1       6.727   6.073  28.008  0.00  0.00    -0.383 OA
ATOM     28  H   UNL     1       6.824   7.020  28.227  0.00  0.00    +0.210 HD
ENDBRANCH  26  27
BRANCH  25  29
ATOM     29  O   UNL     1       6.185   7.103  25.335  0.00  0.00    -0.386 OA
ATOM     30  H   UNL     1       5.850   7.751  25.993  0.00  0.00    +0.210 HD
ENDBRANCH  25  29
BRANCH  24  31
ATOM     31  O   UNL     1       3.517   6.447  25.294  0.00  0.00    -0.386 OA
ATOM     32  H   UNL     1       3.995   7.301  25.202  0.00  0.00    +0.210 HD
ENDBRANCH  24  31
BRANCH  23  33
ATOM     33  C   UNL     1       2.847   3.524  24.837  0.00  0.00    +0.190 C 
BRANCH  33  34
ATOM     34  O   UNL     1       3.300   2.768  23.708  0.00  0.00    -0.392 OA
ATOM     35  H   UNL     1       3.935   2.119  24.074  0.00  0.00    +0.210 HD
ENDBRANCH  33  34
ENDBRANCH  23  33
ENDBRANCH  20  21
ENDBRANCH  16  20
ENDBRANCH   1  13
BRANCH   5  36
ATOM     36  O   UNL     1       5.784  -4.210  21.763  0.00  0.00    -0.506 OA
ATOM     37  H   UNL     1       5.225  -4.626  21.064  0.00  0.00    +0.292 HD
ENDBRANCH   5  36
BRANCH  11  38
ATOM     38  O   UNL     1       7.560  -0.005  24.685  0.00  0.00    -0.453 OA
BRANCH  38  39
ATOM     39  C   UNL     1       8.199   0.241  23.425  0.00  0.00    +0.340 C 
ATOM     40  O   UNL     1       9.522   0.789  23.596  0.00  0.00    -0.331 OA
ATOM     41  C   UNL     1       9.649   2.153  24.070  0.00  0.00    +0.179 C 
ATOM     42  C   UNL     1       8.423   3.103  23.948  0.00  0.00    +0.177 C 
ATOM     43  C   UNL     1       7.091   2.420  23.609  0.00  0.00    +0.180 C 
ATOM     44  C   UNL     1       7.383   1.271  22.629  0.00  0.00    +0.214 C 
BRANCH  44  45
ATOM     45  O   UNL     1       6.223   0.737  22.004  0.00  0.00    -0.383 OA
ATOM     46  H   UNL     1       5.974  -0.108  22.430  0.00  0.00    +0.210 HD
ENDBRANCH  44  45
BRANCH  43  47
ATOM     47  O   UNL     1       6.200   3.386  23.037  0.00  0.00    -0.386 OA
ATOM     48  H   UNL     1       6.495   3.552  22.123  0.00  0.00    +0.210 HD
ENDBRANCH  43  47
BRANCH  42  49
ATOM     49  O   UNL     1       8.653   4.142  22.971  0.00  0.00    -0.386 OA
ATOM     50  H   UNL     1       8.993   4.931  23.443  0.00  0.00    +0.210 HD
ENDBRANCH  42  49
BRANCH  41  51
ATOM     51  C   UNL     1      10.872   2.770  23.342  0.00  0.00    +0.190 C 
BRANCH  51  52
ATOM     52  O   UNL     1      10.740   2.692  21.924  0.00  0.00    -0.392 OA
ATOM     53  H   UNL     1      10.959   1.772  21.682  0.00  0.00    +0.210 HD
ENDBRANCH  51  52
ENDBRANCH  41  51
ENDBRANCH  38  39
ENDBRANCH  11  38
BRANCH   7  54
ATOM     54  O   UNL     1       2.211  -5.758  24.428  0.00  0.00    -0.461 OA
BRANCH  54  55
ATOM     55  C   UNL     1       2.827  -6.995  24.844  0.00  0.00    +0.339 C 
ATOM     56  O   UNL     1       2.508  -8.058  23.927  0.00  0.00    -0.331 OA
ATOM     57  C   UNL     1       1.131  -8.463  24.039  0.00  0.00    +0.179 C 
ATOM     58  C   UNL     1       1.049  -9.256  25.344  0.00  0.00    +0.177 C 
ATOM     59  C   UNL     1       1.282  -8.276  26.496  0.00  0.00    +0.180 C 
ATOM     60  C   UNL     1       2.552  -7.435  26.312  0.00  0.00    +0.214 C 
BRANCH  60  61
ATOM     61  O   UNL     1       2.590  -6.324  27.213  0.00  0.00    -0.383 OA
ATOM     62  H   UNL     1       1.818  -6.391  27.804  0.00  0.00    +0.210 HD
ENDBRANCH  60  61
BRANCH  59  63
ATOM     63  O   UNL     1       1.392  -9.031  27.722  0.00  0.00    -0.386 OA
ATOM     64  H   UNL     1       1.233  -9.967  27.478  0.00  0.00    +0.210 HD
ENDBRANCH  59  63
BRANCH  58  65
ATOM     65  O   UNL     1       2.077 -10.272  25.384  0.00  0.00    -0.386 OA
ATOM     66  H   UNL     1       2.802  -9.914  25.945  0.00  0.00    +0.210 HD
ENDBRANCH  58  65
BRANCH  57  67
ATOM     67  C   UNL     1       0.752  -9.293  22.809  0.00  0.00    +0.190 C 
BRANCH  67  68
ATOM     68  O   UNL     1       1.346  -8.745  21.629  0.00  0.00    -0.392 OA
ATOM     69  H   UNL     1       0.751  -8.062  21.274  0.00  0.00    +0.210 HD
ENDBRANCH  67  68
ENDBRANCH  57  67
ENDBRANCH  54  55
ENDBRANCH   7  54
TORSDOF 24
ENDMDL
MODEL 9
REMARK VINA RESULT:      -5.7      2.431      7.191
REMARK  Name = 
REMARK  24 active torsions:
REMARK  status: ('A' for Active; 'I' for Inactive)
REMARK    1  A    between atoms: C_3  and  O_44
REMARK    2  A    between atoms: C_4  and  O_43
REMARK    3  A    between atoms: C_6  and  C_7
REMARK    4  A    between atoms: C_8  and  O_31
REMARK    5  A    between atoms: C_12  and  O_30
REMARK    6  A    between atoms: C_14  and  O_18
REMARK    7  A    between atoms: O_18  and  C_19
REMARK    8  A    between atoms: C_20  and  O_29
REMARK    9  A    between atoms: C_21  and  O_28
REMARK   10  A    between atoms: C_22  and  O_27
REMARK   11  A    between atoms: C_23  and  C_25
REMARK   12  A    between atoms: C_25  and  O_26
REMARK   13  A    between atoms: O_31  and  C_32
REMARK   14  A    between atoms: C_33  and  O_42
REMARK   15  A    between atoms: C_34  and  O_41
REMARK   16  A    between atoms: C_35  and  O_40
REMARK   17  A    between atoms: C_36  and  C_38
REMARK   18  A    between atoms: C_38  and  O_39
REMARK   19  A    between atoms: O_44  and  C_45
REMARK   20  A    between atoms: C_46  and  O_55
REMARK   21  A    between atoms: C_47  and  O_54
REMARK   22  A    between atoms: C_48  and  O_53
REMARK   23  A    between atoms: C_49  and  C_51
REMARK   24  A    between atoms: C_51  and  O_52
REMARK                            x       y       z     vdW  Elec       q    Type
REMARK                         _______ _______ _______ _____ _____    ______ ____
ROOT
ATOM      1  C   UNL     1       4.252   1.702  25.998  0.00  0.00    +0.181 A 
ATOM      2  O   UNL     1       4.710   0.538  26.586  0.00  0.00    -0.451 OA
ATOM      3  C   UNL     1       3.879  -0.112  27.474  0.00  0.00    +0.147 A 
ATOM      4  C   UNL     1       2.644   0.381  27.870  0.00  0.00    +0.109 A 
ATOM      5  C   UNL     1       1.897  -0.364  28.810  0.00  0.00    +0.135 A 
ATOM      6  C   UNL     1       2.336  -1.612  29.266  0.00  0.00    +0.092 A 
ATOM      7  C   UNL     1       3.534  -2.138  28.795  0.00  0.00    +0.131 A 
ATOM      8  C   UNL     1       2.172   1.629  27.241  0.00  0.00    +0.238 A 
ATOM      9  O   UNL     1       1.100   2.123  27.571  0.00  0.00    -0.283 OA
ATOM     10  C   UNL     1       4.339  -1.344  27.962  0.00  0.00    +0.093 A 
ATOM     11  C   UNL     1       3.053   2.264  26.204  0.00  0.00    +0.214 A 
ENDROOT
BRANCH   1  13
ATOM     12  C   UNL     1       5.018   2.214  23.679  0.00  0.00    +0.015 A 
ATOM     13  C   UNL     1       5.193   2.360  25.063  0.00  0.00    +0.025 A 
ATOM     14  C   UNL     1       6.361   2.966  25.525  0.00  0.00    +0.060 A 
ATOM     15  C   UNL     1       7.381   3.304  24.626  0.00  0.00    +0.159 A 
ATOM     16  C   UNL     1       7.279   3.014  23.257  0.00  0.00    +0.165 A 
ATOM     17  C   UNL     1       6.053   2.538  22.789  0.00  0.00    +0.050 A 
BRANCH  15  18
ATOM     18  O   UNL     1       8.495   3.909  25.135  0.00  0.00    -0.503 OA
ATOM     19  H   UNL     1       8.564   4.765  24.672  0.00  0.00    +0.292 HD
ENDBRANCH  15  18
BRANCH  16  20
ATOM     20  O   UNL     1       8.398   3.213  22.461  0.00  0.00    -0.457 OA
BRANCH  20  21
ATOM     21  C   UNL     1       9.193   2.017  22.233  0.00  0.00    +0.339 C 
ATOM     22  O   UNL     1       8.375   0.830  22.189  0.00  0.00    -0.331 OA
ATOM     23  C   UNL     1       8.340  -0.012  23.347  0.00  0.00    +0.179 C 
ATOM     24  C   UNL     1       9.759  -0.360  23.810  0.00  0.00    +0.177 C 
ATOM     25  C   UNL     1      10.412   0.926  24.269  0.00  0.00    +0.180 C 
ATOM     26  C   UNL     1      10.470   1.943  23.129  0.00  0.00    +0.214 C 
BRANCH  26  27
ATOM     27  O   UNL     1      10.856   3.222  23.660  0.00  0.00    -0.383 OA
ATOM     28  H   UNL     1      10.657   3.201  24.616  0.00  0.00    +0.210 HD
ENDBRANCH  26  27
BRANCH  25  29
ATOM     29  O   UNL     1      11.759   0.651  24.698  0.00  0.00    -0.386 OA
ATOM     30  H   UNL     1      11.685  -0.130  25.289  0.00  0.00    +0.210 HD
ENDBRANCH  25  29
BRANCH  24  31
ATOM     31  O   UNL     1      10.579  -0.891  22.753  0.00  0.00    -0.386 OA
ATOM     32  H   UNL     1      10.049  -1.591  22.313  0.00  0.00    +0.210 HD
ENDBRANCH  24  31
BRANCH  23  33
ATOM     33  C   UNL     1       7.582  -1.297  22.979  0.00  0.00    +0.190 C 
BRANCH  33  34
ATOM     34  O   UNL     1       6.171  -1.086  23.103  0.00  0.00    -0.392 OA
ATOM     35  H   UNL     1       5.760  -1.922  22.801  0.00  0.00    +0.210 HD
ENDBRANCH  33  34
ENDBRANCH  23  33
ENDBRANCH  20  21
ENDBRANCH  16  20
ENDBRANCH   1  13
BRANCH   5  36
ATOM     36  O   UNL     1       0.695   0.068  29.317  0.00  0.00    -0.506 OA
ATOM     37  H   UNL     1       0.128  -0.718  29.503  0.00  0.00    +0.292 HD
ENDBRANCH   5  36
BRANCH  11  38
ATOM     38  O   UNL     1       2.753   3.519  25.679  0.00  0.00    -0.453 OA
BRANCH  38  39
ATOM     39  C   UNL     1       1.467   3.743  25.084  0.00  0.00    +0.340 C 
ATOM     40  O   UNL     1       1.217   2.829  23.996  0.00  0.00    -0.331 OA
ATOM     41  C   UNL     1       1.960   3.003  22.763  0.00  0.00    +0.179 C 
ATOM     42  C   UNL     1       2.635   4.377  22.486  0.00  0.00    +0.177 C 
ATOM     43  C   UNL     1       2.704   5.331  23.687  0.00  0.00    +0.180 C 
ATOM     44  C   UNL     1       1.411   5.163  24.502  0.00  0.00    +0.214 C 
BRANCH  44  45
ATOM     45  O   UNL     1       1.205   6.181  25.473  0.00  0.00    -0.383 OA
ATOM     46  H   UNL     1       0.484   5.922  26.081  0.00  0.00    +0.210 HD
ENDBRANCH  44  45
BRANCH  43  47
ATOM     47  O   UNL     1       2.856   6.675  23.211  0.00  0.00    -0.386 OA
ATOM     48  H   UNL     1       2.787   7.268  23.983  0.00  0.00    +0.210 HD
ENDBRANCH  43  47
BRANCH  42  49
ATOM     49  O   UNL     1       1.989   5.075  21.399  0.00  0.00    -0.386 OA
ATOM     50  H   UNL     1       1.754   4.417  20.713  0.00  0.00    +0.210 HD
ENDBRANCH  42  49
BRANCH  41  51
ATOM     51  C   UNL     1       0.994   2.644  21.603  0.00  0.00    +0.190 C 
BRANCH  51  52
ATOM     52  O   UNL     1       1.668   1.975  20.539  0.00  0.00    -0.392 OA
ATOM     53  H   UNL     1       2.390   2.569  20.260  0.00  0.00    +0.210 HD
ENDBRANCH  51  52
ENDBRANCH  41  51
ENDBRANCH  38  39
ENDBRANCH  11  38
BRANCH   7  54
ATOM     54  O   UNL     1       3.835  -3.449  29.151  0.00  0.00    -0.461 OA
BRANCH  54  55
ATOM     55  C   UNL     1       4.892  -4.032  28.359  0.00  0.00    +0.339 C 
ATOM     56  O   UNL     1       4.424  -4.346  27.035  0.00  0.00    -0.331 OA
ATOM     57  C   UNL     1       3.525  -5.471  27.041  0.00  0.00    +0.179 C 
ATOM     58  C   UNL     1       4.413  -6.696  27.265  0.00  0.00    +0.177 C 
ATOM     59  C   UNL     1       4.969  -6.608  28.688  0.00  0.00    +0.180 C 
ATOM     60  C   UNL     1       5.623  -5.253  28.988  0.00  0.00    +0.214 C 
BRANCH  60  61
ATOM     61  O   UNL     1       5.851  -5.070  30.388  0.00  0.00    -0.383 OA
ATOM     62  H   UNL     1       5.666  -4.137  30.603  0.00  0.00    +0.210 HD
ENDBRANCH  60  61
BRANCH  59  63
ATOM     63  O   UNL     1       5.952  -7.652  28.858  0.00  0.00    -0.386 OA
ATOM     64  H   UNL     1       5.612  -8.427  28.363  0.00  0.00    +0.210 HD
ENDBRANCH  59  63
BRANCH  58  65
ATOM     65  O   UNL     1       5.519  -6.695  26.334  0.00  0.00    -0.386 OA
ATOM     66  H   UNL     1       6.336  -6.816  26.869  0.00  0.00    +0.210 HD
ENDBRANCH  58  65
BRANCH  57  67
ATOM     67  C   UNL     1       2.769  -5.515  25.709  0.00  0.00    +0.190 C 
BRANCH  67  68
ATOM     68  O   UNL     1       3.613  -5.087  24.637  0.00  0.00    -0.392 OA
ATOM     69  H   UNL     1       3.955  -4.201  24.851  0.00  0.00    +0.210 HD
ENDBRANCH  67  68
ENDBRANCH  57  67
ENDBRANCH  54  55
ENDBRANCH   7  54
TORSDOF 24
ENDMDL
