MODEL 1
REMARK VINA RESULT:      -7.7      0.000      0.000
REMARK  Name = 
REMARK  20 active torsions:
REMARK  status: ('A' for Active; 'I' for Inactive)
REMARK    1  A    between atoms: C_3  and  O_44
REMARK    2  A    between atoms: C_4  and  O_43
REMARK    3  A    between atoms: C_6  and  C_7
REMARK    4  A    between atoms: C_8  and  O_42
REMARK    5  A    between atoms: C_15  and  O_41
REMARK    6  A    between atoms: C_16  and  S_19
REMARK    7  A    between atoms: C_17  and  O_18
REMARK    8  A    between atoms: S_19  and  C_20
REMARK    9  A    between atoms: C_20  and  C_21
REMARK   10  A    between atoms: C_21  and  C_23
REMARK   11  A    between atoms: C_21  and  N_30
REMARK   12  A    between atoms: N_25  and  CA_26
REMARK   13  A    between atoms: CA_26  and  C_27
REMARK   14  A    between atoms: C_27  and  OXT_29
REMARK   15  A    between atoms: C_31  and  C_33
REMARK   16  A    between atoms: C_33  and  C_34
REMARK   17  A    between atoms: C_34  and  C_35
REMARK   18  A    between atoms: C_35  and  C_37
REMARK   19  A    between atoms: C_35  and  N_40
REMARK   20  A    between atoms: C_37  and  O_39
REMARK                            x       y       z     vdW  Elec       q    Type
REMARK                         _______ _______ _______ _____ _____    ______ ____
ROOT
ATOM      1  C   UNK A   1       7.369  -3.964  25.444  0.00  0.00    +0.181 A 
ATOM      2  O   UNK A   1       6.643  -2.789  25.242  0.00  0.00    -0.451 OA
ATOM      3  C   UNK A   1       7.171  -1.808  24.431  0.00  0.00    +0.147 A 
ATOM      4  C   UNK A   1       6.355  -0.709  24.131  0.00  0.00    +0.093 A 
ATOM      5  C   UNK A   1       6.819   0.303  23.280  0.00  0.00    +0.137 A 
ATOM      6  C   UNK A   1       8.099   0.240  22.715  0.00  0.00    +0.092 A 
ATOM      7  C   UNK A   1       8.907  -0.857  23.049  0.00  0.00    +0.148 A 
ATOM      8  C   UNK A   1       8.455  -1.877  23.899  0.00  0.00    +0.110 A 
ATOM      9  C   UNK A   1       9.266  -3.077  24.172  0.00  0.00    +0.238 A 
ATOM     10  O   UNK A   1      10.415  -3.216  23.773  0.00  0.00    -0.283 OA
ATOM     11  C   UNK A   1       8.600  -4.170  24.927  0.00  0.00    +0.208 A 
ENDROOT
BRANCH   1  13
ATOM     12  C   UNK A   1       5.673  -5.839  25.666  0.00  0.00    +0.015 A 
ATOM     13  C   UNK A   1       6.650  -4.998  26.246  0.00  0.00    +0.025 A 
ATOM     14  C   UNK A   1       6.905  -5.152  27.618  0.00  0.00    +0.060 A 
ATOM     15  C   UNK A   1       6.140  -6.037  28.375  0.00  0.00    +0.159 A 
ATOM     16  C   UNK A   1       5.115  -6.781  27.799  0.00  0.00    +0.158 A 
ATOM     17  C   UNK A   1       4.885  -6.703  26.438  0.00  0.00    +0.050 A 
BRANCH  15  18
ATOM     18  O   UNK A   1       6.390  -6.158  29.713  0.00  0.00    -0.503 OA
ATOM     19  H   UNK A   1       6.895  -6.992  29.798  0.00  0.00    +0.292 HD
ENDBRANCH  15  18
BRANCH  16  20
ATOM     20  O   UNK A   1       4.361  -7.576  28.617  0.00  0.00    -0.503 OA
ATOM     21  H   UNK A   1       4.209  -7.096  29.450  0.00  0.00    +0.292 HD
ENDBRANCH  16  20
ENDBRANCH   1  13
BRANCH   5  22
ATOM     22  O   UNK A   1       6.006   1.363  22.978  0.00  0.00    -0.505 OA
ATOM     23  H   UNK A   1       5.472   1.159  22.193  0.00  0.00    +0.292 HD
ENDBRANCH   5  22
BRANCH   7  24
ATOM     24  O   UNK A   1      10.173  -0.931  22.541  0.00  0.00    -0.505 OA
ATOM     25  H   UNK A   1      10.146  -0.639  21.598  0.00  0.00    +0.292 HD
ENDBRANCH   7  24
BRANCH  11  26
ATOM     26  O   UNK A   1       9.307  -5.358  25.016  0.00  0.00    -0.501 OA
ATOM     27  H   UNK A   1      10.192  -5.149  25.358  0.00  0.00    +0.292 HD
ENDBRANCH  11  26
BRANCH   6  28
ATOM     28  S   UNK A   1       8.654   1.396  21.458  0.00  0.00    -0.116 S 
BRANCH  28  29
ATOM     29  C   UNK A   1       9.743   2.518  22.412  0.00  0.00    +0.106 C 
BRANCH  29  30
ATOM     30  C   UNK A   1       9.036   3.515  23.341  0.00  0.00    +0.169 C 
BRANCH  30  31
ATOM     31  C   UNK A   1       9.990   4.611  23.852  0.00  0.00    +0.235 C 
ATOM     32  N   GLY A   2      11.238   4.591  23.270  0.00  0.00    -0.303 N 
ATOM     33  H   GLY A   2      11.324   4.114  22.370  0.00  0.00    +0.149 HD
ATOM     34  O   UNK A   1       9.689   5.378  24.765  0.00  0.00    -0.274 OA
BRANCH  32  35
ATOM     35  CA  GLY A   2      12.208   5.646  23.505  0.00  0.00    +0.224 C 
BRANCH  35  36
ATOM     36  C   GLY A   2      13.447   5.493  22.616  0.00  0.00    +0.322 C 
ATOM     37  O   GLY A   2      13.495   5.763  21.422  0.00  0.00    -0.249 OA
BRANCH  36  38
ATOM     38  OXT GLY A   2      14.514   4.984  23.278  0.00  0.00    -0.480 OA
ATOM     39  HXT GLY A   2      15.369   5.163  22.844  0.00  0.00    +0.295 HD
ENDBRANCH  36  38
ENDBRANCH  35  36
ENDBRANCH  32  35
ENDBRANCH  30  31
BRANCH  30  40
ATOM     40  N   UNK A   1       7.955   4.209  22.630  0.00  0.00    -0.303 N 
ATOM     41  H   UNK A   1       8.152   4.547  21.690  0.00  0.00    +0.149 HD
ATOM     42  C   UNK A   1       6.739   4.433  23.216  0.00  0.00    +0.214 C 
ATOM     43  O   UNK A   1       6.465   4.075  24.359  0.00  0.00    -0.276 OA
BRANCH  42  44
ATOM     44  C   UNK A   1       5.727   5.122  22.321  0.00  0.00    +0.098 C 
BRANCH  44  45
ATOM     45  C   UNK A   1       4.318   5.120  22.930  0.00  0.00    +0.039 C 
BRANCH  45  46
ATOM     46  C   UNK A   1       3.328   4.160  22.255  0.00  0.00    +0.161 C 
BRANCH  46  47
ATOM     47  N   UNK A   1       2.171   4.925  21.691  0.00  0.00    -0.318 NA
ATOM     48  H   UNK A   1       1.314   4.389  21.871  0.00  0.00    +0.119 HD
ATOM     49  H   UNK A   1       2.056   5.773  22.255  0.00  0.00    +0.119 HD
ENDBRANCH  46  47
BRANCH  46  50
ATOM     50  C   UNK A   1       2.745   3.086  23.200  0.00  0.00    +0.322 C 
ATOM     51  O   UNK A   1       1.568   2.799  23.330  0.00  0.00    -0.249 OA
BRANCH  50  52
ATOM     52  O   UNK A   1       3.735   2.499  23.928  0.00  0.00    -0.480 OA
ATOM     53  H   UNK A   1       3.358   2.353  24.832  0.00  0.00    +0.295 HD
ENDBRANCH  50  52
ENDBRANCH  46  50
ENDBRANCH  45  46
ENDBRANCH  44  45
ENDBRANCH  42  44
ENDBRANCH  30  40
ENDBRANCH  29  30
ENDBRANCH  28  29
ENDBRANCH   6  28
TORSDOF 20
ENDMDL
MODEL 2
REMARK VINA RESULT:      -7.6      2.170      5.448
REMARK  Name = 
REMARK  20 active torsions:
REMARK  status: ('A' for Active; 'I' for Inactive)
REMARK    1  A    between atoms: C_3  and  O_44
REMARK    2  A    between atoms: C_4  and  O_43
REMARK    3  A    between atoms: C_6  and  C_7
REMARK    4  A    between atoms: C_8  and  O_42
REMARK    5  A    between atoms: C_15  and  O_41
REMARK    6  A    between atoms: C_16  and  S_19
REMARK    7  A    between atoms: C_17  and  O_18
REMARK    8  A    between atoms: S_19  and  C_20
REMARK    9  A    between atoms: C_20  and  C_21
REMARK   10  A    between atoms: C_21  and  C_23
REMARK   11  A    between atoms: C_21  and  N_30
REMARK   12  A    between atoms: N_25  and  CA_26
REMARK   13  A    between atoms: CA_26  and  C_27
REMARK   14  A    between atoms: C_27  and  OXT_29
REMARK   15  A    between atoms: C_31  and  C_33
REMARK   16  A    between atoms: C_33  and  C_34
REMARK   17  A    between atoms: C_34  and  C_35
REMARK   18  A    between atoms: C_35  and  C_37
REMARK   19  A    between atoms: C_35  and  N_40
REMARK   20  A    between atoms: C_37  and  O_39
REMARK                            x       y       z     vdW  Elec       q    Type
REMARK                         _______ _______ _______ _____ _____    ______ ____
ROOT
ATOM      1  C   UNK A   1       6.858  -3.938  25.783  0.00  0.00    +0.181 A 
ATOM      2  O   UNK A   1       7.509  -2.775  26.199  0.00  0.00    -0.451 OA
ATOM      3  C   UNK A   1       8.108  -1.970  25.255  0.00  0.00    +0.147 A 
ATOM      4  C   UNK A   1       8.623  -0.741  25.688  0.00  0.00    +0.093 A 
ATOM      5  C   UNK A   1       9.209   0.141  24.770  0.00  0.00    +0.137 A 
ATOM      6  C   UNK A   1       9.294  -0.185  23.410  0.00  0.00    +0.092 A 
ATOM      7  C   UNK A   1       8.796  -1.432  23.005  0.00  0.00    +0.148 A 
ATOM      8  C   UNK A   1       8.206  -2.323  23.913  0.00  0.00    +0.110 A 
ATOM      9  C   UNK A   1       7.594  -3.590  23.473  0.00  0.00    +0.238 A 
ATOM     10  O   UNK A   1       7.654  -3.999  22.319  0.00  0.00    -0.283 OA
ATOM     11  C   UNK A   1       6.833  -4.351  24.496  0.00  0.00    +0.208 A 
ENDROOT
BRANCH   1  13
ATOM     12  C   UNK A   1       4.828  -4.344  27.250  0.00  0.00    +0.015 A 
ATOM     13  C   UNK A   1       6.151  -4.670  26.876  0.00  0.00    +0.025 A 
ATOM     14  C   UNK A   1       6.792  -5.696  27.589  0.00  0.00    +0.060 A 
ATOM     15  C   UNK A   1       6.161  -6.284  28.684  0.00  0.00    +0.159 A 
ATOM     16  C   UNK A   1       4.897  -5.874  29.095  0.00  0.00    +0.158 A 
ATOM     17  C   UNK A   1       4.212  -4.914  28.372  0.00  0.00    +0.050 A 
BRANCH  15  18
ATOM     18  O   UNK A   1       6.810  -7.267  29.377  0.00  0.00    -0.503 OA
ATOM     19  H   UNK A   1       7.652  -6.857  29.661  0.00  0.00    +0.292 HD
ENDBRANCH  15  18
BRANCH  16  20
ATOM     20  O   UNK A   1       4.371  -6.447  30.219  0.00  0.00    -0.503 OA
ATOM     21  H   UNK A   1       4.823  -6.068  30.993  0.00  0.00    +0.292 HD
ENDBRANCH  16  20
ENDBRANCH   1  13
BRANCH   5  22
ATOM     22  O   UNK A   1       9.690   1.349  25.200  0.00  0.00    -0.505 OA
ATOM     23  H   UNK A   1      10.661   1.345  25.183  0.00  0.00    +0.292 HD
ENDBRANCH   5  22
BRANCH   7  24
ATOM     24  O   UNK A   1       8.894  -1.794  21.691  0.00  0.00    -0.505 OA
ATOM     25  H   UNK A   1       9.686  -1.346  21.305  0.00  0.00    +0.292 HD
ENDBRANCH   7  24
BRANCH  11  26
ATOM     26  O   UNK A   1       6.113  -5.437  24.027  0.00  0.00    -0.501 OA
ATOM     27  H   UNK A   1       5.170  -5.212  24.083  0.00  0.00    +0.292 HD
ENDBRANCH  11  26
BRANCH   6  28
ATOM     28  S   UNK A   1       9.839   0.995  22.170  0.00  0.00    -0.116 S 
BRANCH  28  29
ATOM     29  C   UNK A   1       8.252   1.610  21.492  0.00  0.00    +0.106 C 
BRANCH  29  30
ATOM     30  C   UNK A   1       7.684   2.875  22.148  0.00  0.00    +0.169 C 
BRANCH  30  31
ATOM     31  C   UNK A   1       6.438   2.578  23.004  0.00  0.00    +0.235 C 
ATOM     32  N   GLY A   2       6.719   2.219  24.305  0.00  0.00    -0.303 N 
ATOM     33  H   GLY A   2       7.632   2.489  24.675  0.00  0.00    +0.149 HD
ATOM     34  O   UNK A   1       5.300   2.574  22.539  0.00  0.00    -0.274 OA
BRANCH  32  35
ATOM     35  CA  GLY A   2       5.670   2.066  25.298  0.00  0.00    +0.224 C 
BRANCH  35  36
ATOM     36  C   GLY A   2       5.316   0.594  25.532  0.00  0.00    +0.322 C 
ATOM     37  O   GLY A   2       5.091   0.088  26.626  0.00  0.00    -0.249 OA
BRANCH  36  38
ATOM     38  OXT GLY A   2       5.304  -0.137  24.391  0.00  0.00    -0.480 OA
ATOM     39  HXT GLY A   2       5.134   0.389  23.587  0.00  0.00    +0.295 HD
ENDBRANCH  36  38
ENDBRANCH  35  36
ENDBRANCH  32  35
ENDBRANCH  30  31
BRANCH  30  40
ATOM     40  N   UNK A   1       8.671   3.477  23.054  0.00  0.00    -0.303 N 
ATOM     41  H   UNK A   1       9.388   2.867  23.441  0.00  0.00    +0.149 HD
ATOM     42  C   UNK A   1       8.613   4.800  23.402  0.00  0.00    +0.214 C 
ATOM     43  O   UNK A   1       7.747   5.568  22.990  0.00  0.00    -0.276 OA
BRANCH  42  44
ATOM     44  C   UNK A   1       9.737   5.262  24.308  0.00  0.00    +0.098 C 
BRANCH  44  45
ATOM     45  C   UNK A   1      10.848   5.985  23.533  0.00  0.00    +0.039 C 
BRANCH  45  46
ATOM     46  C   UNK A   1      12.274   5.624  23.969  0.00  0.00    +0.161 C 
BRANCH  46  47
ATOM     47  N   UNK A   1      12.831   6.700  24.850  0.00  0.00    -0.318 NA
ATOM     48  H   UNK A   1      13.349   6.252  25.615  0.00  0.00    +0.119 HD
ATOM     49  H   UNK A   1      13.554   7.193  24.316  0.00  0.00    +0.119 HD
ENDBRANCH  46  47
BRANCH  46  50
ATOM     50  C   UNK A   1      13.265   5.436  22.800  0.00  0.00    +0.322 C 
ATOM     51  O   UNK A   1      13.038   5.639  21.620  0.00  0.00    -0.249 OA
BRANCH  50  52
ATOM     52  O   UNK A   1      14.457   4.959  23.253  0.00  0.00    -0.480 OA
ATOM     53  H   UNK A   1      14.238   4.333  23.988  0.00  0.00    +0.295 HD
ENDBRANCH  50  52
ENDBRANCH  46  50
ENDBRANCH  45  46
ENDBRANCH  44  45
ENDBRANCH  42  44
ENDBRANCH  30  40
ENDBRANCH  29  30
ENDBRANCH  28  29
ENDBRANCH   6  28
TORSDOF 20
ENDMDL
MODEL 3
REMARK VINA RESULT:      -7.5      2.558      4.374
REMARK  Name = 
REMARK  20 active torsions:
REMARK  status: ('A' for Active; 'I' for Inactive)
REMARK    1  A    between atoms: C_3  and  O_44
REMARK    2  A    between atoms: C_4  and  O_43
REMARK    3  A    between atoms: C_6  and  C_7
REMARK    4  A    between atoms: C_8  and  O_42
REMARK    5  A    between atoms: C_15  and  O_41
REMARK    6  A    between atoms: C_16  and  S_19
REMARK    7  A    between atoms: C_17  and  O_18
REMARK    8  A    between atoms: S_19  and  C_20
REMARK    9  A    between atoms: C_20  and  C_21
REMARK   10  A    between atoms: C_21  and  C_23
REMARK   11  A    between atoms: C_21  and  N_30
REMARK   12  A    between atoms: N_25  and  CA_26
REMARK   13  A    between atoms: CA_26  and  C_27
REMARK   14  A    between atoms: C_27  and  OXT_29
REMARK   15  A    between atoms: C_31  and  C_33
REMARK   16  A    between atoms: C_33  and  C_34
REMARK   17  A    between atoms: C_34  and  C_35
REMARK   18  A    between atoms: C_35  and  C_37
REMARK   19  A    between atoms: C_35  and  N_40
REMARK   20  A    between atoms: C_37  and  O_39
REMARK                            x       y       z     vdW  Elec       q    Type
REMARK                         _______ _______ _______ _____ _____    ______ ____
ROOT
ATOM      1  C   UNK A   1       5.304  -3.589  25.970  0.00  0.00    +0.181 A 
ATOM      2  O   UNK A   1       5.449  -2.405  26.696  0.00  0.00    -0.451 OA
ATOM      3  C   UNK A   1       5.727  -1.237  26.021  0.00  0.00    +0.147 A 
ATOM      4  C   UNK A   1       5.720  -0.047  26.760  0.00  0.00    +0.093 A 
ATOM      5  C   UNK A   1       5.956   1.180  26.125  0.00  0.00    +0.137 A 
ATOM      6  C   UNK A   1       6.205   1.243  24.747  0.00  0.00    +0.092 A 
ATOM      7  C   UNK A   1       6.232   0.036  24.033  0.00  0.00    +0.148 A 
ATOM      8  C   UNK A   1       5.997  -1.198  24.657  0.00  0.00    +0.110 A 
ATOM      9  C   UNK A   1       5.928  -2.456  23.890  0.00  0.00    +0.238 A 
ATOM     10  O   UNK A   1       6.178  -2.527  22.693  0.00  0.00    -0.283 OA
ATOM     11  C   UNK A   1       5.481  -3.662  24.633  0.00  0.00    +0.208 A 
ENDROOT
BRANCH   1  13
ATOM     12  C   UNK A   1       3.539  -5.152  26.908  0.00  0.00    +0.015 A 
ATOM     13  C   UNK A   1       4.894  -4.766  26.792  0.00  0.00    +0.025 A 
ATOM     14  C   UNK A   1       5.844  -5.516  27.503  0.00  0.00    +0.060 A 
ATOM     15  C   UNK A   1       5.430  -6.534  28.360  0.00  0.00    +0.159 A 
ATOM     16  C   UNK A   1       4.081  -6.830  28.534  0.00  0.00    +0.158 A 
ATOM     17  C   UNK A   1       3.126  -6.155  27.796  0.00  0.00    +0.050 A 
BRANCH  15  18
ATOM     18  O   UNK A   1       6.369  -7.240  29.058  0.00  0.00    -0.503 OA
ATOM     19  H   UNK A   1       7.029  -7.508  28.387  0.00  0.00    +0.292 HD
ENDBRANCH  15  18
BRANCH  16  20
ATOM     20  O   UNK A   1       3.747  -7.793  29.443  0.00  0.00    -0.503 OA
ATOM     21  H   UNK A   1       3.927  -7.446  30.334  0.00  0.00    +0.292 HD
ENDBRANCH  16  20
ENDBRANCH   1  13
BRANCH   5  22
ATOM     22  O   UNK A   1       5.926   2.340  26.852  0.00  0.00    -0.505 OA
ATOM     23  H   UNK A   1       6.267   3.076  26.319  0.00  0.00    +0.292 HD
ENDBRANCH   5  22
BRANCH   7  24
ATOM     24  O   UNK A   1       6.505   0.060  22.695  0.00  0.00    -0.505 OA
ATOM     25  H   UNK A   1       7.286   0.647  22.548  0.00  0.00    +0.292 HD
ENDBRANCH   7  24
BRANCH  11  26
ATOM     26  O   UNK A   1       5.245  -4.789  23.864  0.00  0.00    -0.501 OA
ATOM     27  H   UNK A   1       4.655  -4.532  23.137  0.00  0.00    +0.292 HD
ENDBRANCH  11  26
BRANCH   6  28
ATOM     28  S   UNK A   1       6.300   2.800  23.857  0.00  0.00    -0.116 S 
BRANCH  28  29
ATOM     29  C   UNK A   1       7.775   3.588  24.604  0.00  0.00    +0.106 C 
BRANCH  29  30
ATOM     30  C   UNK A   1       9.062   3.534  23.771  0.00  0.00    +0.169 C 
BRANCH  30  31
ATOM     31  C   UNK A   1       9.961   4.762  24.008  0.00  0.00    +0.235 C 
ATOM     32  N   GLY A   2      11.219   4.658  23.455  0.00  0.00    -0.303 N 
ATOM     33  H   GLY A   2      11.339   3.983  22.698  0.00  0.00    +0.149 HD
ATOM     34  O   UNK A   1       9.614   5.713  24.707  0.00  0.00    -0.274 OA
BRANCH  32  35
ATOM     35  CA  GLY A   2      12.140   5.780  23.434  0.00  0.00    +0.224 C 
BRANCH  35  36
ATOM     36  C   GLY A   2      13.380   5.486  22.584  0.00  0.00    +0.322 C 
ATOM     37  O   GLY A   2      13.474   5.694  21.379  0.00  0.00    -0.249 OA
BRANCH  36  38
ATOM     38  OXT GLY A   2      14.390   4.928  23.293  0.00  0.00    -0.480 OA
ATOM     39  HXT GLY A   2      14.378   5.155  24.242  0.00  0.00    +0.295 HD
ENDBRANCH  36  38
ENDBRANCH  35  36
ENDBRANCH  32  35
ENDBRANCH  30  31
BRANCH  30  40
ATOM     40  N   UNK A   1       9.866   2.360  24.133  0.00  0.00    -0.303 N 
ATOM     41  H   UNK A   1      10.448   2.428  24.966  0.00  0.00    +0.149 HD
ATOM     42  C   UNK A   1       9.870   1.228  23.364  0.00  0.00    +0.214 C 
ATOM     43  O   UNK A   1       9.213   1.111  22.333  0.00  0.00    -0.276 OA
BRANCH  42  44
ATOM     44  C   UNK A   1      10.720   0.098  23.912  0.00  0.00    +0.098 C 
BRANCH  44  45
ATOM     45  C   UNK A   1       9.871  -1.012  24.547  0.00  0.00    +0.039 C 
BRANCH  45  46
ATOM     46  C   UNK A   1       9.798  -2.310  23.730  0.00  0.00    +0.161 C 
BRANCH  46  47
ATOM     47  N   UNK A   1       8.984  -2.094  22.491  0.00  0.00    -0.318 NA
ATOM     48  H   UNK A   1       8.301  -1.351  22.682  0.00  0.00    +0.119 HD
ATOM     49  H   UNK A   1       9.602  -1.687  21.783  0.00  0.00    +0.119 HD
ENDBRANCH  46  47
BRANCH  46  50
ATOM     50  C   UNK A   1       9.166  -3.498  24.487  0.00  0.00    +0.322 C 
ATOM     51  O   UNK A   1       8.942  -4.607  24.034  0.00  0.00    -0.249 OA
BRANCH  50  52
ATOM     52  O   UNK A   1       8.840  -3.138  25.759  0.00  0.00    -0.480 OA
ATOM     53  H   UNK A   1       9.353  -3.743  26.353  0.00  0.00    +0.295 HD
ENDBRANCH  50  52
ENDBRANCH  46  50
ENDBRANCH  45  46
ENDBRANCH  44  45
ENDBRANCH  42  44
ENDBRANCH  30  40
ENDBRANCH  29  30
ENDBRANCH  28  29
ENDBRANCH   6  28
TORSDOF 20
ENDMDL
MODEL 4
REMARK VINA RESULT:      -7.4      2.978      4.806
REMARK  Name = 
REMARK  20 active torsions:
REMARK  status: ('A' for Active; 'I' for Inactive)
REMARK    1  A    between atoms: C_3  and  O_44
REMARK    2  A    between atoms: C_4  and  O_43
REMARK    3  A    between atoms: C_6  and  C_7
REMARK    4  A    between atoms: C_8  and  O_42
REMARK    5  A    between atoms: C_15  and  O_41
REMARK    6  A    between atoms: C_16  and  S_19
REMARK    7  A    between atoms: C_17  and  O_18
REMARK    8  A    between atoms: S_19  and  C_20
REMARK    9  A    between atoms: C_20  and  C_21
REMARK   10  A    between atoms: C_21  and  C_23
REMARK   11  A    between atoms: C_21  and  N_30
REMARK   12  A    between atoms: N_25  and  CA_26
REMARK   13  A    between atoms: CA_26  and  C_27
REMARK   14  A    between atoms: C_27  and  OXT_29
REMARK   15  A    between atoms: C_31  and  C_33
REMARK   16  A    between atoms: C_33  and  C_34
REMARK   17  A    between atoms: C_34  and  C_35
REMARK   18  A    between atoms: C_35  and  C_37
REMARK   19  A    between atoms: C_35  and  N_40
REMARK   20  A    between atoms: C_37  and  O_39
REMARK                            x       y       z     vdW  Elec       q    Type
REMARK                         _______ _______ _______ _____ _____    ______ ____
ROOT
ATOM      1  C   UNK A   1       6.658  -2.393  24.316  0.00  0.00    +0.181 A 
ATOM      2  O   UNK A   1       5.955  -1.274  23.867  0.00  0.00    -0.451 OA
ATOM      3  C   UNK A   1       6.137  -0.069  24.509  0.00  0.00    +0.147 A 
ATOM      4  C   UNK A   1       5.532   1.062  23.944  0.00  0.00    +0.093 A 
ATOM      5  C   UNK A   1       5.711   2.324  24.526  0.00  0.00    +0.137 A 
ATOM      6  C   UNK A   1       6.492   2.482  25.679  0.00  0.00    +0.092 A 
ATOM      7  C   UNK A   1       7.067   1.332  26.241  0.00  0.00    +0.148 A 
ATOM      8  C   UNK A   1       6.896   0.064  25.668  0.00  0.00    +0.110 A 
ATOM      9  C   UNK A   1       7.579  -1.129  26.201  0.00  0.00    +0.238 A 
ATOM     10  O   UNK A   1       8.244  -1.117  27.230  0.00  0.00    -0.283 OA
ATOM     11  C   UNK A   1       7.473  -2.371  25.393  0.00  0.00    +0.208 A 
ENDROOT
BRANCH   1  13
ATOM     12  C   UNK A   1       7.503  -4.116  22.655  0.00  0.00    +0.015 A 
ATOM     13  C   UNK A   1       6.469  -3.614  23.477  0.00  0.00    +0.025 A 
ATOM     14  C   UNK A   1       5.240  -4.292  23.457  0.00  0.00    +0.060 A 
ATOM     15  C   UNK A   1       5.043  -5.355  22.577  0.00  0.00    +0.159 A 
ATOM     16  C   UNK A   1       6.046  -5.766  21.705  0.00  0.00    +0.158 A 
ATOM     17  C   UNK A   1       7.290  -5.163  21.749  0.00  0.00    +0.050 A 
BRANCH  15  18
ATOM     18  O   UNK A   1       3.833  -5.989  22.560  0.00  0.00    -0.503 OA
ATOM     19  H   UNK A   1       3.270  -5.469  23.168  0.00  0.00    +0.292 HD
ENDBRANCH  15  18
BRANCH  16  20
ATOM     20  O   UNK A   1       5.758  -6.769  20.823  0.00  0.00    -0.503 OA
ATOM     21  H   UNK A   1       6.051  -6.489  19.938  0.00  0.00    +0.292 HD
ENDBRANCH  16  20
ENDBRANCH   1  13
BRANCH   5  22
ATOM     22  O   UNK A   1       5.133   3.425  23.954  0.00  0.00    -0.505 OA
ATOM     23  H   UNK A   1       5.781   3.893  23.403  0.00  0.00    +0.292 HD
ENDBRANCH   5  22
BRANCH   7  24
ATOM     24  O   UNK A   1       7.806   1.448  27.383  0.00  0.00    -0.505 OA
ATOM     25  H   UNK A   1       8.190   0.562  27.596  0.00  0.00    +0.292 HD
ENDBRANCH   7  24
BRANCH  11  26
ATOM     26  O   UNK A   1       8.267  -3.427  25.808  0.00  0.00    -0.501 OA
ATOM     27  H   UNK A   1       7.682  -4.179  25.999  0.00  0.00    +0.292 HD
ENDBRANCH  11  26
BRANCH   6  28
ATOM     28  S   UNK A   1       6.924   4.097  26.334  0.00  0.00    -0.116 S 
BRANCH  28  29
ATOM     29  C   UNK A   1       8.599   4.365  25.641  0.00  0.00    +0.106 C 
BRANCH  29  30
ATOM     30  C   UNK A   1       8.668   4.633  24.131  0.00  0.00    +0.169 C 
BRANCH  30  31
ATOM     31  C   UNK A   1       9.746   5.674  23.774  0.00  0.00    +0.235 C 
ATOM     32  N   GLY A   2      11.012   5.351  24.212  0.00  0.00    -0.303 N 
ATOM     33  H   GLY A   2      11.194   4.368  24.421  0.00  0.00    +0.149 HD
ATOM     34  O   UNK A   1       9.480   6.741  23.223  0.00  0.00    -0.274 OA
BRANCH  32  35
ATOM     35  CA  GLY A   2      12.176   6.127  23.825  0.00  0.00    +0.224 C 
BRANCH  35  36
ATOM     36  C   GLY A   2      13.038   5.389  22.795  0.00  0.00    +0.322 C 
ATOM     37  O   GLY A   2      12.756   5.248  21.611  0.00  0.00    -0.249 OA
BRANCH  36  38
ATOM     38  OXT GLY A   2      14.164   4.859  23.330  0.00  0.00    -0.480 OA
ATOM     39  HXT GLY A   2      14.174   4.854  24.306  0.00  0.00    +0.295 HD
ENDBRANCH  36  38
ENDBRANCH  35  36
ENDBRANCH  32  35
ENDBRANCH  30  31
BRANCH  30  40
ATOM     40  N   UNK A   1       9.022   3.409  23.403  0.00  0.00    -0.303 N 
ATOM     41  H   UNK A   1       9.845   2.896  23.716  0.00  0.00    +0.149 HD
ATOM     42  C   UNK A   1       8.303   2.985  22.318  0.00  0.00    +0.214 C 
ATOM     43  O   UNK A   1       7.325   3.586  21.881  0.00  0.00    -0.276 OA
BRANCH  42  44
ATOM     44  C   UNK A   1       8.781   1.678  21.717  0.00  0.00    +0.098 C 
BRANCH  44  45
ATOM     45  C   UNK A   1      10.029   1.134  22.427  0.00  0.00    +0.039 C 
BRANCH  45  46
ATOM     46  C   UNK A   1       9.757   0.003  23.428  0.00  0.00    +0.161 C 
BRANCH  46  47
ATOM     47  N   UNK A   1      10.520   0.241  24.695  0.00  0.00    -0.318 NA
ATOM     48  H   UNK A   1       9.929  -0.050  25.483  0.00  0.00    +0.119 HD
ATOM     49  H   UNK A   1      11.302  -0.419  24.714  0.00  0.00    +0.119 HD
ENDBRANCH  46  47
BRANCH  46  50
ATOM     50  C   UNK A   1      10.150  -1.401  22.918  0.00  0.00    +0.322 C 
ATOM     51  O   UNK A   1      10.352  -2.388  23.602  0.00  0.00    -0.249 OA
BRANCH  50  52
ATOM     52  O   UNK A   1      10.288  -1.397  21.564  0.00  0.00    -0.480 OA
ATOM     53  H   UNK A   1      11.239  -1.612  21.387  0.00  0.00    +0.295 HD
ENDBRANCH  50  52
ENDBRANCH  46  50
ENDBRANCH  45  46
ENDBRANCH  44  45
ENDBRANCH  42  44
ENDBRANCH  30  40
ENDBRANCH  29  30
ENDBRANCH  28  29
ENDBRANCH   6  28
TORSDOF 20
ENDMDL
MODEL 5
REMARK VINA RESULT:      -7.3      2.997      4.799
REMARK  Name = 
REMARK  20 active torsions:
REMARK  status: ('A' for Active; 'I' for Inactive)
REMARK    1  A    between atoms: C_3  and  O_44
REMARK    2  A    between atoms: C_4  and  O_43
REMARK    3  A    between atoms: C_6  and  C_7
REMARK    4  A    between atoms: C_8  and  O_42
REMARK    5  A    between atoms: C_15  and  O_41
REMARK    6  A    between atoms: C_16  and  S_19
REMARK    7  A    between atoms: C_17  and  O_18
REMARK    8  A    between atoms: S_19  and  C_20
REMARK    9  A    between atoms: C_20  and  C_21
REMARK   10  A    between atoms: C_21  and  C_23
REMARK   11  A    between atoms: C_21  and  N_30
REMARK   12  A    between atoms: N_25  and  CA_26
REMARK   13  A    between atoms: CA_26  and  C_27
REMARK   14  A    between atoms: C_27  and  OXT_29
REMARK   15  A    between atoms: C_31  and  C_33
REMARK   16  A    between atoms: C_33  and  C_34
REMARK   17  A    between atoms: C_34  and  C_35
REMARK   18  A    between atoms: C_35  and  C_37
REMARK   19  A    between atoms: C_35  and  N_40
REMARK   20  A    between atoms: C_37  and  O_39
REMARK                            x       y       z     vdW  Elec       q    Type
REMARK                         _______ _______ _______ _____ _____    ______ ____
ROOT
ATOM      1  C   UNK A   1       5.415  -3.575  25.888  0.00  0.00    +0.181 A 
ATOM      2  O   UNK A   1       4.605  -2.459  26.109  0.00  0.00    -0.451 OA
ATOM      3  C   UNK A   1       5.198  -1.255  26.422  0.00  0.00    +0.147 A 
ATOM      4  C   UNK A   1       4.368  -0.127  26.492  0.00  0.00    +0.093 A 
ATOM      5  C   UNK A   1       4.915   1.134  26.766  0.00  0.00    +0.137 A 
ATOM      6  C   UNK A   1       6.290   1.294  26.976  0.00  0.00    +0.092 A 
ATOM      7  C   UNK A   1       7.097   0.147  26.926  0.00  0.00    +0.148 A 
ATOM      8  C   UNK A   1       6.563  -1.121  26.652  0.00  0.00    +0.110 A 
ATOM      9  C   UNK A   1       7.421  -2.310  26.502  0.00  0.00    +0.238 A 
ATOM     10  O   UNK A   1       8.628  -2.297  26.712  0.00  0.00    -0.283 OA
ATOM     11  C   UNK A   1       6.760  -3.550  26.021  0.00  0.00    +0.208 A 
ENDROOT
BRANCH   1  13
ATOM     12  C   UNK A   1       4.289  -5.799  26.363  0.00  0.00    +0.015 A 
ATOM     13  C   UNK A   1       4.674  -4.794  25.447  0.00  0.00    +0.025 A 
ATOM     14  C   UNK A   1       4.356  -4.994  24.094  0.00  0.00    +0.060 A 
ATOM     15  C   UNK A   1       3.772  -6.192  23.685  0.00  0.00    +0.159 A 
ATOM     16  C   UNK A   1       3.495  -7.209  24.593  0.00  0.00    +0.158 A 
ATOM     17  C   UNK A   1       3.734  -7.014  25.942  0.00  0.00    +0.050 A 
BRANCH  15  18
ATOM     18  O   UNK A   1       3.488  -6.376  22.361  0.00  0.00    -0.503 OA
ATOM     19  H   UNK A   1       2.563  -6.693  22.346  0.00  0.00    +0.292 HD
ENDBRANCH  15  18
BRANCH  16  20
ATOM     20  O   UNK A   1       2.988  -8.382  24.109  0.00  0.00    -0.503 OA
ATOM     21  H   UNK A   1       3.561  -8.683  23.382  0.00  0.00    +0.292 HD
ENDBRANCH  16  20
ENDBRANCH   1  13
BRANCH   5  22
ATOM     22  O   UNK A   1       4.099   2.233  26.812  0.00  0.00    -0.505 OA
ATOM     23  H   UNK A   1       3.179   1.958  26.962  0.00  0.00    +0.292 HD
ENDBRANCH   5  22
BRANCH   7  24
ATOM     24  O   UNK A   1       8.437   0.264  27.159  0.00  0.00    -0.505 OA
ATOM     25  H   UNK A   1       8.729  -0.516  27.693  0.00  0.00    +0.292 HD
ENDBRANCH   7  24
BRANCH  11  26
ATOM     26  O   UNK A   1       7.606  -4.601  25.710  0.00  0.00    -0.501 OA
ATOM     27  H   UNK A   1       7.537  -4.762  24.754  0.00  0.00    +0.292 HD
ENDBRANCH  11  26
BRANCH   6  28
ATOM     28  S   UNK A   1       7.060   2.910  27.118  0.00  0.00    -0.116 S 
BRANCH  28  29
ATOM     29  C   UNK A   1       6.924   3.559  25.410  0.00  0.00    +0.106 C 
BRANCH  29  30
ATOM     30  C   UNK A   1       8.186   3.447  24.544  0.00  0.00    +0.169 C 
BRANCH  30  31
ATOM     31  C   UNK A   1       9.079   4.698  24.652  0.00  0.00    +0.235 C 
ATOM     32  N   GLY A   2      10.027   4.805  23.657  0.00  0.00    -0.303 N 
ATOM     33  H   GLY A   2       9.860   4.277  22.799  0.00  0.00    +0.149 HD
ATOM     34  O   UNK A   1       9.007   5.484  25.595  0.00  0.00    -0.274 OA
BRANCH  32  35
ATOM     35  CA  GLY A   2      10.841   5.996  23.503  0.00  0.00    +0.224 C 
BRANCH  35  36
ATOM     36  C   GLY A   2      12.317   5.723  23.811  0.00  0.00    +0.322 C 
ATOM     37  O   GLY A   2      13.038   4.956  23.183  0.00  0.00    -0.249 OA
BRANCH  36  38
ATOM     38  OXT GLY A   2      12.767   6.401  24.895  0.00  0.00    -0.480 OA
ATOM     39  HXT GLY A   2      13.211   7.242  24.678  0.00  0.00    +0.295 HD
ENDBRANCH  36  38
ENDBRANCH  35  36
ENDBRANCH  32  35
ENDBRANCH  30  31
BRANCH  30  40
ATOM     40  N   UNK A   1       9.013   2.314  24.977  0.00  0.00    -0.303 N 
ATOM     41  H   UNK A   1       9.087   2.141  25.977  0.00  0.00    +0.149 HD
ATOM     42  C   UNK A   1       9.694   1.538  24.078  0.00  0.00    +0.214 C 
ATOM     43  O   UNK A   1       9.664   1.727  22.865  0.00  0.00    -0.276 OA
BRANCH  42  44
ATOM     44  C   UNK A   1      10.459   0.384  24.696  0.00  0.00    +0.098 C 
BRANCH  44  45
ATOM     45  C   UNK A   1      10.662  -0.774  23.709  0.00  0.00    +0.039 C 
BRANCH  45  46
ATOM     46  C   UNK A   1       9.473  -1.738  23.598  0.00  0.00    +0.161 C 
BRANCH  46  47
ATOM     47  N   UNK A   1       9.895  -3.123  23.984  0.00  0.00    -0.318 NA
ATOM     48  H   UNK A   1       9.258  -3.789  23.533  0.00  0.00    +0.119 HD
ATOM     49  H   UNK A   1      10.800  -3.305  23.540  0.00  0.00    +0.119 HD
ENDBRANCH  46  47
BRANCH  46  50
ATOM     50  C   UNK A   1       8.861  -1.828  22.183  0.00  0.00    +0.322 C 
ATOM     51  O   UNK A   1       7.934  -2.541  21.840  0.00  0.00    -0.249 OA
BRANCH  50  52
ATOM     52  O   UNK A   1       9.527  -1.013  21.320  0.00  0.00    -0.480 OA
ATOM     53  H   UNK A   1       9.021  -0.163  21.302  0.00  0.00    +0.295 HD
ENDBRANCH  50  52
ENDBRANCH  46  50
ENDBRANCH  45  46
ENDBRANCH  44  45
ENDBRANCH  42  44
ENDBRANCH  30  40
ENDBRANCH  29  30
ENDBRANCH  28  29
ENDBRANCH   6  28
TORSDOF 20
ENDMDL
MODEL 6
REMARK VINA RESULT:      -7.2      4.356     10.424
REMARK  Name = 
REMARK  20 active torsions:
REMARK  status: ('A' for Active; 'I' for Inactive)
REMARK    1  A    between atoms: C_3  and  O_44
REMARK    2  A    between atoms: C_4  and  O_43
REMARK    3  A    between atoms: C_6  and  C_7
REMARK    4  A    between atoms: C_8  and  O_42
REMARK    5  A    between atoms: C_15  and  O_41
REMARK    6  A    between atoms: C_16  and  S_19
REMARK    7  A    between atoms: C_17  and  O_18
REMARK    8  A    between atoms: S_19  and  C_20
REMARK    9  A    between atoms: C_20  and  C_21
REMARK   10  A    between atoms: C_21  and  C_23
REMARK   11  A    between atoms: C_21  and  N_30
REMARK   12  A    between atoms: N_25  and  CA_26
REMARK   13  A    between atoms: CA_26  and  C_27
REMARK   14  A    between atoms: C_27  and  OXT_29
REMARK   15  A    between atoms: C_31  and  C_33
REMARK   16  A    between atoms: C_33  and  C_34
REMARK   17  A    between atoms: C_34  and  C_35
REMARK   18  A    between atoms: C_35  and  C_37
REMARK   19  A    between atoms: C_35  and  N_40
REMARK   20  A    between atoms: C_37  and  O_39
REMARK                            x       y       z     vdW  Elec       q    Type
REMARK                         _______ _______ _______ _____ _____    ______ ____
ROOT
ATOM      1  C   UNK A   1       7.164  -0.786  23.800  0.00  0.00    +0.181 A 
ATOM      2  O   UNK A   1       6.407  -0.676  24.968  0.00  0.00    -0.451 OA
ATOM      3  C   UNK A   1       5.420  -1.606  25.215  0.00  0.00    +0.147 A 
ATOM      4  C   UNK A   1       4.782  -1.553  26.462  0.00  0.00    +0.093 A 
ATOM      5  C   UNK A   1       3.798  -2.495  26.790  0.00  0.00    +0.137 A 
ATOM      6  C   UNK A   1       3.432  -3.501  25.887  0.00  0.00    +0.092 A 
ATOM      7  C   UNK A   1       4.067  -3.518  24.636  0.00  0.00    +0.148 A 
ATOM      8  C   UNK A   1       5.053  -2.582  24.295  0.00  0.00    +0.110 A 
ATOM      9  C   UNK A   1       5.790  -2.658  23.020  0.00  0.00    +0.238 A 
ATOM     10  O   UNK A   1       5.521  -3.463  22.137  0.00  0.00    -0.283 OA
ATOM     11  C   UNK A   1       6.940  -1.732  22.861  0.00  0.00    +0.208 A 
ENDROOT
BRANCH   1  13
ATOM     12  C   UNK A   1       9.570  -0.076  24.185  0.00  0.00    +0.015 A 
ATOM     13  C   UNK A   1       8.275   0.206  23.693  0.00  0.00    +0.025 A 
ATOM     14  C   UNK A   1       8.060   1.469  23.120  0.00  0.00    +0.060 A 
ATOM     15  C   UNK A   1       9.075   2.425  23.139  0.00  0.00    +0.159 A 
ATOM     16  C   UNK A   1      10.310   2.157  23.720  0.00  0.00    +0.158 A 
ATOM     17  C   UNK A   1      10.575   0.899  24.231  0.00  0.00    +0.050 A 
BRANCH  15  18
ATOM     18  O   UNK A   1       8.840   3.656  22.594  0.00  0.00    -0.503 OA
ATOM     19  H   UNK A   1       8.096   4.022  23.115  0.00  0.00    +0.292 HD
ENDBRANCH  15  18
BRANCH  16  20
ATOM     20  O   UNK A   1      11.231   3.165  23.764  0.00  0.00    -0.503 OA
ATOM     21  H   UNK A   1      11.761   3.058  24.574  0.00  0.00    +0.292 HD
ENDBRANCH  16  20
ENDBRANCH   1  13
BRANCH   5  22
ATOM     22  O   UNK A   1       3.194  -2.448  28.019  0.00  0.00    -0.505 OA
ATOM     23  H   UNK A   1       3.726  -2.936  28.669  0.00  0.00    +0.292 HD
ENDBRANCH   5  22
BRANCH   7  24
ATOM     24  O   UNK A   1       3.709  -4.466  23.720  0.00  0.00    -0.505 OA
ATOM     25  H   UNK A   1       4.434  -5.135  23.667  0.00  0.00    +0.292 HD
ENDBRANCH   7  24
BRANCH  11  26
ATOM     26  O   UNK A   1       7.731  -1.940  21.743  0.00  0.00    -0.501 OA
ATOM     27  H   UNK A   1       8.644  -2.069  22.048  0.00  0.00    +0.292 HD
ENDBRANCH  11  26
BRANCH   6  28
ATOM     28  S   UNK A   1       2.337  -4.850  26.341  0.00  0.00    -0.116 S 
BRANCH  28  29
ATOM     29  C   UNK A   1       3.361  -5.803  27.524  0.00  0.00    +0.106 C 
BRANCH  29  30
ATOM     30  C   UNK A   1       4.370  -6.781  26.906  0.00  0.00    +0.169 C 
BRANCH  30  31
ATOM     31  C   UNK A   1       3.871  -7.366  25.572  0.00  0.00    +0.235 C 
ATOM     32  N   GLY A   2       2.677  -8.049  25.665  0.00  0.00    -0.303 N 
ATOM     33  H   GLY A   2       2.085  -7.842  26.471  0.00  0.00    +0.149 HD
ATOM     34  O   UNK A   1       4.527  -7.304  24.534  0.00  0.00    -0.274 OA
BRANCH  32  35
ATOM     35  CA  GLY A   2       1.974  -8.522  24.486  0.00  0.00    +0.224 C 
BRANCH  35  36
ATOM     36  C   GLY A   2       1.494  -7.364  23.604  0.00  0.00    +0.322 C 
ATOM     37  O   GLY A   2       0.460  -6.729  23.777  0.00  0.00    -0.249 OA
BRANCH  36  38
ATOM     38  OXT GLY A   2       2.320  -7.114  22.561  0.00  0.00    -0.480 OA
ATOM     39  HXT GLY A   2       2.718  -6.223  22.577  0.00  0.00    +0.295 HD
ENDBRANCH  36  38
ENDBRANCH  35  36
ENDBRANCH  32  35
ENDBRANCH  30  31
BRANCH  30  40
ATOM     40  N   UNK A   1       5.637  -6.101  26.609  0.00  0.00    -0.303 N 
ATOM     41  H   UNK A   1       5.753  -5.712  25.675  0.00  0.00    +0.149 HD
ATOM     42  C   UNK A   1       6.643  -6.021  27.533  0.00  0.00    +0.214 C 
ATOM     43  O   UNK A   1       6.563  -6.504  28.660  0.00  0.00    -0.276 OA
BRANCH  42  44
ATOM     44  C   UNK A   1       7.860  -5.243  27.072  0.00  0.00    +0.098 C 
BRANCH  44  45
ATOM     45  C   UNK A   1       7.619  -4.526  25.737  0.00  0.00    +0.039 C 
BRANCH  45  46
ATOM     46  C   UNK A   1       8.549  -4.963  24.596  0.00  0.00    +0.161 C 
BRANCH  46  47
ATOM     47  N   UNK A   1       9.283  -3.779  24.047  0.00  0.00    -0.318 NA
ATOM     48  H   UNK A   1       9.438  -3.935  23.044  0.00  0.00    +0.119 HD
ATOM     49  H   UNK A   1       8.645  -2.978  24.078  0.00  0.00    +0.119 HD
ENDBRANCH  46  47
BRANCH  46  50
ATOM     50  C   UNK A   1       7.823  -5.637  23.412  0.00  0.00    +0.322 C 
ATOM     51  O   UNK A   1       8.335  -6.028  22.378  0.00  0.00    -0.249 OA
BRANCH  50  52
ATOM     52  O   UNK A   1       6.485  -5.713  23.650  0.00  0.00    -0.480 OA
ATOM     53  H   UNK A   1       6.322  -5.169  24.462  0.00  0.00    +0.295 HD
ENDBRANCH  50  52
ENDBRANCH  46  50
ENDBRANCH  45  46
ENDBRANCH  44  45
ENDBRANCH  42  44
ENDBRANCH  30  40
ENDBRANCH  29  30
ENDBRANCH  28  29
ENDBRANCH   6  28
TORSDOF 20
ENDMDL
MODEL 7
REMARK VINA RESULT:      -7.2      3.970     10.265
REMARK  Name = 
REMARK  20 active torsions:
REMARK  status: ('A' for Active; 'I' for Inactive)
REMARK    1  A    between atoms: C_3  and  O_44
REMARK    2  A    between atoms: C_4  and  O_43
REMARK    3  A    between atoms: C_6  and  C_7
REMARK    4  A    between atoms: C_8  and  O_42
REMARK    5  A    between atoms: C_15  and  O_41
REMARK    6  A    between atoms: C_16  and  S_19
REMARK    7  A    between atoms: C_17  and  O_18
REMARK    8  A    between atoms: S_19  and  C_20
REMARK    9  A    between atoms: C_20  and  C_21
REMARK   10  A    between atoms: C_21  and  C_23
REMARK   11  A    between atoms: C_21  and  N_30
REMARK   12  A    between atoms: N_25  and  CA_26
REMARK   13  A    between atoms: CA_26  and  C_27
REMARK   14  A    between atoms: C_27  and  OXT_29
REMARK   15  A    between atoms: C_31  and  C_33
REMARK   16  A    between atoms: C_33  and  C_34
REMARK   17  A    between atoms: C_34  and  C_35
REMARK   18  A    between atoms: C_35  and  C_37
REMARK   19  A    between atoms: C_35  and  N_40
REMARK   20  A    between atoms: C_37  and  O_39
REMARK                            x       y       z     vdW  Elec       q    Type
REMARK                         _______ _______ _______ _____ _____    ______ ____
ROOT
ATOM      1  C   UNK A   1       9.129   2.356  23.851  0.00  0.00    +0.181 A 
ATOM      2  O   UNK A   1       8.438   2.268  25.061  0.00  0.00    -0.451 OA
ATOM      3  C   UNK A   1       7.642   1.168  25.297  0.00  0.00    +0.147 A 
ATOM      4  C   UNK A   1       7.082   1.039  26.575  0.00  0.00    +0.093 A 
ATOM      5  C   UNK A   1       6.295  -0.077  26.891  0.00  0.00    +0.137 A 
ATOM      6  C   UNK A   1       6.052  -1.079  25.943  0.00  0.00    +0.092 A 
ATOM      7  C   UNK A   1       6.602  -0.916  24.663  0.00  0.00    +0.148 A 
ATOM      8  C   UNK A   1       7.392   0.195  24.335  0.00  0.00    +0.110 A 
ATOM      9  C   UNK A   1       8.051   0.319  23.022  0.00  0.00    +0.238 A 
ATOM     10  O   UNK A   1       7.870  -0.470  22.103  0.00  0.00    -0.283 OA
ATOM     11  C   UNK A   1       9.014   1.440  22.866  0.00  0.00    +0.208 A 
ENDROOT
BRANCH   1  13
ATOM     12  C   UNK A   1      11.375   3.397  23.292  0.00  0.00    +0.015 A 
ATOM     13  C   UNK A   1      10.046   3.531  23.753  0.00  0.00    +0.025 A 
ATOM     14  C   UNK A   1       9.621   4.811  24.143  0.00  0.00    +0.060 A 
ATOM     15  C   UNK A   1      10.526   5.872  24.160  0.00  0.00    +0.159 A 
ATOM     16  C   UNK A   1      11.857   5.692  23.796  0.00  0.00    +0.158 A 
ATOM     17  C   UNK A   1      12.289   4.458  23.342  0.00  0.00    +0.050 A 
BRANCH  15  18
ATOM     18  O   UNK A   1      10.098   7.106  24.561  0.00  0.00    -0.503 OA
ATOM     19  H   UNK A   1      10.919   7.615  24.716  0.00  0.00    +0.292 HD
ENDBRANCH  15  18
BRANCH  16  20
ATOM     20  O   UNK A   1      12.702   6.760  23.905  0.00  0.00    -0.503 OA
ATOM     21  H   UNK A   1      12.193   7.517  24.245  0.00  0.00    +0.292 HD
ENDBRANCH  16  20
ENDBRANCH   1  13
BRANCH   5  22
ATOM     22  O   UNK A   1       5.769  -0.203  28.149  0.00  0.00    -0.505 OA
ATOM     23  H   UNK A   1       4.856   0.129  28.163  0.00  0.00    +0.292 HD
ENDBRANCH   5  22
BRANCH   7  24
ATOM     24  O   UNK A   1       6.356  -1.859  23.707  0.00  0.00    -0.505 OA
ATOM     25  H   UNK A   1       6.385  -1.419  22.823  0.00  0.00    +0.292 HD
ENDBRANCH   7  24
BRANCH  11  26
ATOM     26  O   UNK A   1       9.758   1.435  21.698  0.00  0.00    -0.501 OA
ATOM     27  H   UNK A   1       9.256   0.941  21.030  0.00  0.00    +0.292 HD
ENDBRANCH  11  26
BRANCH   6  28
ATOM     28  S   UNK A   1       5.234  -2.622  26.364  0.00  0.00    -0.116 S 
BRANCH  28  29
ATOM     29  C   UNK A   1       6.591  -3.589  27.126  0.00  0.00    +0.106 C 
BRANCH  29  30
ATOM     30  C   UNK A   1       6.889  -4.952  26.485  0.00  0.00    +0.169 C 
BRANCH  30  31
ATOM     31  C   UNK A   1       5.805  -5.997  26.810  0.00  0.00    +0.235 C 
ATOM     32  N   GLY A   2       4.707  -5.950  25.979  0.00  0.00    -0.303 N 
ATOM     33  H   GLY A   2       4.829  -5.498  25.072  0.00  0.00    +0.149 HD
ATOM     34  O   UNK A   1       5.878  -6.747  27.782  0.00  0.00    -0.274 OA
BRANCH  32  35
ATOM     35  CA  GLY A   2       3.667  -6.962  26.030  0.00  0.00    +0.224 C 
BRANCH  35  36
ATOM     36  C   GLY A   2       3.493  -7.671  24.683  0.00  0.00    +0.322 C 
ATOM     37  O   GLY A   2       2.512  -8.328  24.354  0.00  0.00    -0.249 OA
BRANCH  36  38
ATOM     38  OXT GLY A   2       4.566  -7.532  23.868  0.00  0.00    -0.480 OA
ATOM     39  HXT GLY A   2       4.340  -7.253  22.961  0.00  0.00    +0.295 HD
ENDBRANCH  36  38
ENDBRANCH  35  36
ENDBRANCH  32  35
ENDBRANCH  30  31
BRANCH  30  40
ATOM     40  N   UNK A   1       6.925  -4.840  25.021  0.00  0.00    -0.303 N 
ATOM     41  H   UNK A   1       6.038  -4.711  24.537  0.00  0.00    +0.149 HD
ATOM     42  C   UNK A   1       8.097  -4.941  24.323  0.00  0.00    +0.214 C 
ATOM     43  O   UNK A   1       9.187  -5.130  24.858  0.00  0.00    -0.276 OA
BRANCH  42  44
ATOM     44  C   UNK A   1       7.956  -4.755  22.825  0.00  0.00    +0.098 C 
BRANCH  44  45
ATOM     45  C   UNK A   1       7.323  -5.977  22.145  0.00  0.00    +0.039 C 
BRANCH  45  46
ATOM     46  C   UNK A   1       5.904  -5.750  21.607  0.00  0.00    +0.161 C 
BRANCH  46  47
ATOM     47  N   UNK A   1       5.940  -5.565  20.121  0.00  0.00    -0.318 NA
ATOM     48  H   UNK A   1       6.843  -5.144  19.872  0.00  0.00    +0.119 HD
ATOM     49  H   UNK A   1       5.974  -6.496  19.694  0.00  0.00    +0.119 HD
ENDBRANCH  46  47
BRANCH  46  50
ATOM     50  C   UNK A   1       5.192  -4.515  22.201  0.00  0.00    +0.322 C 
ATOM     51  O   UNK A   1       4.524  -4.486  23.220  0.00  0.00    -0.249 OA
BRANCH  50  52
ATOM     52  O   UNK A   1       5.373  -3.427  21.403  0.00  0.00    -0.480 OA
ATOM     53  H   UNK A   1       5.859  -2.763  21.953  0.00  0.00    +0.295 HD
ENDBRANCH  50  52
ENDBRANCH  46  50
ENDBRANCH  45  46
ENDBRANCH  44  45
ENDBRANCH  42  44
ENDBRANCH  30  40
ENDBRANCH  29  30
ENDBRANCH  28  29
ENDBRANCH   6  28
TORSDOF 20
ENDMDL
MODEL 8
REMARK VINA RESULT:      -7.1      4.414      9.835
REMARK  Name = 
REMARK  20 active torsions:
REMARK  status: ('A' for Active; 'I' for Inactive)
REMARK    1  A    between atoms: C_3  and  O_44
REMARK    2  A    between atoms: C_4  and  O_43
REMARK    3  A    between atoms: C_6  and  C_7
REMARK    4  A    between atoms: C_8  and  O_42
REMARK    5  A    between atoms: C_15  and  O_41
REMARK    6  A    between atoms: C_16  and  S_19
REMARK    7  A    between atoms: C_17  and  O_18
REMARK    8  A    between atoms: S_19  and  C_20
REMARK    9  A    between atoms: C_20  and  C_21
REMARK   10  A    between atoms: C_21  and  C_23
REMARK   11  A    between atoms: C_21  and  N_30
REMARK   12  A    between atoms: N_25  and  CA_26
REMARK   13  A    between atoms: CA_26  and  C_27
REMARK   14  A    between atoms: C_27  and  OXT_29
REMARK   15  A    between atoms: C_31  and  C_33
REMARK   16  A    between atoms: C_33  and  C_34
REMARK   17  A    between atoms: C_34  and  C_35
REMARK   18  A    between atoms: C_35  and  C_37
REMARK   19  A    between atoms: C_35  and  N_40
REMARK   20  A    between atoms: C_37  and  O_39
REMARK                            x       y       z     vdW  Elec       q    Type
REMARK                         _______ _______ _______ _____ _____    ______ ____
ROOT
ATOM      1  C   UNK A   1       8.623  -1.904  24.569  0.00  0.00    +0.181 A 
ATOM      2  O   UNK A   1       7.445  -1.591  25.251  0.00  0.00    -0.451 OA
ATOM      3  C   UNK A   1       6.868  -2.546  26.060  0.00  0.00    +0.147 A 
ATOM      4  C   UNK A   1       5.774  -2.153  26.842  0.00  0.00    +0.093 A 
ATOM      5  C   UNK A   1       5.166  -3.066  27.715  0.00  0.00    +0.137 A 
ATOM      6  C   UNK A   1       5.635  -4.381  27.823  0.00  0.00    +0.092 A 
ATOM      7  C   UNK A   1       6.715  -4.759  27.012  0.00  0.00    +0.148 A 
ATOM      8  C   UNK A   1       7.332  -3.855  26.135  0.00  0.00    +0.110 A 
ATOM      9  C   UNK A   1       8.528  -4.222  25.355  0.00  0.00    +0.238 A 
ATOM     10  O   UNK A   1       8.993  -5.356  25.333  0.00  0.00    -0.283 OA
ATOM     11  C   UNK A   1       9.201  -3.124  24.615  0.00  0.00    +0.208 A 
ENDROOT
BRANCH   1  13
ATOM     12  C   UNK A   1      10.251   0.031  24.365  0.00  0.00    +0.015 A 
ATOM     13  C   UNK A   1       9.217  -0.760  23.815  0.00  0.00    +0.025 A 
ATOM     14  C   UNK A   1       8.747  -0.416  22.538  0.00  0.00    +0.060 A 
ATOM     15  C   UNK A   1       9.228   0.726  21.902  0.00  0.00    +0.159 A 
ATOM     16  C   UNK A   1      10.175   1.547  22.508  0.00  0.00    +0.158 A 
ATOM     17  C   UNK A   1      10.708   1.197  23.735  0.00  0.00    +0.050 A 
BRANCH  15  18
ATOM     18  O   UNK A   1       8.743   1.055  20.667  0.00  0.00    -0.503 OA
ATOM     19  H   UNK A   1       8.940   0.277  20.107  0.00  0.00    +0.292 HD
ENDBRANCH  15  18
BRANCH  16  20
ATOM     20  O   UNK A   1      10.548   2.687  21.854  0.00  0.00    -0.503 OA
ATOM     21  H   UNK A   1      11.481   2.866  22.064  0.00  0.00    +0.292 HD
ENDBRANCH  16  20
ENDBRANCH   1  13
BRANCH   5  22
ATOM     22  O   UNK A   1       4.110  -2.666  28.490  0.00  0.00    -0.505 OA
ATOM     23  H   UNK A   1       4.052  -3.222  29.284  0.00  0.00    +0.292 HD
ENDBRANCH   5  22
BRANCH   7  24
ATOM     24  O   UNK A   1       7.174  -6.044  27.069  0.00  0.00    -0.505 OA
ATOM     25  H   UNK A   1       6.464  -6.642  26.731  0.00  0.00    +0.292 HD
ENDBRANCH   7  24
BRANCH  11  26
ATOM     26  O   UNK A   1      10.420  -3.444  24.041  0.00  0.00    -0.501 OA
ATOM     27  H   UNK A   1      11.119  -3.092  24.616  0.00  0.00    +0.292 HD
ENDBRANCH  11  26
BRANCH   6  28
ATOM     28  S   UNK A   1       5.030  -5.518  29.076  0.00  0.00    -0.116 S 
BRANCH  28  29
ATOM     29  C   UNK A   1       4.504  -6.959  28.075  0.00  0.00    +0.106 C 
BRANCH  29  30
ATOM     30  C   UNK A   1       3.311  -6.729  27.137  0.00  0.00    +0.169 C 
BRANCH  30  31
ATOM     31  C   UNK A   1       2.317  -5.697  27.703  0.00  0.00    +0.235 C 
ATOM     32  N   GLY A   2       2.136  -4.588  26.904  0.00  0.00    -0.303 N 
ATOM     33  H   GLY A   2       2.386  -4.681  25.918  0.00  0.00    +0.149 HD
ATOM     34  O   UNK A   1       1.800  -5.813  28.813  0.00  0.00    -0.274 OA
BRANCH  32  35
ATOM     35  CA  GLY A   2       1.117  -3.596  27.194  0.00  0.00    +0.224 C 
BRANCH  35  36
ATOM     36  C   GLY A   2       1.185  -2.408  26.227  0.00  0.00    +0.322 C 
ATOM     37  O   GLY A   2       0.569  -2.324  25.171  0.00  0.00    -0.249 OA
BRANCH  36  38
ATOM     38  OXT GLY A   2       2.037  -1.439  26.638  0.00  0.00    -0.480 OA
ATOM     39  HXT GLY A   2       2.458  -0.948  25.907  0.00  0.00    +0.295 HD
ENDBRANCH  36  38
ENDBRANCH  35  36
ENDBRANCH  32  35
ENDBRANCH  30  31
BRANCH  30  40
ATOM     40  N   UNK A   1       3.761  -6.199  25.844  0.00  0.00    -0.303 N 
ATOM     41  H   UNK A   1       4.073  -5.230  25.816  0.00  0.00    +0.149 HD
ATOM     42  C   UNK A   1       3.731  -6.960  24.707  0.00  0.00    +0.214 C 
ATOM     43  O   UNK A   1       3.333  -8.121  24.683  0.00  0.00    -0.276 OA
BRANCH  42  44
ATOM     44  C   UNK A   1       4.277  -6.269  23.473  0.00  0.00    +0.098 C 
BRANCH  44  45
ATOM     45  C   UNK A   1       4.763  -4.844  23.773  0.00  0.00    +0.039 C 
BRANCH  45  46
ATOM     46  C   UNK A   1       5.867  -4.332  22.837  0.00  0.00    +0.161 C 
BRANCH  46  47
ATOM     47  N   UNK A   1       5.315  -3.295  21.907  0.00  0.00    -0.318 NA
ATOM     48  H   UNK A   1       4.293  -3.398  21.885  0.00  0.00    +0.119 HD
ATOM     49  H   UNK A   1       5.463  -2.380  22.342  0.00  0.00    +0.119 HD
ENDBRANCH  46  47
BRANCH  46  50
ATOM     50  C   UNK A   1       6.514  -5.428  21.962  0.00  0.00    +0.322 C 
ATOM     51  O   UNK A   1       6.118  -5.814  20.876  0.00  0.00    -0.249 OA
BRANCH  50  52
ATOM     52  O   UNK A   1       7.599  -5.962  22.587  0.00  0.00    -0.480 OA
ATOM     53  H   UNK A   1       8.386  -5.669  22.063  0.00  0.00    +0.295 HD
ENDBRANCH  50  52
ENDBRANCH  46  50
ENDBRANCH  45  46
ENDBRANCH  44  45
ENDBRANCH  42  44
ENDBRANCH  30  40
ENDBRANCH  29  30
ENDBRANCH  28  29
ENDBRANCH   6  28
TORSDOF 20
ENDMDL
MODEL 9
REMARK VINA RESULT:      -7.1      3.460     10.048
REMARK  Name = 
REMARK  20 active torsions:
REMARK  status: ('A' for Active; 'I' for Inactive)
REMARK    1  A    between atoms: C_3  and  O_44
REMARK    2  A    between atoms: C_4  and  O_43
REMARK    3  A    between atoms: C_6  and  C_7
REMARK    4  A    between atoms: C_8  and  O_42
REMARK    5  A    between atoms: C_15  and  O_41
REMARK    6  A    between atoms: C_16  and  S_19
REMARK    7  A    between atoms: C_17  and  O_18
REMARK    8  A    between atoms: S_19  and  C_20
REMARK    9  A    between atoms: C_20  and  C_21
REMARK   10  A    between atoms: C_21  and  C_23
REMARK   11  A    between atoms: C_21  and  N_30
REMARK   12  A    between atoms: N_25  and  CA_26
REMARK   13  A    between atoms: CA_26  and  C_27
REMARK   14  A    between atoms: C_27  and  OXT_29
REMARK   15  A    between atoms: C_31  and  C_33
REMARK   16  A    between atoms: C_33  and  C_34
REMARK   17  A    between atoms: C_34  and  C_35
REMARK   18  A    between atoms: C_35  and  C_37
REMARK   19  A    between atoms: C_35  and  N_40
REMARK   20  A    between atoms: C_37  and  O_39
REMARK                            x       y       z     vdW  Elec       q    Type
REMARK                         _______ _______ _______ _____ _____    ______ ____
ROOT
ATOM      1  C   UNK A   1       9.491   2.566  23.429  0.00  0.00    +0.181 A 
ATOM      2  O   UNK A   1      10.071   1.386  23.898  0.00  0.00    -0.451 OA
ATOM      3  C   UNK A   1       9.411   0.193  23.701  0.00  0.00    +0.147 A 
ATOM      4  C   UNK A   1      10.086  -0.984  24.051  0.00  0.00    +0.093 A 
ATOM      5  C   UNK A   1       9.486  -2.232  23.839  0.00  0.00    +0.137 A 
ATOM      6  C   UNK A   1       8.207  -2.330  23.276  0.00  0.00    +0.092 A 
ATOM      7  C   UNK A   1       7.540  -1.138  22.957  0.00  0.00    +0.148 A 
ATOM      8  C   UNK A   1       8.130   0.117  23.164  0.00  0.00    +0.110 A 
ATOM      9  C   UNK A   1       7.471   1.365  22.739  0.00  0.00    +0.238 A 
ATOM     10  O   UNK A   1       6.334   1.403  22.283  0.00  0.00    -0.283 OA
ATOM     11  C   UNK A   1       8.278   2.609  22.835  0.00  0.00    +0.208 A 
ENDROOT
BRANCH   1  13
ATOM     12  C   UNK A   1      11.687   3.808  23.155  0.00  0.00    +0.015 A 
ATOM     13  C   UNK A   1      10.346   3.779  23.598  0.00  0.00    +0.025 A 
ATOM     14  C   UNK A   1       9.848   4.929  24.231  0.00  0.00    +0.060 A 
ATOM     15  C   UNK A   1      10.695   6.006  24.490  0.00  0.00    +0.159 A 
ATOM     16  C   UNK A   1      12.039   5.969  24.132  0.00  0.00    +0.158 A 
ATOM     17  C   UNK A   1      12.543   4.879  23.446  0.00  0.00    +0.050 A 
BRANCH  15  18
ATOM     18  O   UNK A   1      10.196   7.108  25.125  0.00  0.00    -0.503 OA
ATOM     19  H   UNK A   1      10.928   7.757  25.108  0.00  0.00    +0.292 HD
ENDBRANCH  15  18
BRANCH  16  20
ATOM     20  O   UNK A   1      12.825   7.032  24.480  0.00  0.00    -0.503 OA
ATOM     21  H   UNK A   1      12.251   7.725  24.852  0.00  0.00    +0.292 HD
ENDBRANCH  16  20
ENDBRANCH   1  13
BRANCH   5  22
ATOM     22  O   UNK A   1      10.163  -3.377  24.166  0.00  0.00    -0.505 OA
ATOM     23  H   UNK A   1       9.817  -4.126  23.653  0.00  0.00    +0.292 HD
ENDBRANCH   5  22
BRANCH   7  24
ATOM     24  O   UNK A   1       6.278  -1.199  22.438  0.00  0.00    -0.505 OA
ATOM     25  H   UNK A   1       5.636  -1.235  23.188  0.00  0.00    +0.292 HD
ENDBRANCH   7  24
BRANCH  11  26
ATOM     26  O   UNK A   1       7.716   3.737  22.263  0.00  0.00    -0.501 OA
ATOM     27  H   UNK A   1       7.954   3.741  21.321  0.00  0.00    +0.292 HD
ENDBRANCH  11  26
BRANCH   6  28
ATOM     28  S   UNK A   1       7.488  -3.903  22.789  0.00  0.00    -0.116 S 
BRANCH  28  29
ATOM     29  C   UNK A   1       7.194  -4.715  24.405  0.00  0.00    +0.106 C 
BRANCH  29  30
ATOM     30  C   UNK A   1       5.848  -4.408  25.078  0.00  0.00    +0.169 C 
BRANCH  30  31
ATOM     31  C   UNK A   1       5.266  -5.636  25.802  0.00  0.00    +0.235 C 
ATOM     32  N   GLY A   2       3.895  -5.746  25.716  0.00  0.00    -0.303 N 
ATOM     33  H   GLY A   2       3.436  -5.243  24.954  0.00  0.00    +0.149 HD
ATOM     34  O   UNK A   1       5.958  -6.400  26.473  0.00  0.00    -0.274 OA
BRANCH  32  35
ATOM     35  CA  GLY A   2       3.192  -6.923  26.193  0.00  0.00    +0.224 C 
BRANCH  35  36
ATOM     36  C   GLY A   2       2.950  -7.938  25.071  0.00  0.00    +0.322 C 
ATOM     37  O   GLY A   2       3.134  -7.727  23.878  0.00  0.00    -0.249 OA
BRANCH  36  38
ATOM     38  OXT GLY A   2       2.467  -9.121  25.521  0.00  0.00    -0.480 OA
ATOM     39  HXT GLY A   2       1.819  -9.033  26.245  0.00  0.00    +0.295 HD
ENDBRANCH  36  38
ENDBRANCH  35  36
ENDBRANCH  32  35
ENDBRANCH  30  31
BRANCH  30  40
ATOM     40  N   UNK A   1       6.005  -3.364  26.099  0.00  0.00    -0.303 N 
ATOM     41  H   UNK A   1       6.530  -3.603  26.938  0.00  0.00    +0.149 HD
ATOM     42  C   UNK A   1       5.439  -2.127  25.954  0.00  0.00    +0.214 C 
ATOM     43  O   UNK A   1       4.769  -1.803  24.977  0.00  0.00    -0.276 OA
BRANCH  42  44
ATOM     44  C   UNK A   1       5.742  -1.160  27.082  0.00  0.00    +0.098 C 
BRANCH  44  45
ATOM     45  C   UNK A   1       5.965   0.271  26.575  0.00  0.00    +0.039 C 
BRANCH  45  46
ATOM     46  C   UNK A   1       7.208   0.968  27.144  0.00  0.00    +0.161 C 
BRANCH  46  47
ATOM     47  N   UNK A   1       8.330  -0.014  27.284  0.00  0.00    -0.318 NA
ATOM     48  H   UNK A   1       8.066  -0.874  26.789  0.00  0.00    +0.119 HD
ATOM     49  H   UNK A   1       9.125   0.347  26.748  0.00  0.00    +0.119 HD
ENDBRANCH  46  47
BRANCH  46  50
ATOM     50  C   UNK A   1       6.992   1.613  28.531  0.00  0.00    +0.322 C 
ATOM     51  O   UNK A   1       6.469   1.088  29.499  0.00  0.00    -0.249 OA
BRANCH  50  52
ATOM     52  O   UNK A   1       7.438   2.899  28.536  0.00  0.00    -0.480 OA
ATOM     53  H   UNK A   1       7.634   3.123  27.592  0.00  0.00    +0.295 HD
ENDBRANCH  50  52
ENDBRANCH  46  50
ENDBRANCH  45  46
ENDBRANCH  44  45
ENDBRANCH  42  44
ENDBRANCH  30  40
ENDBRANCH  29  30
ENDBRANCH  28  29
ENDBRANCH   6  28
TORSDOF 20
ENDMDL
