MODEL 1
REMARK VINA RESULT:      -7.7      0.000      0.000
REMARK  Name = 
REMARK  23 active torsions:
REMARK  status: ('A' for Active; 'I' for Inactive)
REMARK    1  A    between atoms: C_1  and  C_2
REMARK    2  A    between atoms: C_3  and  O_62
REMARK    3  A    between atoms: C_5  and  O_61
REMARK    4  A    between atoms: C_7  and  O_60
REMARK    5  A    between atoms: C_8  and  O_11
REMARK    6  A    between atoms: O_11  and  C_12
REMARK    7  A    between atoms: C_14  and  O_59
REMARK    8  A    between atoms: C_19  and  C_51
REMARK    9  A    between atoms: C_20  and  O_23
REMARK   10  A    between atoms: O_23  and  C_24
REMARK   11  A    between atoms: C_26  and  O_36
REMARK   12  A    between atoms: C_27  and  O_35
REMARK   13  A    between atoms: C_28  and  O_34
REMARK   14  A    between atoms: C_30  and  C_32
REMARK   15  A    between atoms: C_32  and  O_33
REMARK   16  A    between atoms: O_36  and  C_37
REMARK   17  A    between atoms: C_39  and  O_50
REMARK   18  A    between atoms: C_41  and  O_49
REMARK   19  A    between atoms: C_42  and  O_48
REMARK   20  A    between atoms: C_44  and  C_46
REMARK   21  A    between atoms: C_46  and  O_47
REMARK   22  A    between atoms: C_53  and  O_58
REMARK   23  A    between atoms: C_54  and  O_57
REMARK                            x       y       z     vdW  Elec       q    Type
REMARK                         _______ _______ _______ _____ _____    ______ ____
ROOT
ATOM      1  C   UNL     1       5.596   2.445  26.177  0.00  0.00    +0.131 A 
ATOM      2  C   UNL     1       5.859   1.309  25.406  0.00  0.00    +0.093 A 
ATOM      3  C   UNL     1       5.247   0.076  25.679  0.00  0.00    +0.147 A 
ATOM      4  O   UNL     1       5.536  -0.933  24.802  0.00  0.00    -0.451 OA
ATOM      5  C   UNL     1       4.902  -2.152  24.953  0.00  0.00    +0.181 A 
ATOM      6  C   UNL     1       4.113  -2.509  25.988  0.00  0.00    +0.214 A 
ATOM      7  C   UNL     1       3.912  -1.454  27.057  0.00  0.00    +0.238 A 
ATOM      8  O   UNL     1       3.424  -1.767  28.142  0.00  0.00    -0.283 OA
ATOM      9  C   UNL     1       4.387  -0.078  26.754  0.00  0.00    +0.109 A 
ATOM     10  C   UNL     1       4.057   1.076  27.485  0.00  0.00    +0.135 A 
ATOM     11  C   UNL     1       4.652   2.326  27.197  0.00  0.00    +0.092 A 
ENDROOT
BRANCH   5  12
ATOM     12  C   UNL     1       5.179  -3.044  23.835  0.00  0.00    +0.025 A 
ATOM     13  C   UNL     1       5.885  -2.518  22.730  0.00  0.00    +0.015 A 
ATOM     14  C   UNL     1       6.130  -3.304  21.605  0.00  0.00    +0.050 A 
ATOM     15  C   UNL     1       5.681  -4.619  21.589  0.00  0.00    +0.158 A 
ATOM     16  C   UNL     1       5.004  -5.151  22.683  0.00  0.00    +0.159 A 
ATOM     17  C   UNL     1       4.753  -4.379  23.816  0.00  0.00    +0.060 A 
BRANCH  16  18
ATOM     18  O   UNL     1       4.576  -6.447  22.582  0.00  0.00    -0.503 OA
ATOM     19  H   UNL     1       4.707  -6.877  23.447  0.00  0.00    +0.292 HD
ENDBRANCH  16  18
BRANCH  15  20
ATOM     20  O   UNL     1       5.884  -5.370  20.473  0.00  0.00    -0.503 OA
ATOM     21  H   UNL     1       5.558  -6.260  20.712  0.00  0.00    +0.292 HD
ENDBRANCH  15  20
ENDBRANCH   5  12
BRANCH  10  22
ATOM     22  O   UNL     1       3.107   1.022  28.468  0.00  0.00    -0.506 OA
ATOM     23  H   UNL     1       2.219   0.985  28.075  0.00  0.00    +0.292 HD
ENDBRANCH  10  22
BRANCH   6  24
ATOM     24  O   UNL     1       3.779  -3.821  26.267  0.00  0.00    -0.453 OA
BRANCH  24  25
ATOM     25  C   UNL     1       4.171  -4.492  27.483  0.00  0.00    +0.340 C 
ATOM     26  O   UNL     1       3.323  -5.581  27.911  0.00  0.00    -0.331 OA
ATOM     27  C   UNL     1       3.738  -6.165  29.176  0.00  0.00    +0.179 C 
ATOM     28  C   UNL     1       5.160  -6.727  29.142  0.00  0.00    +0.177 C 
ATOM     29  C   UNL     1       6.118  -5.665  28.640  0.00  0.00    +0.180 C 
ATOM     30  C   UNL     1       5.648  -4.988  27.340  0.00  0.00    +0.221 C 
BRANCH  29  31
ATOM     31  O   UNL     1       7.403  -6.282  28.485  0.00  0.00    -0.386 OA
ATOM     32  H   UNL     1       8.053  -5.561  28.364  0.00  0.00    +0.210 HD
ENDBRANCH  29  31
BRANCH  28  33
ATOM     33  O   UNL     1       5.272  -7.887  28.314  0.00  0.00    -0.386 OA
ATOM     34  H   UNL     1       5.965  -7.681  27.656  0.00  0.00    +0.210 HD
ENDBRANCH  28  33
BRANCH  30  35
ATOM     35  O   UNL     1       6.630  -4.097  26.763  0.00  0.00    -0.337 OA
BRANCH  35  36
ATOM     36  C   UNL     1       8.035  -4.346  26.847  0.00  0.00    +0.282 C 
ATOM     37  O   UNL     1       8.746  -3.090  26.672  0.00  0.00    -0.341 OA
ATOM     38  C   UNL     1       8.573  -2.473  25.379  0.00  0.00    +0.178 C 
ATOM     39  C   UNL     1       8.910  -3.406  24.199  0.00  0.00    +0.177 C 
ATOM     40  C   UNL     1       8.246  -4.754  24.400  0.00  0.00    +0.179 C 
ATOM     41  C   UNL     1       8.584  -5.328  25.785  0.00  0.00    +0.201 C 
BRANCH  41  42
ATOM     42  O   UNL     1       9.989  -5.563  25.970  0.00  0.00    -0.384 OA
ATOM     43  H   UNL     1      10.399  -5.606  25.084  0.00  0.00    +0.210 HD
ENDBRANCH  41  42
BRANCH  40  44
ATOM     44  O   UNL     1       8.662  -5.632  23.350  0.00  0.00    -0.386 OA
ATOM     45  H   UNL     1       9.635  -5.684  23.403  0.00  0.00    +0.210 HD
ENDBRANCH  40  44
BRANCH  39  46
ATOM     46  O   UNL     1      10.323  -3.631  24.049  0.00  0.00    -0.386 OA
ATOM     47  H   UNL     1      10.718  -3.282  24.879  0.00  0.00    +0.210 HD
ENDBRANCH  39  46
BRANCH  38  48
ATOM     48  C   UNL     1       9.427  -1.199  25.289  0.00  0.00    +0.190 C 
BRANCH  48  49
ATOM     49  O   UNL     1       9.685  -0.861  23.925  0.00  0.00    -0.392 OA
ATOM     50  H   UNL     1      10.282  -0.089  23.938  0.00  0.00    +0.210 HD
ENDBRANCH  48  49
ENDBRANCH  38  48
ENDBRANCH  35  36
ENDBRANCH  30  35
BRANCH  27  51
ATOM     51  C   UNL     1       2.769  -7.289  29.563  0.00  0.00    +0.190 C 
BRANCH  51  52
ATOM     52  O   UNL     1       2.222  -7.888  28.393  0.00  0.00    -0.392 OA
ATOM     53  H   UNL     1       1.326  -7.518  28.284  0.00  0.00    +0.210 HD
ENDBRANCH  51  52
ENDBRANCH  27  51
ENDBRANCH  24  25
ENDBRANCH   6  24
BRANCH   1  54
ATOM     54  O   UNL     1       6.186   3.681  26.020  0.00  0.00    -0.461 OA
BRANCH  54  58
ATOM     55  C   UNL     1       9.712   2.906  23.767  0.00  0.00    +0.041 C 
ATOM     56  C   UNL     1       9.332   4.313  24.234  0.00  0.00    +0.150 C 
ATOM     57  O   UNL     1       8.353   4.258  25.281  0.00  0.00    -0.334 OA
ATOM     58  C   UNL     1       7.046   3.829  24.873  0.00  0.00    +0.339 C 
ATOM     59  C   UNL     1       6.488   4.891  23.892  0.00  0.00    +0.214 C 
ATOM     60  C   UNL     1       7.426   4.912  22.664  0.00  0.00    +0.180 C 
ATOM     61  C   UNL     1       8.879   5.224  23.081  0.00  0.00    +0.174 C 
BRANCH  61  62
ATOM     62  O   UNL     1       9.006   6.595  23.484  0.00  0.00    -0.387 OA
ATOM     63  H   UNL     1       8.119   7.003  23.391  0.00  0.00    +0.210 HD
ENDBRANCH  61  62
BRANCH  60  64
ATOM     64  O   UNL     1       6.954   5.813  21.659  0.00  0.00    -0.386 OA
ATOM     65  H   UNL     1       6.461   5.292  20.998  0.00  0.00    +0.210 HD
ENDBRANCH  60  64
BRANCH  59  66
ATOM     66  O   UNL     1       6.479   6.195  24.516  0.00  0.00    -0.383 OA
ATOM     67  H   UNL     1       5.884   6.758  23.986  0.00  0.00    +0.210 HD
ENDBRANCH  59  66
ENDBRANCH  54  58
ENDBRANCH   1  54
TORSDOF 22
ENDMDL
MODEL 2
REMARK VINA RESULT:      -7.6      2.685      9.309
REMARK  Name = 
REMARK  23 active torsions:
REMARK  status: ('A' for Active; 'I' for Inactive)
REMARK    1  A    between atoms: C_1  and  C_2
REMARK    2  A    between atoms: C_3  and  O_62
REMARK    3  A    between atoms: C_5  and  O_61
REMARK    4  A    between atoms: C_7  and  O_60
REMARK    5  A    between atoms: C_8  and  O_11
REMARK    6  A    between atoms: O_11  and  C_12
REMARK    7  A    between atoms: C_14  and  O_59
REMARK    8  A    between atoms: C_19  and  C_51
REMARK    9  A    between atoms: C_20  and  O_23
REMARK   10  A    between atoms: O_23  and  C_24
REMARK   11  A    between atoms: C_26  and  O_36
REMARK   12  A    between atoms: C_27  and  O_35
REMARK   13  A    between atoms: C_28  and  O_34
REMARK   14  A    between atoms: C_30  and  C_32
REMARK   15  A    between atoms: C_32  and  O_33
REMARK   16  A    between atoms: O_36  and  C_37
REMARK   17  A    between atoms: C_39  and  O_50
REMARK   18  A    between atoms: C_41  and  O_49
REMARK   19  A    between atoms: C_42  and  O_48
REMARK   20  A    between atoms: C_44  and  C_46
REMARK   21  A    between atoms: C_46  and  O_47
REMARK   22  A    between atoms: C_53  and  O_58
REMARK   23  A    between atoms: C_54  and  O_57
REMARK                            x       y       z     vdW  Elec       q    Type
REMARK                         _______ _______ _______ _____ _____    ______ ____
ROOT
ATOM      1  C   UNL     1       4.568  -4.674  25.238  0.00  0.00    +0.131 A 
ATOM      2  C   UNL     1       5.341  -3.710  24.584  0.00  0.00    +0.093 A 
ATOM      3  C   UNL     1       5.295  -2.356  24.951  0.00  0.00    +0.147 A 
ATOM      4  O   UNL     1       6.157  -1.533  24.280  0.00  0.00    -0.451 OA
ATOM      5  C   UNL     1       6.234  -0.202  24.646  0.00  0.00    +0.181 A 
ATOM      6  C   UNL     1       5.421   0.422  25.524  0.00  0.00    +0.214 A 
ATOM      7  C   UNL     1       4.348  -0.441  26.158  0.00  0.00    +0.238 A 
ATOM      8  O   UNL     1       3.420   0.087  26.768  0.00  0.00    -0.283 OA
ATOM      9  C   UNL     1       4.445  -1.909  25.949  0.00  0.00    +0.109 A 
ATOM     10  C   UNL     1       3.723  -2.882  26.662  0.00  0.00    +0.135 A 
ATOM     11  C   UNL     1       3.786  -4.250  26.313  0.00  0.00    +0.092 A 
ENDROOT
BRANCH   5  12
ATOM     12  C   UNL     1       7.325   0.481  23.966  0.00  0.00    +0.025 A 
ATOM     13  C   UNL     1       7.150   0.813  22.604  0.00  0.00    +0.015 A 
ATOM     14  C   UNL     1       8.179   1.415  21.882  0.00  0.00    +0.050 A 
ATOM     15  C   UNL     1       9.379   1.697  22.524  0.00  0.00    +0.158 A 
ATOM     16  C   UNL     1       9.551   1.393  23.872  0.00  0.00    +0.159 A 
ATOM     17  C   UNL     1       8.532   0.793  24.607  0.00  0.00    +0.060 A 
BRANCH  16  18
ATOM     18  O   UNL     1      10.768   1.684  24.426  0.00  0.00    -0.503 OA
ATOM     19  H   UNL     1      10.658   2.455  25.010  0.00  0.00    +0.292 HD
ENDBRANCH  16  18
BRANCH  15  20
ATOM     20  O   UNL     1      10.397   2.245  21.806  0.00  0.00    -0.503 OA
ATOM     21  H   UNL     1      10.087   3.146  21.587  0.00  0.00    +0.292 HD
ENDBRANCH  15  20
ENDBRANCH   5  12
BRANCH  10  22
ATOM     22  O   UNL     1       2.974  -2.525  27.751  0.00  0.00    -0.506 OA
ATOM     23  H   UNL     1       3.024  -1.565  27.892  0.00  0.00    +0.292 HD
ENDBRANCH  10  22
BRANCH   6  24
ATOM     24  O   UNL     1       5.314   1.798  25.608  0.00  0.00    -0.453 OA
BRANCH  24  25
ATOM     25  C   UNL     1       5.302   2.512  26.862  0.00  0.00    +0.340 C 
ATOM     26  O   UNL     1       5.593   1.732  28.043  0.00  0.00    -0.331 OA
ATOM     27  C   UNL     1       5.496   2.500  29.273  0.00  0.00    +0.179 C 
ATOM     28  C   UNL     1       6.449   3.695  29.313  0.00  0.00    +0.177 C 
ATOM     29  C   UNL     1       6.258   4.543  28.072  0.00  0.00    +0.180 C 
ATOM     30  C   UNL     1       6.284   3.726  26.768  0.00  0.00    +0.221 C 
BRANCH  29  31
ATOM     31  O   UNL     1       7.271   5.560  28.084  0.00  0.00    -0.386 OA
ATOM     32  H   UNL     1       6.971   6.268  27.481  0.00  0.00    +0.210 HD
ENDBRANCH  29  31
BRANCH  28  33
ATOM     33  O   UNL     1       7.820   3.301  29.405  0.00  0.00    -0.386 OA
ATOM     34  H   UNL     1       7.822   2.445  29.877  0.00  0.00    +0.210 HD
ENDBRANCH  28  33
BRANCH  30  35
ATOM     35  O   UNL     1       6.272   4.541  25.573  0.00  0.00    -0.337 OA
BRANCH  35  36
ATOM     36  C   UNL     1       6.720   4.053  24.306  0.00  0.00    +0.282 C 
ATOM     37  O   UNL     1       8.107   4.446  24.115  0.00  0.00    -0.341 OA
ATOM     38  C   UNL     1       8.327   5.869  24.042  0.00  0.00    +0.178 C 
ATOM     39  C   UNL     1       7.458   6.575  22.983  0.00  0.00    +0.177 C 
ATOM     40  C   UNL     1       6.017   6.119  23.109  0.00  0.00    +0.179 C 
ATOM     41  C   UNL     1       5.928   4.585  23.089  0.00  0.00    +0.201 C 
BRANCH  41  42
ATOM     42  O   UNL     1       6.406   4.007  21.864  0.00  0.00    -0.384 OA
ATOM     43  H   UNL     1       6.736   4.737  21.304  0.00  0.00    +0.210 HD
ENDBRANCH  41  42
BRANCH  40  44
ATOM     44  O   UNL     1       5.256   6.704  22.048  0.00  0.00    -0.386 OA
ATOM     45  H   UNL     1       5.899   7.110  21.437  0.00  0.00    +0.210 HD
ENDBRANCH  40  44
BRANCH  39  46
ATOM     46  O   UNL     1       7.887   6.307  21.637  0.00  0.00    -0.386 OA
ATOM     47  H   UNL     1       8.869   6.331  21.681  0.00  0.00    +0.210 HD
ENDBRANCH  39  46
BRANCH  38  48
ATOM     48  C   UNL     1       9.810   6.156  23.766  0.00  0.00    +0.190 C 
BRANCH  48  49
ATOM     49  O   UNL     1      10.406   5.077  23.042  0.00  0.00    -0.392 OA
ATOM     50  H   UNL     1      10.852   5.472  22.270  0.00  0.00    +0.210 HD
ENDBRANCH  48  49
ENDBRANCH  38  48
ENDBRANCH  35  36
ENDBRANCH  30  35
BRANCH  27  51
ATOM     51  C   UNL     1       5.792   1.588  30.470  0.00  0.00    +0.190 C 
BRANCH  51  52
ATOM     52  O   UNL     1       5.275   0.283  30.231  0.00  0.00    -0.392 OA
ATOM     53  H   UNL     1       5.018   0.254  29.291  0.00  0.00    +0.210 HD
ENDBRANCH  51  52
ENDBRANCH  27  51
ENDBRANCH  24  25
ENDBRANCH   6  24
BRANCH   1  54
ATOM     54  O   UNL     1       4.506  -6.013  24.916  0.00  0.00    -0.461 OA
BRANCH  54  58
ATOM     55  C   UNL     1       1.208  -8.562  25.773  0.00  0.00    +0.041 C 
ATOM     56  C   UNL     1       1.967  -8.624  24.445  0.00  0.00    +0.150 C 
ATOM     57  O   UNL     1       3.241  -7.973  24.553  0.00  0.00    -0.334 OA
ATOM     58  C   UNL     1       3.187  -6.545  24.679  0.00  0.00    +0.339 C 
ATOM     59  C   UNL     1       2.586  -5.979  23.368  0.00  0.00    +0.214 C 
ATOM     60  C   UNL     1       1.148  -6.536  23.251  0.00  0.00    +0.180 C 
ATOM     61  C   UNL     1       1.150  -8.079  23.262  0.00  0.00    +0.174 C 
BRANCH  61  62
ATOM     62  O   UNL     1       1.691  -8.594  22.038  0.00  0.00    -0.387 OA
ATOM     63  H   UNL     1       2.607  -8.252  21.965  0.00  0.00    +0.210 HD
ENDBRANCH  61  62
BRANCH  60  64
ATOM     64  O   UNL     1       0.474  -6.011  22.104  0.00  0.00    -0.386 OA
ATOM     65  H   UNL     1      -0.221  -6.644  21.849  0.00  0.00    +0.210 HD
ENDBRANCH  60  64
BRANCH  59  66
ATOM     66  O   UNL     1       3.366  -6.411  22.231  0.00  0.00    -0.383 OA
ATOM     67  H   UNL     1       2.755  -6.458  21.471  0.00  0.00    +0.210 HD
ENDBRANCH  59  66
ENDBRANCH  54  58
ENDBRANCH   1  54
TORSDOF 22
ENDMDL
MODEL 3
REMARK VINA RESULT:      -7.5      2.208      9.138
REMARK  Name = 
REMARK  23 active torsions:
REMARK  status: ('A' for Active; 'I' for Inactive)
REMARK    1  A    between atoms: C_1  and  C_2
REMARK    2  A    between atoms: C_3  and  O_62
REMARK    3  A    between atoms: C_5  and  O_61
REMARK    4  A    between atoms: C_7  and  O_60
REMARK    5  A    between atoms: C_8  and  O_11
REMARK    6  A    between atoms: O_11  and  C_12
REMARK    7  A    between atoms: C_14  and  O_59
REMARK    8  A    between atoms: C_19  and  C_51
REMARK    9  A    between atoms: C_20  and  O_23
REMARK   10  A    between atoms: O_23  and  C_24
REMARK   11  A    between atoms: C_26  and  O_36
REMARK   12  A    between atoms: C_27  and  O_35
REMARK   13  A    between atoms: C_28  and  O_34
REMARK   14  A    between atoms: C_30  and  C_32
REMARK   15  A    between atoms: C_32  and  O_33
REMARK   16  A    between atoms: O_36  and  C_37
REMARK   17  A    between atoms: C_39  and  O_50
REMARK   18  A    between atoms: C_41  and  O_49
REMARK   19  A    between atoms: C_42  and  O_48
REMARK   20  A    between atoms: C_44  and  C_46
REMARK   21  A    between atoms: C_46  and  O_47
REMARK   22  A    between atoms: C_53  and  O_58
REMARK   23  A    between atoms: C_54  and  O_57
REMARK                            x       y       z     vdW  Elec       q    Type
REMARK                         _______ _______ _______ _____ _____    ______ ____
ROOT
ATOM      1  C   UNL     1       5.209  -4.280  26.995  0.00  0.00    +0.131 A 
ATOM      2  C   UNL     1       4.734  -2.972  26.863  0.00  0.00    +0.093 A 
ATOM      3  C   UNL     1       5.606  -1.885  26.699  0.00  0.00    +0.147 A 
ATOM      4  O   UNL     1       5.006  -0.671  26.507  0.00  0.00    -0.451 OA
ATOM      5  C   UNL     1       5.797   0.434  26.249  0.00  0.00    +0.181 A 
ATOM      6  C   UNL     1       7.144   0.470  26.311  0.00  0.00    +0.214 A 
ATOM      7  C   UNL     1       7.823  -0.832  26.686  0.00  0.00    +0.238 A 
ATOM      8  O   UNL     1       9.010  -0.833  27.007  0.00  0.00    -0.283 OA
ATOM      9  C   UNL     1       6.980  -2.056  26.706  0.00  0.00    +0.109 A 
ATOM     10  C   UNL     1       7.464  -3.376  26.759  0.00  0.00    +0.135 A 
ATOM     11  C   UNL     1       6.587  -4.476  26.899  0.00  0.00    +0.092 A 
ENDROOT
BRANCH   5  12
ATOM     12  C   UNL     1       4.997   1.595  25.885  0.00  0.00    +0.025 A 
ATOM     13  C   UNL     1       4.359   2.310  26.924  0.00  0.00    +0.015 A 
ATOM     14  C   UNL     1       3.534   3.395  26.636  0.00  0.00    +0.050 A 
ATOM     15  C   UNL     1       3.355   3.774  25.311  0.00  0.00    +0.158 A 
ATOM     16  C   UNL     1       3.997   3.088  24.283  0.00  0.00    +0.159 A 
ATOM     17  C   UNL     1       4.827   2.003  24.555  0.00  0.00    +0.060 A 
BRANCH  16  18
ATOM     18  O   UNL     1       3.754   3.511  23.004  0.00  0.00    -0.503 OA
ATOM     19  H   UNL     1       2.867   3.201  22.747  0.00  0.00    +0.292 HD
ENDBRANCH  16  18
BRANCH  15  20
ATOM     20  O   UNL     1       2.514   4.807  25.030  0.00  0.00    -0.503 OA
ATOM     21  H   UNL     1       1.668   4.557  25.452  0.00  0.00    +0.292 HD
ENDBRANCH  15  20
ENDBRANCH   5  12
BRANCH  10  22
ATOM     22  O   UNL     1       8.802  -3.626  26.628  0.00  0.00    -0.506 OA
ATOM     23  H   UNL     1       8.962  -4.204  25.864  0.00  0.00    +0.292 HD
ENDBRANCH  10  22
BRANCH   6  24
ATOM     24  O   UNL     1       7.866   1.648  26.378  0.00  0.00    -0.453 OA
BRANCH  24  25
ATOM     25  C   UNL     1       7.977   2.568  25.270  0.00  0.00    +0.340 C 
ATOM     26  O   UNL     1       7.828   3.969  25.589  0.00  0.00    -0.331 OA
ATOM     27  C   UNL     1       7.883   4.830  24.419  0.00  0.00    +0.179 C 
ATOM     28  C   UNL     1       9.197   4.711  23.646  0.00  0.00    +0.177 C 
ATOM     29  C   UNL     1       9.471   3.256  23.322  0.00  0.00    +0.180 C 
ATOM     30  C   UNL     1       9.340   2.326  24.541  0.00  0.00    +0.221 C 
BRANCH  29  31
ATOM     31  O   UNL     1      10.777   3.183  22.733  0.00  0.00    -0.386 OA
ATOM     32  H   UNL     1      11.143   4.090  22.741  0.00  0.00    +0.210 HD
ENDBRANCH  29  31
BRANCH  28  33
ATOM     33  O   UNL     1      10.309   5.246  24.368  0.00  0.00    -0.386 OA
ATOM     34  H   UNL     1      10.673   5.961  23.808  0.00  0.00    +0.210 HD
ENDBRANCH  28  33
BRANCH  30  35
ATOM     35  O   UNL     1       9.761   0.967  24.282  0.00  0.00    -0.337 OA
BRANCH  35  36
ATOM     36  C   UNL     1       9.771   0.405  22.967  0.00  0.00    +0.282 C 
ATOM     37  O   UNL     1       8.397   0.215  22.528  0.00  0.00    -0.341 OA
ATOM     38  C   UNL     1       7.639  -0.730  23.311  0.00  0.00    +0.178 C 
ATOM     39  C   UNL     1       8.316  -2.109  23.443  0.00  0.00    +0.177 C 
ATOM     40  C   UNL     1       9.774  -1.934  23.821  0.00  0.00    +0.179 C 
ATOM     41  C   UNL     1      10.476  -0.967  22.854  0.00  0.00    +0.201 C 
BRANCH  41  42
ATOM     42  O   UNL     1      10.487  -1.436  21.496  0.00  0.00    -0.384 OA
ATOM     43  H   UNL     1      11.021  -2.255  21.473  0.00  0.00    +0.210 HD
ENDBRANCH  41  42
BRANCH  40  44
ATOM     44  O   UNL     1      10.404  -3.218  23.830  0.00  0.00    -0.386 OA
ATOM     45  H   UNL     1       9.686  -3.878  23.791  0.00  0.00    +0.210 HD
ENDBRANCH  40  44
BRANCH  39  46
ATOM     46  O   UNL     1       8.267  -2.876  22.228  0.00  0.00    -0.386 OA
ATOM     47  H   UNL     1       7.563  -2.446  21.693  0.00  0.00    +0.210 HD
ENDBRANCH  39  46
BRANCH  38  48
ATOM     48  C   UNL     1       6.236  -0.901  22.709  0.00  0.00    +0.190 C 
BRANCH  48  49
ATOM     49  O   UNL     1       5.596  -2.062  23.243  0.00  0.00    -0.392 OA
ATOM     50  H   UNL     1       5.759  -2.786  22.611  0.00  0.00    +0.210 HD
ENDBRANCH  48  49
ENDBRANCH  38  48
ENDBRANCH  35  36
ENDBRANCH  30  35
BRANCH  27  51
ATOM     51  C   UNL     1       7.689   6.289  24.848  0.00  0.00    +0.190 C 
BRANCH  51  52
ATOM     52  O   UNL     1       6.874   6.353  26.014  0.00  0.00    -0.392 OA
ATOM     53  H   UNL     1       6.018   6.729  25.734  0.00  0.00    +0.210 HD
ENDBRANCH  51  52
ENDBRANCH  27  51
ENDBRANCH  24  25
ENDBRANCH   6  24
BRANCH   1  54
ATOM     54  O   UNL     1       4.437  -5.401  27.213  0.00  0.00    -0.461 OA
BRANCH  54  58
ATOM     55  C   UNL     1       0.444  -6.123  25.934  0.00  0.00    +0.041 C 
ATOM     56  C   UNL     1       1.566  -7.143  25.729  0.00  0.00    +0.150 C 
ATOM     57  O   UNL     1       2.685  -6.850  26.577  0.00  0.00    -0.334 OA
ATOM     58  C   UNL     1       3.426  -5.673  26.222  0.00  0.00    +0.339 C 
ATOM     59  C   UNL     1       4.062  -5.919  24.831  0.00  0.00    +0.214 C 
ATOM     60  C   UNL     1       2.900  -6.113  23.829  0.00  0.00    +0.180 C 
ATOM     61  C   UNL     1       1.988  -7.281  24.257  0.00  0.00    +0.174 C 
BRANCH  61  62
ATOM     62  O   UNL     1       2.655  -8.538  24.073  0.00  0.00    -0.387 OA
ATOM     63  H   UNL     1       3.266  -8.650  24.833  0.00  0.00    +0.210 HD
ENDBRANCH  61  62
BRANCH  60  64
ATOM     64  O   UNL     1       3.383  -6.273  22.492  0.00  0.00    -0.386 OA
ATOM     65  H   UNL     1       3.120  -5.486  21.982  0.00  0.00    +0.210 HD
ENDBRANCH  60  64
BRANCH  59  66
ATOM     66  O   UNL     1       4.881  -7.109  24.857  0.00  0.00    -0.383 OA
ATOM     67  H   UNL     1       5.792  -6.830  24.644  0.00  0.00    +0.210 HD
ENDBRANCH  59  66
ENDBRANCH  54  58
ENDBRANCH   1  54
TORSDOF 22
ENDMDL
MODEL 4
REMARK VINA RESULT:      -7.4      2.547      9.224
REMARK  Name = 
REMARK  23 active torsions:
REMARK  status: ('A' for Active; 'I' for Inactive)
REMARK    1  A    between atoms: C_1  and  C_2
REMARK    2  A    between atoms: C_3  and  O_62
REMARK    3  A    between atoms: C_5  and  O_61
REMARK    4  A    between atoms: C_7  and  O_60
REMARK    5  A    between atoms: C_8  and  O_11
REMARK    6  A    between atoms: O_11  and  C_12
REMARK    7  A    between atoms: C_14  and  O_59
REMARK    8  A    between atoms: C_19  and  C_51
REMARK    9  A    between atoms: C_20  and  O_23
REMARK   10  A    between atoms: O_23  and  C_24
REMARK   11  A    between atoms: C_26  and  O_36
REMARK   12  A    between atoms: C_27  and  O_35
REMARK   13  A    between atoms: C_28  and  O_34
REMARK   14  A    between atoms: C_30  and  C_32
REMARK   15  A    between atoms: C_32  and  O_33
REMARK   16  A    between atoms: O_36  and  C_37
REMARK   17  A    between atoms: C_39  and  O_50
REMARK   18  A    between atoms: C_41  and  O_49
REMARK   19  A    between atoms: C_42  and  O_48
REMARK   20  A    between atoms: C_44  and  C_46
REMARK   21  A    between atoms: C_46  and  O_47
REMARK   22  A    between atoms: C_53  and  O_58
REMARK   23  A    between atoms: C_54  and  O_57
REMARK                            x       y       z     vdW  Elec       q    Type
REMARK                         _______ _______ _______ _____ _____    ______ ____
ROOT
ATOM      1  C   UNL     1       5.286  -5.779  26.062  0.00  0.00    +0.131 A 
ATOM      2  C   UNL     1       4.671  -4.686  26.679  0.00  0.00    +0.093 A 
ATOM      3  C   UNL     1       5.323  -3.450  26.807  0.00  0.00    +0.147 A 
ATOM      4  O   UNL     1       4.579  -2.445  27.363  0.00  0.00    -0.451 OA
ATOM      5  C   UNL     1       5.122  -1.176  27.441  0.00  0.00    +0.181 A 
ATOM      6  C   UNL     1       6.397  -0.844  27.150  0.00  0.00    +0.214 A 
ATOM      7  C   UNL     1       7.285  -1.981  26.686  0.00  0.00    +0.238 A 
ATOM      8  O   UNL     1       8.504  -1.825  26.641  0.00  0.00    -0.283 OA
ATOM      9  C   UNL     1       6.624  -3.273  26.366  0.00  0.00    +0.109 A 
ATOM     10  C   UNL     1       7.221  -4.342  25.675  0.00  0.00    +0.135 A 
ATOM     11  C   UNL     1       6.558  -5.582  25.522  0.00  0.00    +0.092 A 
ENDROOT
BRANCH   5  12
ATOM     12  C   UNL     1       4.137  -0.197  27.881  0.00  0.00    +0.025 A 
ATOM     13  C   UNL     1       3.989   0.012  29.270  0.00  0.00    +0.015 A 
ATOM     14  C   UNL     1       3.024   0.893  29.756  0.00  0.00    +0.050 A 
ATOM     15  C   UNL     1       2.216   1.575  28.854  0.00  0.00    +0.158 A 
ATOM     16  C   UNL     1       2.371   1.390  27.482  0.00  0.00    +0.159 A 
ATOM     17  C   UNL     1       3.332   0.515  26.981  0.00  0.00    +0.060 A 
BRANCH  16  18
ATOM     18  O   UNL     1       1.524   2.082  26.660  0.00  0.00    -0.503 OA
ATOM     19  H   UNL     1       1.159   2.832  27.163  0.00  0.00    +0.292 HD
ENDBRANCH  16  18
BRANCH  15  20
ATOM     20  O   UNL     1       1.246   2.400  29.333  0.00  0.00    -0.503 OA
ATOM     21  H   UNL     1       1.163   3.102  28.656  0.00  0.00    +0.292 HD
ENDBRANCH  15  20
ENDBRANCH   5  12
BRANCH  10  22
ATOM     22  O   UNL     1       8.448  -4.188  25.091  0.00  0.00    -0.506 OA
ATOM     23  H   UNL     1       9.102  -3.907  25.752  0.00  0.00    +0.292 HD
ENDBRANCH  10  22
BRANCH   6  24
ATOM     24  O   UNL     1       6.979   0.343  27.555  0.00  0.00    -0.453 OA
BRANCH  24  25
ATOM     25  C   UNL     1       6.538   1.636  27.090  0.00  0.00    +0.340 C 
ATOM     26  O   UNL     1       6.089   2.559  28.106  0.00  0.00    -0.331 OA
ATOM     27  C   UNL     1       5.596   3.814  27.561  0.00  0.00    +0.179 C 
ATOM     28  C   UNL     1       6.646   4.567  26.742  0.00  0.00    +0.177 C 
ATOM     29  C   UNL     1       7.223   3.650  25.683  0.00  0.00    +0.180 C 
ATOM     30  C   UNL     1       7.678   2.289  26.239  0.00  0.00    +0.221 C 
BRANCH  29  31
ATOM     31  O   UNL     1       8.300   4.352  25.045  0.00  0.00    -0.386 OA
ATOM     32  H   UNL     1       8.125   4.329  24.083  0.00  0.00    +0.210 HD
ENDBRANCH  29  31
BRANCH  28  33
ATOM     33  O   UNL     1       7.709   5.078  27.549  0.00  0.00    -0.386 OA
ATOM     34  H   UNL     1       7.852   5.999  27.252  0.00  0.00    +0.210 HD
ENDBRANCH  28  33
BRANCH  30  35
ATOM     35  O   UNL     1       8.382   1.474  25.274  0.00  0.00    -0.337 OA
BRANCH  35  36
ATOM     36  C   UNL     1       7.788   1.059  24.042  0.00  0.00    +0.282 C 
ATOM     37  O   UNL     1       8.112  -0.340  23.813  0.00  0.00    -0.341 OA
ATOM     38  C   UNL     1       9.517  -0.614  23.638  0.00  0.00    +0.178 C 
ATOM     39  C   UNL     1      10.180   0.237  22.538  0.00  0.00    +0.177 C 
ATOM     40  C   UNL     1       9.791   1.693  22.706  0.00  0.00    +0.179 C 
ATOM     41  C   UNL     1       8.264   1.842  22.796  0.00  0.00    +0.201 C 
BRANCH  41  42
ATOM     42  O   UNL     1       7.583   1.400  21.611  0.00  0.00    -0.384 OA
ATOM     43  H   UNL     1       7.943   0.522  21.376  0.00  0.00    +0.210 HD
ENDBRANCH  41  42
BRANCH  40  44
ATOM     44  O   UNL     1      10.330   2.442  21.613  0.00  0.00    -0.386 OA
ATOM     45  H   UNL     1      10.570   3.318  21.969  0.00  0.00    +0.210 HD
ENDBRANCH  40  44
BRANCH  39  46
ATOM     46  O   UNL     1       9.801  -0.167  21.211  0.00  0.00    -0.386 OA
ATOM     47  H   UNL     1       9.674   0.676  20.722  0.00  0.00    +0.210 HD
ENDBRANCH  39  46
BRANCH  38  48
ATOM     48  C   UNL     1       9.725  -2.105  23.331  0.00  0.00    +0.190 C 
BRANCH  48  49
ATOM     49  O   UNL     1       8.598  -2.637  22.631  0.00  0.00    -0.392 OA
ATOM     50  H   UNL     1       8.111  -1.875  22.265  0.00  0.00    +0.210 HD
ENDBRANCH  48  49
ENDBRANCH  38  48
ENDBRANCH  35  36
ENDBRANCH  30  35
BRANCH  27  51
ATOM     51  C   UNL     1       5.118   4.716  28.706  0.00  0.00    +0.190 C 
BRANCH  51  52
ATOM     52  O   UNL     1       5.965   4.559  29.839  0.00  0.00    -0.392 OA
ATOM     53  H   UNL     1       6.854   4.851  29.565  0.00  0.00    +0.210 HD
ENDBRANCH  51  52
ENDBRANCH  27  51
ENDBRANCH  24  25
ENDBRANCH   6  24
BRANCH   1  54
ATOM     54  O   UNL     1       4.750  -7.043  25.937  0.00  0.00    -0.461 OA
BRANCH  54  58
ATOM     55  C   UNL     1       0.760  -8.522  25.888  0.00  0.00    +0.041 C 
ATOM     56  C   UNL     1       1.701  -8.666  24.690  0.00  0.00    +0.150 C 
ATOM     57  O   UNL     1       3.065  -8.460  25.083  0.00  0.00    -0.334 OA
ATOM     58  C   UNL     1       3.402  -7.109  25.432  0.00  0.00    +0.339 C 
ATOM     59  C   UNL     1       3.241  -6.240  24.158  0.00  0.00    +0.214 C 
ATOM     60  C   UNL     1       1.752  -6.307  23.749  0.00  0.00    +0.180 C 
ATOM     61  C   UNL     1       1.308  -7.765  23.508  0.00  0.00    +0.174 C 
BRANCH  61  62
ATOM     62  O   UNL     1       1.895  -8.281  22.305  0.00  0.00    -0.387 OA
ATOM     63  H   UNL     1       2.161  -7.508  21.764  0.00  0.00    +0.210 HD
ENDBRANCH  61  62
BRANCH  60  64
ATOM     64  O   UNL     1       1.481  -5.473  22.619  0.00  0.00    -0.386 OA
ATOM     65  H   UNL     1       2.034  -5.783  21.879  0.00  0.00    +0.210 HD
ENDBRANCH  60  64
BRANCH  59  66
ATOM     66  O   UNL     1       4.060  -6.762  23.089  0.00  0.00    -0.383 OA
ATOM     67  H   UNL     1       4.165  -7.718  23.254  0.00  0.00    +0.210 HD
ENDBRANCH  59  66
ENDBRANCH  54  58
ENDBRANCH   1  54
TORSDOF 22
ENDMDL
MODEL 5
REMARK VINA RESULT:      -7.2      1.709      3.918
REMARK  Name = 
REMARK  23 active torsions:
REMARK  status: ('A' for Active; 'I' for Inactive)
REMARK    1  A    between atoms: C_1  and  C_2
REMARK    2  A    between atoms: C_3  and  O_62
REMARK    3  A    between atoms: C_5  and  O_61
REMARK    4  A    between atoms: C_7  and  O_60
REMARK    5  A    between atoms: C_8  and  O_11
REMARK    6  A    between atoms: O_11  and  C_12
REMARK    7  A    between atoms: C_14  and  O_59
REMARK    8  A    between atoms: C_19  and  C_51
REMARK    9  A    between atoms: C_20  and  O_23
REMARK   10  A    between atoms: O_23  and  C_24
REMARK   11  A    between atoms: C_26  and  O_36
REMARK   12  A    between atoms: C_27  and  O_35
REMARK   13  A    between atoms: C_28  and  O_34
REMARK   14  A    between atoms: C_30  and  C_32
REMARK   15  A    between atoms: C_32  and  O_33
REMARK   16  A    between atoms: O_36  and  C_37
REMARK   17  A    between atoms: C_39  and  O_50
REMARK   18  A    between atoms: C_41  and  O_49
REMARK   19  A    between atoms: C_42  and  O_48
REMARK   20  A    between atoms: C_44  and  C_46
REMARK   21  A    between atoms: C_46  and  O_47
REMARK   22  A    between atoms: C_53  and  O_58
REMARK   23  A    between atoms: C_54  and  O_57
REMARK                            x       y       z     vdW  Elec       q    Type
REMARK                         _______ _______ _______ _____ _____    ______ ____
ROOT
ATOM      1  C   UNL     1       6.400   3.173  26.406  0.00  0.00    +0.131 A 
ATOM      2  C   UNL     1       7.035   1.930  26.340  0.00  0.00    +0.093 A 
ATOM      3  C   UNL     1       6.307   0.734  26.259  0.00  0.00    +0.147 A 
ATOM      4  O   UNL     1       7.053  -0.404  26.125  0.00  0.00    -0.451 OA
ATOM      5  C   UNL     1       6.405  -1.613  25.950  0.00  0.00    +0.181 A 
ATOM      6  C   UNL     1       5.074  -1.815  26.045  0.00  0.00    +0.214 A 
ATOM      7  C   UNL     1       4.241  -0.588  26.358  0.00  0.00    +0.238 A 
ATOM      8  O   UNL     1       3.069  -0.717  26.706  0.00  0.00    -0.283 OA
ATOM      9  C   UNL     1       4.922   0.731  26.288  0.00  0.00    +0.109 A 
ATOM     10  C   UNL     1       4.275   1.980  26.275  0.00  0.00    +0.135 A 
ATOM     11  C   UNL     1       5.007   3.189  26.330  0.00  0.00    +0.092 A 
ENDROOT
BRANCH   5  12
ATOM     12  C   UNL     1       7.340  -2.684  25.636  0.00  0.00    +0.025 A 
ATOM     13  C   UNL     1       7.485  -3.059  24.282  0.00  0.00    +0.015 A 
ATOM     14  C   UNL     1       8.321  -4.115  23.923  0.00  0.00    +0.050 A 
ATOM     15  C   UNL     1       9.021  -4.789  24.915  0.00  0.00    +0.158 A 
ATOM     16  C   UNL     1       8.900  -4.412  26.250  0.00  0.00    +0.159 A 
ATOM     17  C   UNL     1       8.071  -3.357  26.625  0.00  0.00    +0.060 A 
BRANCH  16  18
ATOM     18  O   UNL     1       9.607  -5.138  27.170  0.00  0.00    -0.503 OA
ATOM     19  H   UNL     1      10.554  -5.057  26.957  0.00  0.00    +0.292 HD
ENDBRANCH  16  18
BRANCH  15  20
ATOM     20  O   UNL     1       9.802  -5.848  24.567  0.00  0.00    -0.503 OA
ATOM     21  H   UNL     1       9.545  -6.051  23.645  0.00  0.00    +0.292 HD
ENDBRANCH  15  20
ENDBRANCH   5  12
BRANCH  10  22
ATOM     22  O   UNL     1       2.914   2.051  26.160  0.00  0.00    -0.506 OA
ATOM     23  H   UNL     1       2.506   2.128  27.038  0.00  0.00    +0.292 HD
ENDBRANCH  10  22
BRANCH   6  24
ATOM     24  O   UNL     1       4.509  -3.068  26.196  0.00  0.00    -0.453 OA
BRANCH  24  25
ATOM     25  C   UNL     1       4.459  -3.762  27.462  0.00  0.00    +0.340 C 
ATOM     26  O   UNL     1       3.362  -3.415  28.336  0.00  0.00    -0.331 OA
ATOM     27  C   UNL     1       3.414  -4.101  29.617  0.00  0.00    +0.179 C 
ATOM     28  C   UNL     1       3.382  -5.624  29.485  0.00  0.00    +0.177 C 
ATOM     29  C   UNL     1       4.467  -6.078  28.528  0.00  0.00    +0.180 C 
ATOM     30  C   UNL     1       4.467  -5.304  27.198  0.00  0.00    +0.221 C 
BRANCH  29  31
ATOM     31  O   UNL     1       4.300  -7.488  28.325  0.00  0.00    -0.386 OA
ATOM     32  H   UNL     1       4.582  -7.931  29.150  0.00  0.00    +0.210 HD
ENDBRANCH  29  31
BRANCH  28  33
ATOM     33  O   UNL     1       2.119  -6.109  29.024  0.00  0.00    -0.386 OA
ATOM     34  H   UNL     1       1.896  -5.572  28.238  0.00  0.00    +0.210 HD
ENDBRANCH  28  33
BRANCH  30  35
ATOM     35  O   UNL     1       5.384  -5.840  26.217  0.00  0.00    -0.337 OA
BRANCH  35  36
ATOM     36  C   UNL     1       5.018  -6.889  25.317  0.00  0.00    +0.282 C 
ATOM     37  O   UNL     1       5.529  -6.571  23.993  0.00  0.00    -0.341 OA
ATOM     38  C   UNL     1       4.965  -5.384  23.398  0.00  0.00    +0.178 C 
ATOM     39  C   UNL     1       3.424  -5.387  23.352  0.00  0.00    +0.177 C 
ATOM     40  C   UNL     1       2.868  -5.797  24.701  0.00  0.00    +0.179 C 
ATOM     41  C   UNL     1       3.496  -7.118  25.172  0.00  0.00    +0.201 C 
BRANCH  41  42
ATOM     42  O   UNL     1       3.216  -8.220  24.294  0.00  0.00    -0.384 OA
ATOM     43  H   UNL     1       3.147  -9.025  24.845  0.00  0.00    +0.210 HD
ENDBRANCH  41  42
BRANCH  40  44
ATOM     44  O   UNL     1       1.444  -5.897  24.600  0.00  0.00    -0.386 OA
ATOM     45  H   UNL     1       1.224  -5.764  23.659  0.00  0.00    +0.210 HD
ENDBRANCH  40  44
BRANCH  39  46
ATOM     46  O   UNL     1       2.895  -6.291  22.366  0.00  0.00    -0.386 OA
ATOM     47  H   UNL     1       3.634  -6.912  22.179  0.00  0.00    +0.210 HD
ENDBRANCH  39  46
BRANCH  38  48
ATOM     48  C   UNL     1       5.523  -5.195  21.979  0.00  0.00    +0.190 C 
BRANCH  48  49
ATOM     49  O   UNL     1       5.624  -6.452  21.306  0.00  0.00    -0.392 OA
ATOM     50  H   UNL     1       4.849  -6.516  20.718  0.00  0.00    +0.210 HD
ENDBRANCH  48  49
ENDBRANCH  38  48
ENDBRANCH  35  36
ENDBRANCH  30  35
BRANCH  27  51
ATOM     51  C   UNL     1       2.232  -3.652  30.485  0.00  0.00    +0.190 C 
BRANCH  51  52
ATOM     52  O   UNL     1       1.094  -3.399  29.668  0.00  0.00    -0.392 OA
ATOM     53  H   UNL     1       0.557  -2.733  30.138  0.00  0.00    +0.210 HD
ENDBRANCH  51  52
ENDBRANCH  27  51
ENDBRANCH  24  25
ENDBRANCH   6  24
BRANCH   1  54
ATOM     54  O   UNL     1       7.027   4.394  26.540  0.00  0.00    -0.461 OA
BRANCH  54  58
ATOM     55  C   UNL     1       5.413   6.790  23.416  0.00  0.00    +0.041 C 
ATOM     56  C   UNL     1       6.148   5.475  23.143  0.00  0.00    +0.150 C 
ATOM     57  O   UNL     1       6.236   4.681  24.334  0.00  0.00    -0.334 OA
ATOM     58  C   UNL     1       7.120   5.191  25.343  0.00  0.00    +0.339 C 
ATOM     59  C   UNL     1       8.558   5.164  24.766  0.00  0.00    +0.214 C 
ATOM     60  C   UNL     1       8.574   6.113  23.545  0.00  0.00    +0.180 C 
ATOM     61  C   UNL     1       7.527   5.683  22.496  0.00  0.00    +0.174 C 
BRANCH  61  62
ATOM     62  O   UNL     1       7.931   4.471  21.845  0.00  0.00    -0.387 OA
ATOM     63  H   UNL     1       7.427   3.741  22.263  0.00  0.00    +0.210 HD
ENDBRANCH  61  62
BRANCH  60  64
ATOM     64  O   UNL     1       9.884   6.218  22.981  0.00  0.00    -0.386 OA
ATOM     65  H   UNL     1      10.490   5.689  23.532  0.00  0.00    +0.210 HD
ENDBRANCH  60  64
BRANCH  59  66
ATOM     66  O   UNL     1       8.904   3.827  24.344  0.00  0.00    -0.383 OA
ATOM     67  H   UNL     1       9.384   3.412  25.086  0.00  0.00    +0.210 HD
ENDBRANCH  59  66
ENDBRANCH  54  58
ENDBRANCH   1  54
TORSDOF 22
ENDMDL
MODEL 6
REMARK VINA RESULT:      -7.1      2.708      9.777
REMARK  Name = 
REMARK  23 active torsions:
REMARK  status: ('A' for Active; 'I' for Inactive)
REMARK    1  A    between atoms: C_1  and  C_2
REMARK    2  A    between atoms: C_3  and  O_62
REMARK    3  A    between atoms: C_5  and  O_61
REMARK    4  A    between atoms: C_7  and  O_60
REMARK    5  A    between atoms: C_8  and  O_11
REMARK    6  A    between atoms: O_11  and  C_12
REMARK    7  A    between atoms: C_14  and  O_59
REMARK    8  A    between atoms: C_19  and  C_51
REMARK    9  A    between atoms: C_20  and  O_23
REMARK   10  A    between atoms: O_23  and  C_24
REMARK   11  A    between atoms: C_26  and  O_36
REMARK   12  A    between atoms: C_27  and  O_35
REMARK   13  A    between atoms: C_28  and  O_34
REMARK   14  A    between atoms: C_30  and  C_32
REMARK   15  A    between atoms: C_32  and  O_33
REMARK   16  A    between atoms: O_36  and  C_37
REMARK   17  A    between atoms: C_39  and  O_50
REMARK   18  A    between atoms: C_41  and  O_49
REMARK   19  A    between atoms: C_42  and  O_48
REMARK   20  A    between atoms: C_44  and  C_46
REMARK   21  A    between atoms: C_46  and  O_47
REMARK   22  A    between atoms: C_53  and  O_58
REMARK   23  A    between atoms: C_54  and  O_57
REMARK                            x       y       z     vdW  Elec       q    Type
REMARK                         _______ _______ _______ _____ _____    ______ ____
ROOT
ATOM      1  C   UNL     1       4.574  -3.422  26.812  0.00  0.00    +0.131 A 
ATOM      2  C   UNL     1       5.344  -2.692  25.901  0.00  0.00    +0.093 A 
ATOM      3  C   UNL     1       5.214  -1.301  25.775  0.00  0.00    +0.147 A 
ATOM      4  O   UNL     1       6.080  -0.703  24.902  0.00  0.00    -0.451 OA
ATOM      5  C   UNL     1       6.073   0.675  24.789  0.00  0.00    +0.181 A 
ATOM      6  C   UNL     1       5.178   1.508  25.359  0.00  0.00    +0.214 A 
ATOM      7  C   UNL     1       4.106   0.847  26.203  0.00  0.00    +0.238 A 
ATOM      8  O   UNL     1       3.117   1.491  26.550  0.00  0.00    -0.283 OA
ATOM      9  C   UNL     1       4.281  -0.595  26.518  0.00  0.00    +0.109 A 
ATOM     10  C   UNL     1       3.559  -1.309  27.490  0.00  0.00    +0.135 A 
ATOM     11  C   UNL     1       3.706  -2.707  27.638  0.00  0.00    +0.092 A 
ENDROOT
BRANCH   5  12
ATOM     12  C   UNL     1       7.174   1.152  23.965  0.00  0.00    +0.025 A 
ATOM     13  C   UNL     1       7.027   1.085  22.561  0.00  0.00    +0.015 A 
ATOM     14  C   UNL     1       8.068   1.473  21.719  0.00  0.00    +0.050 A 
ATOM     15  C   UNL     1       9.251   1.940  22.279  0.00  0.00    +0.158 A 
ATOM     16  C   UNL     1       9.396   2.029  23.661  0.00  0.00    +0.159 A 
ATOM     17  C   UNL     1       8.364   1.648  24.516  0.00  0.00    +0.060 A 
BRANCH  16  18
ATOM     18  O   UNL     1      10.598   2.480  24.134  0.00  0.00    -0.503 OA
ATOM     19  H   UNL     1      11.294   2.191  23.517  0.00  0.00    +0.292 HD
ENDBRANCH  16  18
BRANCH  15  20
ATOM     20  O   UNL     1      10.281   2.276  21.455  0.00  0.00    -0.503 OA
ATOM     21  H   UNL     1      11.084   2.008  21.942  0.00  0.00    +0.292 HD
ENDBRANCH  15  20
ENDBRANCH   5  12
BRANCH  10  22
ATOM     22  O   UNL     1       2.726  -0.650  28.353  0.00  0.00    -0.506 OA
ATOM     23  H   UNL     1       3.194  -0.442  29.178  0.00  0.00    +0.292 HD
ENDBRANCH  10  22
BRANCH   6  24
ATOM     24  O   UNL     1       5.004   2.819  24.958  0.00  0.00    -0.453 OA
BRANCH  24  25
ATOM     25  C   UNL     1       4.292   3.189  23.758  0.00  0.00    +0.340 C 
ATOM     26  O   UNL     1       2.864   2.968  23.771  0.00  0.00    -0.331 OA
ATOM     27  C   UNL     1       2.224   3.298  22.508  0.00  0.00    +0.179 C 
ATOM     28  C   UNL     1       2.421   4.758  22.097  0.00  0.00    +0.177 C 
ATOM     29  C   UNL     1       3.897   5.100  22.117  0.00  0.00    +0.180 C 
ATOM     30  C   UNL     1       4.600   4.685  23.422  0.00  0.00    +0.221 C 
BRANCH  29  31
ATOM     31  O   UNL     1       4.016   6.508  21.871  0.00  0.00    -0.386 OA
ATOM     32  H   UNL     1       3.951   6.636  20.904  0.00  0.00    +0.210 HD
ENDBRANCH  29  31
BRANCH  28  33
ATOM     33  O   UNL     1       1.718   5.667  22.946  0.00  0.00    -0.386 OA
ATOM     34  H   UNL     1       2.008   5.462  23.857  0.00  0.00    +0.210 HD
ENDBRANCH  28  33
BRANCH  30  35
ATOM     35  O   UNL     1       5.963   5.156  23.521  0.00  0.00    -0.337 OA
BRANCH  35  36
ATOM     36  C   UNL     1       6.336   6.259  24.351  0.00  0.00    +0.282 C 
ATOM     37  O   UNL     1       7.656   6.721  23.952  0.00  0.00    -0.341 OA
ATOM     38  C   UNL     1       8.715   5.761  24.144  0.00  0.00    +0.178 C 
ATOM     39  C   UNL     1       8.794   5.205  25.579  0.00  0.00    +0.177 C 
ATOM     40  C   UNL     1       7.413   4.791  26.049  0.00  0.00    +0.179 C 
ATOM     41  C   UNL     1       6.407   5.938  25.862  0.00  0.00    +0.201 C 
BRANCH  41  42
ATOM     42  O   UNL     1       6.736   7.108  26.628  0.00  0.00    -0.384 OA
ATOM     43  H   UNL     1       6.976   6.811  27.529  0.00  0.00    +0.210 HD
ENDBRANCH  41  42
BRANCH  40  44
ATOM     44  O   UNL     1       7.497   4.382  27.417  0.00  0.00    -0.386 OA
ATOM     45  H   UNL     1       8.436   4.180  27.588  0.00  0.00    +0.210 HD
ENDBRANCH  40  44
BRANCH  39  46
ATOM     46  O   UNL     1       9.310   6.160  26.522  0.00  0.00    -0.386 OA
ATOM     47  H   UNL     1      10.258   6.259  26.280  0.00  0.00    +0.210 HD
ENDBRANCH  39  46
BRANCH  38  48
ATOM     48  C   UNL     1      10.064   6.388  23.759  0.00  0.00    +0.190 C 
BRANCH  48  49
ATOM     49  O   UNL     1      10.862   5.456  23.027  0.00  0.00    -0.392 OA
ATOM     50  H   UNL     1      11.635   5.950  22.697  0.00  0.00    +0.210 HD
ENDBRANCH  48  49
ENDBRANCH  38  48
ENDBRANCH  35  36
ENDBRANCH  30  35
BRANCH  27  51
ATOM     51  C   UNL     1       0.721   3.007  22.605  0.00  0.00    +0.190 C 
BRANCH  51  52
ATOM     52  O   UNL     1       0.451   2.205  23.750  0.00  0.00    -0.392 OA
ATOM     53  H   UNL     1      -0.247   1.575  23.489  0.00  0.00    +0.210 HD
ENDBRANCH  51  52
ENDBRANCH  27  51
ENDBRANCH  24  25
ENDBRANCH   6  24
BRANCH   1  54
ATOM     54  O   UNL     1       4.593  -4.791  26.969  0.00  0.00    -0.461 OA
BRANCH  54  58
ATOM     55  C   UNL     1       0.725  -6.561  27.085  0.00  0.00    +0.041 C 
ATOM     56  C   UNL     1       1.989  -7.373  26.792  0.00  0.00    +0.150 C 
ATOM     57  O   UNL     1       3.163  -6.657  27.196  0.00  0.00    -0.334 OA
ATOM     58  C   UNL     1       3.482  -5.508  26.396  0.00  0.00    +0.339 C 
ATOM     59  C   UNL     1       3.818  -6.008  24.969  0.00  0.00    +0.214 C 
ATOM     60  C   UNL     1       2.543  -6.681  24.412  0.00  0.00    +0.180 C 
ATOM     61  C   UNL     1       2.079  -7.833  25.328  0.00  0.00    +0.174 C 
BRANCH  61  62
ATOM     62  O   UNL     1       2.979  -8.946  25.237  0.00  0.00    -0.387 OA
ATOM     63  H   UNL     1       2.504  -9.657  24.755  0.00  0.00    +0.210 HD
ENDBRANCH  61  62
BRANCH  60  64
ATOM     64  O   UNL     1       2.726  -7.113  23.061  0.00  0.00    -0.386 OA
ATOM     65  H   UNL     1       3.272  -6.447  22.605  0.00  0.00    +0.210 HD
ENDBRANCH  60  64
BRANCH  59  66
ATOM     66  O   UNL     1       4.893  -6.973  25.015  0.00  0.00    -0.383 OA
ATOM     67  H   UNL     1       4.485  -7.842  25.188  0.00  0.00    +0.210 HD
ENDBRANCH  59  66
ENDBRANCH  54  58
ENDBRANCH   1  54
TORSDOF 22
ENDMDL
MODEL 7
REMARK VINA RESULT:      -7.0      1.843      5.911
REMARK  Name = 
REMARK  23 active torsions:
REMARK  status: ('A' for Active; 'I' for Inactive)
REMARK    1  A    between atoms: C_1  and  C_2
REMARK    2  A    between atoms: C_3  and  O_62
REMARK    3  A    between atoms: C_5  and  O_61
REMARK    4  A    between atoms: C_7  and  O_60
REMARK    5  A    between atoms: C_8  and  O_11
REMARK    6  A    between atoms: O_11  and  C_12
REMARK    7  A    between atoms: C_14  and  O_59
REMARK    8  A    between atoms: C_19  and  C_51
REMARK    9  A    between atoms: C_20  and  O_23
REMARK   10  A    between atoms: O_23  and  C_24
REMARK   11  A    between atoms: C_26  and  O_36
REMARK   12  A    between atoms: C_27  and  O_35
REMARK   13  A    between atoms: C_28  and  O_34
REMARK   14  A    between atoms: C_30  and  C_32
REMARK   15  A    between atoms: C_32  and  O_33
REMARK   16  A    between atoms: O_36  and  C_37
REMARK   17  A    between atoms: C_39  and  O_50
REMARK   18  A    between atoms: C_41  and  O_49
REMARK   19  A    between atoms: C_42  and  O_48
REMARK   20  A    between atoms: C_44  and  C_46
REMARK   21  A    between atoms: C_46  and  O_47
REMARK   22  A    between atoms: C_53  and  O_58
REMARK   23  A    between atoms: C_54  and  O_57
REMARK                            x       y       z     vdW  Elec       q    Type
REMARK                         _______ _______ _______ _____ _____    ______ ____
ROOT
ATOM      1  C   UNL     1       8.769   2.926  24.869  0.00  0.00    +0.131 A 
ATOM      2  C   UNL     1       7.654   2.234  25.350  0.00  0.00    +0.093 A 
ATOM      3  C   UNL     1       7.612   0.832  25.375  0.00  0.00    +0.147 A 
ATOM      4  O   UNL     1       6.492   0.285  25.940  0.00  0.00    -0.451 OA
ATOM      5  C   UNL     1       6.417  -1.088  26.082  0.00  0.00    +0.181 A 
ATOM      6  C   UNL     1       7.293  -1.983  25.577  0.00  0.00    +0.214 A 
ATOM      7  C   UNL     1       8.458  -1.400  24.803  0.00  0.00    +0.238 A 
ATOM      8  O   UNL     1       9.157  -2.133  24.106  0.00  0.00    -0.283 OA
ATOM      9  C   UNL     1       8.659   0.071  24.881  0.00  0.00    +0.109 A 
ATOM     10  C   UNL     1       9.814   0.757  24.469  0.00  0.00    +0.135 A 
ATOM     11  C   UNL     1       9.870   2.170  24.466  0.00  0.00    +0.092 A 
ENDROOT
BRANCH   5  12
ATOM     12  C   UNL     1       5.255  -1.485  26.865  0.00  0.00    +0.025 A 
ATOM     13  C   UNL     1       4.106  -1.920  26.168  0.00  0.00    +0.015 A 
ATOM     14  C   UNL     1       2.943  -2.258  26.858  0.00  0.00    +0.050 A 
ATOM     15  C   UNL     1       2.932  -2.174  28.245  0.00  0.00    +0.158 A 
ATOM     16  C   UNL     1       4.067  -1.766  28.940  0.00  0.00    +0.159 A 
ATOM     17  C   UNL     1       5.238  -1.427  28.265  0.00  0.00    +0.060 A 
BRANCH  16  18
ATOM     18  O   UNL     1       3.970  -1.690  30.303  0.00  0.00    -0.503 OA
ATOM     19  H   UNL     1       3.625  -2.539  30.630  0.00  0.00    +0.292 HD
ENDBRANCH  16  18
BRANCH  15  20
ATOM     20  O   UNL     1       1.782  -2.462  28.913  0.00  0.00    -0.503 OA
ATOM     21  H   UNL     1       1.984  -2.264  29.849  0.00  0.00    +0.292 HD
ENDBRANCH  15  20
ENDBRANCH   5  12
BRANCH  10  22
ATOM     22  O   UNL     1      10.935   0.064  24.104  0.00  0.00    -0.506 OA
ATOM     23  H   UNL     1      11.681   0.305  24.677  0.00  0.00    +0.292 HD
ENDBRANCH  10  22
BRANCH   6  24
ATOM     24  O   UNL     1       7.009  -3.330  25.452  0.00  0.00    -0.453 OA
BRANCH  24  25
ATOM     25  C   UNL     1       6.131  -3.859  24.436  0.00  0.00    +0.340 C 
ATOM     26  O   UNL     1       6.694  -3.990  23.112  0.00  0.00    -0.331 OA
ATOM     27  C   UNL     1       5.735  -4.464  22.128  0.00  0.00    +0.179 C 
ATOM     28  C   UNL     1       5.146  -5.833  22.472  0.00  0.00    +0.177 C 
ATOM     29  C   UNL     1       4.584  -5.808  23.879  0.00  0.00    +0.180 C 
ATOM     30  C   UNL     1       5.567  -5.237  24.917  0.00  0.00    +0.221 C 
BRANCH  29  31
ATOM     31  O   UNL     1       4.182  -7.146  24.206  0.00  0.00    -0.386 OA
ATOM     32  H   UNL     1       3.446  -7.378  23.604  0.00  0.00    +0.210 HD
ENDBRANCH  29  31
BRANCH  28  33
ATOM     33  O   UNL     1       6.108  -6.886  22.370  0.00  0.00    -0.386 OA
ATOM     34  H   UNL     1       6.028  -7.233  21.459  0.00  0.00    +0.210 HD
ENDBRANCH  28  33
BRANCH  30  35
ATOM     35  O   UNL     1       5.107  -5.365  26.282  0.00  0.00    -0.337 OA
BRANCH  35  36
ATOM     36  C   UNL     1       5.342  -6.539  27.064  0.00  0.00    +0.282 C 
ATOM     37  O   UNL     1       4.066  -7.179  27.344  0.00  0.00    -0.341 OA
ATOM     38  C   UNL     1       3.161  -6.394  28.148  0.00  0.00    +0.178 C 
ATOM     39  C   UNL     1       3.777  -5.906  29.474  0.00  0.00    +0.177 C 
ATOM     40  C   UNL     1       5.146  -5.307  29.218  0.00  0.00    +0.179 C 
ATOM     41  C   UNL     1       6.029  -6.284  28.425  0.00  0.00    +0.201 C 
BRANCH  41  42
ATOM     42  O   UNL     1       6.275  -7.516  29.123  0.00  0.00    -0.384 OA
ATOM     43  H   UNL     1       6.010  -8.247  28.530  0.00  0.00    +0.210 HD
ENDBRANCH  41  42
BRANCH  40  44
ATOM     44  O   UNL     1       5.739  -4.963  30.474  0.00  0.00    -0.386 OA
ATOM     45  H   UNL     1       6.274  -5.731  30.747  0.00  0.00    +0.210 HD
ENDBRANCH  40  44
BRANCH  39  46
ATOM     46  O   UNL     1       3.932  -6.958  30.441  0.00  0.00    -0.386 OA
ATOM     47  H   UNL     1       4.886  -6.940  30.676  0.00  0.00    +0.210 HD
ENDBRANCH  39  46
BRANCH  38  48
ATOM     48  C   UNL     1       1.886  -7.201  28.438  0.00  0.00    +0.190 C 
BRANCH  48  49
ATOM     49  O   UNL     1       2.212  -8.473  29.000  0.00  0.00    -0.392 OA
ATOM     50  H   UNL     1       2.011  -9.140  28.317  0.00  0.00    +0.210 HD
ENDBRANCH  48  49
ENDBRANCH  38  48
ENDBRANCH  35  36
ENDBRANCH  30  35
BRANCH  27  51
ATOM     51  C   UNL     1       6.411  -4.545  20.753  0.00  0.00    +0.190 C 
BRANCH  51  52
ATOM     52  O   UNL     1       5.856  -5.617  19.998  0.00  0.00    -0.392 OA
ATOM     53  H   UNL     1       6.461  -6.375  20.105  0.00  0.00    +0.210 HD
ENDBRANCH  51  52
ENDBRANCH  27  51
ENDBRANCH  24  25
ENDBRANCH   6  24
BRANCH   1  54
ATOM     54  O   UNL     1       8.882   4.295  24.755  0.00  0.00    -0.461 OA
BRANCH  54  58
ATOM     55  C   UNL     1       4.956   5.811  25.380  0.00  0.00    +0.041 C 
ATOM     56  C   UNL     1       5.276   4.796  24.280  0.00  0.00    +0.150 C 
ATOM     57  O   UNL     1       6.536   4.157  24.524  0.00  0.00    -0.334 OA
ATOM     58  C   UNL     1       7.688   4.996  24.355  0.00  0.00    +0.339 C 
ATOM     59  C   UNL     1       7.757   5.406  22.862  0.00  0.00    +0.214 C 
ATOM     60  C   UNL     1       6.480   6.223  22.557  0.00  0.00    +0.180 C 
ATOM     61  C   UNL     1       5.211   5.403  22.868  0.00  0.00    +0.174 C 
BRANCH  61  62
ATOM     62  O   UNL     1       5.039   4.351  21.909  0.00  0.00    -0.387 OA
ATOM     63  H   UNL     1       4.762   3.553  22.408  0.00  0.00    +0.210 HD
ENDBRANCH  61  62
BRANCH  60  64
ATOM     64  O   UNL     1       6.482   6.715  21.214  0.00  0.00    -0.386 OA
ATOM     65  H   UNL     1       5.858   6.175  20.696  0.00  0.00    +0.210 HD
ENDBRANCH  60  64
BRANCH  59  66
ATOM     66  O   UNL     1       7.793   4.232  22.021  0.00  0.00    -0.383 OA
ATOM     67  H   UNL     1       7.768   4.546  21.097  0.00  0.00    +0.210 HD
ENDBRANCH  59  66
ENDBRANCH  54  58
ENDBRANCH   1  54
TORSDOF 22
ENDMDL
MODEL 8
REMARK VINA RESULT:      -7.0      2.895      9.649
REMARK  Name = 
REMARK  23 active torsions:
REMARK  status: ('A' for Active; 'I' for Inactive)
REMARK    1  A    between atoms: C_1  and  C_2
REMARK    2  A    between atoms: C_3  and  O_62
REMARK    3  A    between atoms: C_5  and  O_61
REMARK    4  A    between atoms: C_7  and  O_60
REMARK    5  A    between atoms: C_8  and  O_11
REMARK    6  A    between atoms: O_11  and  C_12
REMARK    7  A    between atoms: C_14  and  O_59
REMARK    8  A    between atoms: C_19  and  C_51
REMARK    9  A    between atoms: C_20  and  O_23
REMARK   10  A    between atoms: O_23  and  C_24
REMARK   11  A    between atoms: C_26  and  O_36
REMARK   12  A    between atoms: C_27  and  O_35
REMARK   13  A    between atoms: C_28  and  O_34
REMARK   14  A    between atoms: C_30  and  C_32
REMARK   15  A    between atoms: C_32  and  O_33
REMARK   16  A    between atoms: O_36  and  C_37
REMARK   17  A    between atoms: C_39  and  O_50
REMARK   18  A    between atoms: C_41  and  O_49
REMARK   19  A    between atoms: C_42  and  O_48
REMARK   20  A    between atoms: C_44  and  C_46
REMARK   21  A    between atoms: C_46  and  O_47
REMARK   22  A    between atoms: C_53  and  O_58
REMARK   23  A    between atoms: C_54  and  O_57
REMARK                            x       y       z     vdW  Elec       q    Type
REMARK                         _______ _______ _______ _____ _____    ______ ____
ROOT
ATOM      1  C   UNL     1       4.773  -4.741  25.214  0.00  0.00    +0.131 A 
ATOM      2  C   UNL     1       5.489  -3.748  24.539  0.00  0.00    +0.093 A 
ATOM      3  C   UNL     1       5.514  -2.421  24.995  0.00  0.00    +0.147 A 
ATOM      4  O   UNL     1       6.313  -1.568  24.284  0.00  0.00    -0.451 OA
ATOM      5  C   UNL     1       6.460  -0.266  24.723  0.00  0.00    +0.181 A 
ATOM      6  C   UNL     1       5.767   0.311  25.727  0.00  0.00    +0.214 A 
ATOM      7  C   UNL     1       4.754  -0.576  26.423  0.00  0.00    +0.238 A 
ATOM      8  O   UNL     1       3.913  -0.076  27.168  0.00  0.00    -0.283 OA
ATOM      9  C   UNL     1       4.793  -2.029  26.110  0.00  0.00    +0.109 A 
ATOM     10  C   UNL     1       4.135  -3.035  26.838  0.00  0.00    +0.135 A 
ATOM     11  C   UNL     1       4.128  -4.379  26.396  0.00  0.00    +0.092 A 
ENDROOT
BRANCH   5  12
ATOM     12  C   UNL     1       7.483   0.445  23.968  0.00  0.00    +0.025 A 
ATOM     13  C   UNL     1       7.185   0.812  22.637  0.00  0.00    +0.015 A 
ATOM     14  C   UNL     1       8.142   1.442  21.843  0.00  0.00    +0.050 A 
ATOM     15  C   UNL     1       9.392   1.717  22.384  0.00  0.00    +0.158 A 
ATOM     16  C   UNL     1       9.687   1.378  23.702  0.00  0.00    +0.159 A 
ATOM     17  C   UNL     1       8.740   0.749  24.508  0.00  0.00    +0.060 A 
BRANCH  16  18
ATOM     18  O   UNL     1      10.946   1.663  24.153  0.00  0.00    -0.503 OA
ATOM     19  H   UNL     1      11.584   1.187  23.593  0.00  0.00    +0.292 HD
ENDBRANCH  16  18
BRANCH  15  20
ATOM     20  O   UNL     1      10.339   2.293  21.593  0.00  0.00    -0.503 OA
ATOM     21  H   UNL     1      10.673   1.561  21.036  0.00  0.00    +0.292 HD
ENDBRANCH  15  20
ENDBRANCH   5  12
BRANCH  10  22
ATOM     22  O   UNL     1       3.523  -2.740  28.025  0.00  0.00    -0.506 OA
ATOM     23  H   UNL     1       3.546  -1.783  28.186  0.00  0.00    +0.292 HD
ENDBRANCH  10  22
BRANCH   6  24
ATOM     24  O   UNL     1       5.701   1.679  25.911  0.00  0.00    -0.453 OA
BRANCH  24  25
ATOM     25  C   UNL     1       5.624   2.297  27.214  0.00  0.00    +0.340 C 
ATOM     26  O   UNL     1       6.720   2.023  28.114  0.00  0.00    -0.331 OA
ATOM     27  C   UNL     1       6.542   2.619  29.428  0.00  0.00    +0.179 C 
ATOM     28  C   UNL     1       6.405   4.142  29.383  0.00  0.00    +0.177 C 
ATOM     29  C   UNL     1       5.311   4.529  28.407  0.00  0.00    +0.180 C 
ATOM     30  C   UNL     1       5.449   3.841  27.037  0.00  0.00    +0.221 C 
BRANCH  29  31
ATOM     31  O   UNL     1       5.323   5.958  28.291  0.00  0.00    -0.386 OA
ATOM     32  H   UNL     1       4.411   6.234  28.068  0.00  0.00    +0.210 HD
ENDBRANCH  29  31
BRANCH  28  33
ATOM     33  O   UNL     1       7.620   4.793  29.006  0.00  0.00    -0.386 OA
ATOM     34  H   UNL     1       7.643   5.630  29.511  0.00  0.00    +0.210 HD
ENDBRANCH  28  33
BRANCH  30  35
ATOM     35  O   UNL     1       4.514   4.329  26.048  0.00  0.00    -0.337 OA
BRANCH  35  36
ATOM     36  C   UNL     1       4.794   5.461  25.220  0.00  0.00    +0.282 C 
ATOM     37  O   UNL     1       3.535   6.065  24.811  0.00  0.00    -0.341 OA
ATOM     38  C   UNL     1       2.701   5.224  23.989  0.00  0.00    +0.178 C 
ATOM     39  C   UNL     1       3.417   4.671  22.741  0.00  0.00    +0.177 C 
ATOM     40  C   UNL     1       4.770   4.108  23.130  0.00  0.00    +0.179 C 
ATOM     41  C   UNL     1       5.582   5.140  23.929  0.00  0.00    +0.201 C 
BRANCH  41  42
ATOM     42  O   UNL     1       5.866   6.335  23.182  0.00  0.00    -0.384 OA
ATOM     43  H   UNL     1       5.445   7.082  23.651  0.00  0.00    +0.210 HD
ENDBRANCH  41  42
BRANCH  40  44
ATOM     44  O   UNL     1       5.458   3.702  21.943  0.00  0.00    -0.386 OA
ATOM     45  H   UNL     1       5.137   4.282  21.226  0.00  0.00    +0.210 HD
ENDBRANCH  40  44
BRANCH  39  46
ATOM     46  O   UNL     1       3.632   5.670  21.730  0.00  0.00    -0.386 OA
ATOM     47  H   UNL     1       2.857   5.587  21.132  0.00  0.00    +0.210 HD
ENDBRANCH  39  46
BRANCH  38  48
ATOM     48  C   UNL     1       1.442   5.994  23.561  0.00  0.00    +0.190 C 
BRANCH  48  49
ATOM     49  O   UNL     1       0.805   5.346  22.459  0.00  0.00    -0.392 OA
ATOM     50  H   UNL     1       0.604   6.041  21.805  0.00  0.00    +0.210 HD
ENDBRANCH  48  49
ENDBRANCH  38  48
ENDBRANCH  35  36
ENDBRANCH  30  35
BRANCH  27  51
ATOM     51  C   UNL     1       7.735   2.255  30.321  0.00  0.00    +0.190 C 
BRANCH  51  52
ATOM     52  O   UNL     1       8.429   1.136  29.778  0.00  0.00    -0.392 OA
ATOM     53  H   UNL     1       9.205   0.986  30.349  0.00  0.00    +0.210 HD
ENDBRANCH  51  52
ENDBRANCH  27  51
ENDBRANCH  24  25
ENDBRANCH   6  24
BRANCH   1  54
ATOM     54  O   UNL     1       4.645  -6.055  24.816  0.00  0.00    -0.461 OA
BRANCH  54  58
ATOM     55  C   UNL     1       1.233  -8.442  25.691  0.00  0.00    +0.041 C 
ATOM     56  C   UNL     1       1.973  -8.531  24.354  0.00  0.00    +0.150 C 
ATOM     57  O   UNL     1       3.279  -7.946  24.452  0.00  0.00    -0.334 OA
ATOM     58  C   UNL     1       3.299  -6.518  24.590  0.00  0.00    +0.339 C 
ATOM     59  C   UNL     1       2.712  -5.911  23.291  0.00  0.00    +0.214 C 
ATOM     60  C   UNL     1       1.247  -6.395  23.186  0.00  0.00    +0.180 C 
ATOM     61  C   UNL     1       1.171  -7.936  23.185  0.00  0.00    +0.174 C 
BRANCH  61  62
ATOM     62  O   UNL     1       1.671  -8.467  21.950  0.00  0.00    -0.387 OA
ATOM     63  H   UNL     1       1.013  -9.123  21.635  0.00  0.00    +0.210 HD
ENDBRANCH  61  62
BRANCH  60  64
ATOM     64  O   UNL     1       0.587  -5.827  22.052  0.00  0.00    -0.386 OA
ATOM     65  H   UNL     1       0.775  -6.394  21.281  0.00  0.00    +0.210 HD
ENDBRANCH  60  64
BRANCH  59  66
ATOM     66  O   UNL     1       3.456  -6.373  22.141  0.00  0.00    -0.383 OA
ATOM     67  H   UNL     1       4.088  -5.665  21.912  0.00  0.00    +0.210 HD
ENDBRANCH  59  66
ENDBRANCH  54  58
ENDBRANCH   1  54
TORSDOF 22
ENDMDL
MODEL 9
REMARK VINA RESULT:      -7.0      2.847      9.591
REMARK  Name = 
REMARK  23 active torsions:
REMARK  status: ('A' for Active; 'I' for Inactive)
REMARK    1  A    between atoms: C_1  and  C_2
REMARK    2  A    between atoms: C_3  and  O_62
REMARK    3  A    between atoms: C_5  and  O_61
REMARK    4  A    between atoms: C_7  and  O_60
REMARK    5  A    between atoms: C_8  and  O_11
REMARK    6  A    between atoms: O_11  and  C_12
REMARK    7  A    between atoms: C_14  and  O_59
REMARK    8  A    between atoms: C_19  and  C_51
REMARK    9  A    between atoms: C_20  and  O_23
REMARK   10  A    between atoms: O_23  and  C_24
REMARK   11  A    between atoms: C_26  and  O_36
REMARK   12  A    between atoms: C_27  and  O_35
REMARK   13  A    between atoms: C_28  and  O_34
REMARK   14  A    between atoms: C_30  and  C_32
REMARK   15  A    between atoms: C_32  and  O_33
REMARK   16  A    between atoms: O_36  and  C_37
REMARK   17  A    between atoms: C_39  and  O_50
REMARK   18  A    between atoms: C_41  and  O_49
REMARK   19  A    between atoms: C_42  and  O_48
REMARK   20  A    between atoms: C_44  and  C_46
REMARK   21  A    between atoms: C_46  and  O_47
REMARK   22  A    between atoms: C_53  and  O_58
REMARK   23  A    between atoms: C_54  and  O_57
REMARK                            x       y       z     vdW  Elec       q    Type
REMARK                         _______ _______ _______ _____ _____    ______ ____
ROOT
ATOM      1  C   UNL     1       2.770  -3.488  27.247  0.00  0.00    +0.131 A 
ATOM      2  C   UNL     1       3.771  -2.965  26.424  0.00  0.00    +0.093 A 
ATOM      3  C   UNL     1       4.046  -1.590  26.381  0.00  0.00    +0.147 A 
ATOM      4  O   UNL     1       5.101  -1.223  25.590  0.00  0.00    -0.451 OA
ATOM      5  C   UNL     1       5.489   0.104  25.565  0.00  0.00    +0.181 A 
ATOM      6  C   UNL     1       4.830   1.129  26.144  0.00  0.00    +0.214 A 
ATOM      7  C   UNL     1       3.563   0.762  26.890  0.00  0.00    +0.238 A 
ATOM      8  O   UNL     1       2.775   1.643  27.229  0.00  0.00    -0.283 OA
ATOM      9  C   UNL     1       3.304  -0.684  27.120  0.00  0.00    +0.109 A 
ATOM     10  C   UNL     1       2.349  -1.208  28.009  0.00  0.00    +0.135 A 
ATOM     11  C   UNL     1       2.086  -2.595  28.074  0.00  0.00    +0.092 A 
ENDROOT
BRANCH   5  12
ATOM     12  C   UNL     1       6.731   0.287  24.828  0.00  0.00    +0.025 A 
ATOM     13  C   UNL     1       6.674   0.250  23.417  0.00  0.00    +0.015 A 
ATOM     14  C   UNL     1       7.837   0.361  22.656  0.00  0.00    +0.050 A 
ATOM     15  C   UNL     1       9.055   0.521  23.304  0.00  0.00    +0.158 A 
ATOM     16  C   UNL     1       9.118   0.579  24.694  0.00  0.00    +0.159 A 
ATOM     17  C   UNL     1       7.964   0.472  25.469  0.00  0.00    +0.060 A 
BRANCH  16  18
ATOM     18  O   UNL     1      10.357   0.718  25.258  0.00  0.00    -0.503 OA
ATOM     19  H   UNL     1      10.238   0.960  26.194  0.00  0.00    +0.292 HD
ENDBRANCH  16  18
BRANCH  15  20
ATOM     20  O   UNL     1      10.193   0.585  22.560  0.00  0.00    -0.503 OA
ATOM     21  H   UNL     1      10.888   0.216  23.141  0.00  0.00    +0.292 HD
ENDBRANCH  15  20
ENDBRANCH   5  12
BRANCH  10  22
ATOM     22  O   UNL     1       1.681  -0.381  28.870  0.00  0.00    -0.506 OA
ATOM     23  H   UNL     1       1.421   0.437  28.416  0.00  0.00    +0.292 HD
ENDBRANCH  10  22
BRANCH   6  24
ATOM     24  O   UNL     1       5.059   2.453  25.819  0.00  0.00    -0.453 OA
BRANCH  24  25
ATOM     25  C   UNL     1       4.525   3.078  24.631  0.00  0.00    +0.340 C 
ATOM     26  O   UNL     1       3.120   2.859  24.373  0.00  0.00    -0.331 OA
ATOM     27  C   UNL     1       2.669   3.458  23.128  0.00  0.00    +0.179 C 
ATOM     28  C   UNL     1       2.875   4.973  23.080  0.00  0.00    +0.177 C 
ATOM     29  C   UNL     1       4.319   5.303  23.404  0.00  0.00    +0.180 C 
ATOM     30  C   UNL     1       4.829   4.611  24.681  0.00  0.00    +0.221 C 
BRANCH  29  31
ATOM     31  O   UNL     1       4.425   6.731  23.492  0.00  0.00    -0.386 OA
ATOM     32  H   UNL     1       4.501   6.953  24.441  0.00  0.00    +0.210 HD
ENDBRANCH  29  31
BRANCH  28  33
ATOM     33  O   UNL     1       2.020   5.673  23.986  0.00  0.00    -0.386 OA
ATOM     34  H   UNL     1       2.605   6.255  24.511  0.00  0.00    +0.210 HD
ENDBRANCH  28  33
BRANCH  30  35
ATOM     35  O   UNL     1       6.144   5.049  25.091  0.00  0.00    -0.337 OA
BRANCH  35  36
ATOM     36  C   UNL     1       7.340   4.393  24.662  0.00  0.00    +0.282 C 
ATOM     37  O   UNL     1       8.469   4.958  25.384  0.00  0.00    -0.341 OA
ATOM     38  C   UNL     1       8.718   6.354  25.117  0.00  0.00    +0.178 C 
ATOM     39  C   UNL     1       8.869   6.680  23.619  0.00  0.00    +0.177 C 
ATOM     40  C   UNL     1       7.746   6.032  22.833  0.00  0.00    +0.179 C 
ATOM     41  C   UNL     1       7.651   4.532  23.154  0.00  0.00    +0.201 C 
BRANCH  41  42
ATOM     42  O   UNL     1       8.837   3.803  22.797  0.00  0.00    -0.384 OA
ATOM     43  H   UNL     1       9.372   3.698  23.609  0.00  0.00    +0.210 HD
ENDBRANCH  41  42
BRANCH  40  44
ATOM     44  O   UNL     1       7.970   6.259  21.439  0.00  0.00    -0.386 OA
ATOM     45  H   UNL     1       8.931   6.169  21.295  0.00  0.00    +0.210 HD
ENDBRANCH  40  44
BRANCH  39  46
ATOM     46  O   UNL     1      10.114   6.218  23.067  0.00  0.00    -0.386 OA
ATOM     47  H   UNL     1      10.769   6.354  23.787  0.00  0.00    +0.210 HD
ENDBRANCH  39  46
BRANCH  38  48
ATOM     48  C   UNL     1       9.973   6.814  25.874  0.00  0.00    +0.190 C 
BRANCH  48  49
ATOM     49  O   UNL     1       9.766   6.741  27.286  0.00  0.00    -0.392 OA
ATOM     50  H   UNL     1      10.613   6.982  27.705  0.00  0.00    +0.210 HD
ENDBRANCH  48  49
ENDBRANCH  38  48
ENDBRANCH  35  36
ENDBRANCH  30  35
BRANCH  27  51
ATOM     51  C   UNL     1       1.179   3.153  22.925  0.00  0.00    +0.190 C 
BRANCH  51  52
ATOM     52  O   UNL     1       1.023   1.951  22.178  0.00  0.00    -0.392 OA
ATOM     53  H   UNL     1       1.861   1.811  21.698  0.00  0.00    +0.210 HD
ENDBRANCH  51  52
ENDBRANCH  27  51
ENDBRANCH  24  25
ENDBRANCH   6  24
BRANCH   1  54
ATOM     54  O   UNL     1       2.392  -4.811  27.318  0.00  0.00    -0.461 OA
BRANCH  54  58
ATOM     55  C   UNL     1       0.443  -6.268  23.827  0.00  0.00    +0.041 C 
ATOM     56  C   UNL     1       1.088  -7.202  24.854  0.00  0.00    +0.150 C 
ATOM     57  O   UNL     1       1.314  -6.520  26.095  0.00  0.00    -0.334 OA
ATOM     58  C   UNL     1       2.345  -5.522  26.065  0.00  0.00    +0.339 C 
ATOM     59  C   UNL     1       3.688  -6.243  25.783  0.00  0.00    +0.214 C 
ATOM     60  C   UNL     1       3.567  -6.896  24.387  0.00  0.00    +0.180 C 
ATOM     61  C   UNL     1       2.371  -7.870  24.333  0.00  0.00    +0.174 C 
BRANCH  61  62
ATOM     62  O   UNL     1       2.640  -9.046  25.109  0.00  0.00    -0.387 OA
ATOM     63  H   UNL     1       2.135  -8.957  25.945  0.00  0.00    +0.210 HD
ENDBRANCH  61  62
BRANCH  60  64
ATOM     64  O   UNL     1       4.789  -7.528  23.997  0.00  0.00    -0.386 OA
ATOM     65  H   UNL     1       5.209  -7.889  24.799  0.00  0.00    +0.210 HD
ENDBRANCH  60  64
BRANCH  59  66
ATOM     66  O   UNL     1       3.927  -7.264  26.776  0.00  0.00    -0.383 OA
ATOM     67  H   UNL     1       4.460  -6.852  27.482  0.00  0.00    +0.210 HD
ENDBRANCH  59  66
ENDBRANCH  54  58
ENDBRANCH   1  54
TORSDOF 22
ENDMDL
