MODEL 1
REMARK VINA RESULT:      -6.8      0.000      0.000
REMARK  Name = 
REMARK  23 active torsions:
REMARK  status: ('A' for Active; 'I' for Inactive)
REMARK    1  A    between atoms: C_3  and  O_62
REMARK    2  A    between atoms: C_4  and  O_61
REMARK    3  A    between atoms: C_6  and  C_7
REMARK    4  A    between atoms: C_8  and  C_9
REMARK    5  A    between atoms: C_9  and  O_11
REMARK    6  A    between atoms: O_11  and  C_12
REMARK    7  A    between atoms: C_12  and  C_13
REMARK    8  A    between atoms: C_14  and  O_60
REMARK    9  A    between atoms: C_16  and  O_59
REMARK   10  A    between atoms: C_18  and  O_44
REMARK   11  A    between atoms: C_19  and  O_22
REMARK   12  A    between atoms: O_22  and  C_23
REMARK   13  A    between atoms: C_24  and  C_36
REMARK   14  A    between atoms: C_28  and  O_35
REMARK   15  A    between atoms: C_30  and  O_34
REMARK   16  A    between atoms: C_38  and  O_43
REMARK   17  A    between atoms: C_39  and  O_42
REMARK   18  A    between atoms: O_44  and  C_45
REMARK   19  A    between atoms: C_47  and  O_58
REMARK   20  A    between atoms: C_48  and  O_57
REMARK   21  A    between atoms: C_50  and  O_56
REMARK   22  A    between atoms: C_52  and  C_54
REMARK   23  A    between atoms: C_54  and  O_55
REMARK                            x       y       z     vdW  Elec       q    Type
REMARK                         _______ _______ _______ _____ _____    ______ ____
ROOT
ATOM      1  C   UNL     1      10.144   1.584  23.925  0.00  0.00    +0.191 C 
ATOM      2  O   UNL     1       9.591   1.037  25.130  0.00  0.00    -0.330 OA
ATOM      3  C   UNL     1       8.155   1.136  25.276  0.00  0.00    +0.340 C 
ATOM      4  C   UNL     1       7.632   2.608  25.096  0.00  0.00    +0.221 C 
ATOM      5  C   UNL     1       8.274   3.222  23.833  0.00  0.00    +0.180 C 
ATOM      6  C   UNL     1       9.794   3.069  23.836  0.00  0.00    +0.178 C 
ENDROOT
BRANCH   6   7
ATOM      7  O   UNL     1      10.311   3.673  22.642  0.00  0.00    -0.386 OA
ATOM      8  H   UNL     1      10.259   4.640  22.761  0.00  0.00    +0.210 HD
ENDBRANCH   6   7
BRANCH   5   9
ATOM      9  O   UNL     1       7.941   4.589  23.593  0.00  0.00    -0.386 OA
ATOM     10  H   UNL     1       8.313   5.085  24.350  0.00  0.00    +0.210 HD
ENDBRANCH   5   9
BRANCH   4  11
ATOM     11  O   UNL     1       7.746   3.378  26.329  0.00  0.00    -0.337 OA
BRANCH  11  12
ATOM     12  C   UNL     1       6.499   3.758  26.956  0.00  0.00    +0.282 C 
ATOM     13  O   UNL     1       5.688   4.509  26.021  0.00  0.00    -0.341 OA
ATOM     14  C   UNL     1       6.100   5.864  25.771  0.00  0.00    +0.178 C 
ATOM     15  C   UNL     1       6.195   6.683  27.077  0.00  0.00    +0.177 C 
ATOM     16  C   UNL     1       7.116   5.962  28.051  0.00  0.00    +0.179 C 
ATOM     17  C   UNL     1       6.612   4.540  28.303  0.00  0.00    +0.201 C 
BRANCH  17  18
ATOM     18  O   UNL     1       7.404   3.933  29.326  0.00  0.00    -0.384 OA
ATOM     19  H   UNL     1       7.907   4.632  29.790  0.00  0.00    +0.210 HD
ENDBRANCH  17  18
BRANCH  16  20
ATOM     20  O   UNL     1       8.433   5.934  27.528  0.00  0.00    -0.386 OA
ATOM     21  H   UNL     1       8.383   5.560  26.621  0.00  0.00    +0.210 HD
ENDBRANCH  16  20
BRANCH  15  22
ATOM     22  O   UNL     1       4.925   6.848  27.711  0.00  0.00    -0.386 OA
ATOM     23  H   UNL     1       4.237   6.549  27.089  0.00  0.00    +0.210 HD
ENDBRANCH  15  22
BRANCH  14  24
ATOM     24  C   UNL     1       5.116   6.473  24.754  0.00  0.00    +0.190 C 
BRANCH  24  25
ATOM     25  O   UNL     1       5.308   5.997  23.426  0.00  0.00    -0.392 OA
ATOM     26  H   UNL     1       6.273   5.898  23.310  0.00  0.00    +0.210 HD
ENDBRANCH  24  25
ENDBRANCH  14  24
ENDBRANCH  11  12
ENDBRANCH   4  11
BRANCH   3  27
ATOM     27  O   UNL     1       7.850   0.596  26.576  0.00  0.00    -0.453 OA
BRANCH  27  28
ATOM     28  C   UNL     1       7.337  -0.677  26.781  0.00  0.00    +0.214 A 
ATOM     29  C   UNL     1       8.105  -1.918  26.437  0.00  0.00    +0.238 A 
ATOM     30  O   UNL     1       9.256  -1.853  26.024  0.00  0.00    -0.283 OA
ATOM     31  C   UNL     1       7.398  -3.215  26.513  0.00  0.00    +0.109 A 
ATOM     32  C   UNL     1       6.078  -3.210  26.953  0.00  0.00    +0.147 A 
ATOM     33  C   UNL     1       5.338  -4.398  27.007  0.00  0.00    +0.092 A 
ATOM     34  C   UNL     1       5.937  -5.594  26.631  0.00  0.00    +0.124 A 
ATOM     35  C   UNL     1       7.252  -5.621  26.183  0.00  0.00    +0.091 A 
ATOM     36  O   UNL     1       5.423  -2.068  27.328  0.00  0.00    -0.451 OA
ATOM     37  C   UNL     1       7.977  -4.431  26.113  0.00  0.00    +0.135 A 
ATOM     38  C   UNL     1       6.051  -0.837  27.174  0.00  0.00    +0.181 A 
BRANCH  38  39
ATOM     39  C   UNL     1       5.096   0.290  27.385  0.00  0.00    +0.025 A 
ATOM     40  C   UNL     1       4.835   0.814  28.662  0.00  0.00    +0.015 A 
ATOM     41  C   UNL     1       3.854   1.794  28.855  0.00  0.00    +0.050 A 
ATOM     42  C   UNL     1       3.126   2.251  27.770  0.00  0.00    +0.158 A 
ATOM     43  C   UNL     1       3.402   1.793  26.488  0.00  0.00    +0.159 A 
ATOM     44  C   UNL     1       4.380   0.820  26.286  0.00  0.00    +0.060 A 
BRANCH  43  45
ATOM     45  O   UNL     1       2.672   2.322  25.459  0.00  0.00    -0.503 OA
ATOM     46  H   UNL     1       3.212   2.986  24.999  0.00  0.00    +0.292 HD
ENDBRANCH  43  45
BRANCH  42  47
ATOM     47  O   UNL     1       2.118   3.149  27.976  0.00  0.00    -0.503 OA
ATOM     48  H   UNL     1       2.548   4.025  27.908  0.00  0.00    +0.292 HD
ENDBRANCH  42  47
ENDBRANCH  38  39
BRANCH  37  49
ATOM     49  O   UNL     1       9.254  -4.477  25.632  0.00  0.00    -0.506 OA
ATOM     50  H   UNL     1       9.255  -4.560  24.664  0.00  0.00    +0.292 HD
ENDBRANCH  37  49
BRANCH  34  51
ATOM     51  O   UNL     1       5.267  -6.780  26.680  0.00  0.00    -0.507 OA
ATOM     52  H   UNL     1       5.893  -7.496  26.878  0.00  0.00    +0.292 HD
ENDBRANCH  34  51
ENDBRANCH  27  28
ENDBRANCH   3  27
BRANCH   1  53
ATOM     53  C   UNL     1       9.785   0.810  22.639  0.00  0.00    +0.266 C 
BRANCH  53  54
ATOM     54  O   UNL     1       9.141  -0.426  22.989  0.00  0.00    -0.459 OA
BRANCH  54  55
ATOM     55  C   UNL     1       9.785  -1.545  22.605  0.00  0.00    +0.332 C 
ATOM     56  O   UNL     1      10.926  -1.632  22.207  0.00  0.00    -0.246 OA
BRANCH  55  58
ATOM     57  C   UNL     1       7.531  -2.428  22.803  0.00  0.00    +0.015 C 
ATOM     58  C   UNL     1       8.849  -2.672  22.748  0.00  0.00    +0.092 C 
BRANCH  57  60
ATOM     59  C   UNL     1       5.214  -3.227  23.401  0.00  0.00    +0.012 A 
ATOM     60  C   UNL     1       6.502  -3.467  22.888  0.00  0.00    -0.021 A 
ATOM     61  C   UNL     1       6.815  -4.742  22.401  0.00  0.00    +0.057 A 
ATOM     62  C   UNL     1       5.870  -5.754  22.466  0.00  0.00    +0.159 A 
ATOM     63  C   UNL     1       4.606  -5.518  22.997  0.00  0.00    +0.158 A 
ATOM     64  C   UNL     1       4.266  -4.254  23.461  0.00  0.00    +0.050 A 
BRANCH  63  65
ATOM     65  O   UNL     1       3.728  -6.566  23.040  0.00  0.00    -0.503 OA
ATOM     66  H   UNL     1       4.182  -7.354  22.696  0.00  0.00    +0.292 HD
ENDBRANCH  63  65
BRANCH  62  67
ATOM     67  O   UNL     1       6.198  -6.996  22.003  0.00  0.00    -0.503 OA
ATOM     68  H   UNL     1       5.460  -7.240  21.410  0.00  0.00    +0.292 HD
ENDBRANCH  62  67
ENDBRANCH  57  60
ENDBRANCH  55  58
ENDBRANCH  54  55
ENDBRANCH  53  54
ENDBRANCH   1  53
TORSDOF 23
ENDMDL
MODEL 2
REMARK VINA RESULT:      -6.7      2.480      6.514
REMARK  Name = 
REMARK  23 active torsions:
REMARK  status: ('A' for Active; 'I' for Inactive)
REMARK    1  A    between atoms: C_3  and  O_62
REMARK    2  A    between atoms: C_4  and  O_61
REMARK    3  A    between atoms: C_6  and  C_7
REMARK    4  A    between atoms: C_8  and  C_9
REMARK    5  A    between atoms: C_9  and  O_11
REMARK    6  A    between atoms: O_11  and  C_12
REMARK    7  A    between atoms: C_12  and  C_13
REMARK    8  A    between atoms: C_14  and  O_60
REMARK    9  A    between atoms: C_16  and  O_59
REMARK   10  A    between atoms: C_18  and  O_44
REMARK   11  A    between atoms: C_19  and  O_22
REMARK   12  A    between atoms: O_22  and  C_23
REMARK   13  A    between atoms: C_24  and  C_36
REMARK   14  A    between atoms: C_28  and  O_35
REMARK   15  A    between atoms: C_30  and  O_34
REMARK   16  A    between atoms: C_38  and  O_43
REMARK   17  A    between atoms: C_39  and  O_42
REMARK   18  A    between atoms: O_44  and  C_45
REMARK   19  A    between atoms: C_47  and  O_58
REMARK   20  A    between atoms: C_48  and  O_57
REMARK   21  A    between atoms: C_50  and  O_56
REMARK   22  A    between atoms: C_52  and  C_54
REMARK   23  A    between atoms: C_54  and  O_55
REMARK                            x       y       z     vdW  Elec       q    Type
REMARK                         _______ _______ _______ _____ _____    ______ ____
ROOT
ATOM      1  C   UNL     1       4.195   1.059  28.239  0.00  0.00    +0.191 C 
ATOM      2  O   UNL     1       4.181   0.318  27.012  0.00  0.00    -0.330 OA
ATOM      3  C   UNL     1       5.438  -0.274  26.607  0.00  0.00    +0.340 C 
ATOM      4  C   UNL     1       6.607   0.776  26.555  0.00  0.00    +0.221 C 
ATOM      5  C   UNL     1       6.588   1.619  27.849  0.00  0.00    +0.180 C 
ATOM      6  C   UNL     1       5.204   2.203  28.128  0.00  0.00    +0.178 C 
ENDROOT
BRANCH   6   7
ATOM      7  O   UNL     1       5.274   2.978  29.332  0.00  0.00    -0.386 OA
ATOM      8  H   UNL     1       5.779   3.786  29.127  0.00  0.00    +0.210 HD
ENDBRANCH   6   7
BRANCH   5   9
ATOM      9  O   UNL     1       7.556   2.667  27.899  0.00  0.00    -0.386 OA
ATOM     10  H   UNL     1       8.033   2.542  28.744  0.00  0.00    +0.210 HD
ENDBRANCH   5   9
BRANCH   4  11
ATOM     11  O   UNL     1       6.620   1.510  25.296  0.00  0.00    -0.337 OA
BRANCH  11  12
ATOM     12  C   UNL     1       7.645   1.127  24.349  0.00  0.00    +0.282 C 
ATOM     13  O   UNL     1       8.734   2.080  24.393  0.00  0.00    -0.341 OA
ATOM     14  C   UNL     1       8.487   3.353  23.774  0.00  0.00    +0.178 C 
ATOM     15  C   UNL     1       8.055   3.198  22.298  0.00  0.00    +0.177 C 
ATOM     16  C   UNL     1       6.851   2.269  22.228  0.00  0.00    +0.179 C 
ATOM     17  C   UNL     1       7.182   0.922  22.872  0.00  0.00    +0.201 C 
BRANCH  17  18
ATOM     18  O   UNL     1       6.092   0.021  22.667  0.00  0.00    -0.384 OA
ATOM     19  H   UNL     1       5.279   0.541  22.511  0.00  0.00    +0.210 HD
ENDBRANCH  17  18
BRANCH  16  20
ATOM     20  O   UNL     1       5.747   2.873  22.881  0.00  0.00    -0.386 OA
ATOM     21  H   UNL     1       6.037   3.113  23.788  0.00  0.00    +0.210 HD
ENDBRANCH  16  20
BRANCH  15  22
ATOM     22  O   UNL     1       9.088   2.642  21.484  0.00  0.00    -0.386 OA
ATOM     23  H   UNL     1       9.564   3.377  21.057  0.00  0.00    +0.210 HD
ENDBRANCH  15  22
BRANCH  14  24
ATOM     24  C   UNL     1       9.758   4.209  23.937  0.00  0.00    +0.190 C 
BRANCH  24  25
ATOM     25  O   UNL     1      10.888   3.682  23.249  0.00  0.00    -0.392 OA
ATOM     26  H   UNL     1      11.218   4.403  22.678  0.00  0.00    +0.210 HD
ENDBRANCH  24  25
ENDBRANCH  14  24
ENDBRANCH  11  12
ENDBRANCH   4  11
BRANCH   3  27
ATOM     27  O   UNL     1       5.193  -0.892  25.330  0.00  0.00    -0.453 OA
BRANCH  27  28
ATOM     28  C   UNL     1       4.899  -2.238  25.169  0.00  0.00    +0.214 A 
ATOM     29  C   UNL     1       3.593  -2.834  25.605  0.00  0.00    +0.238 A 
ATOM     30  O   UNL     1       2.699  -2.130  26.059  0.00  0.00    -0.283 OA
ATOM     31  C   UNL     1       3.454  -4.306  25.567  0.00  0.00    +0.109 A 
ATOM     32  C   UNL     1       4.525  -5.046  25.075  0.00  0.00    +0.147 A 
ATOM     33  C   UNL     1       4.476  -6.445  25.052  0.00  0.00    +0.092 A 
ATOM     34  C   UNL     1       3.337  -7.097  25.510  0.00  0.00    +0.124 A 
ATOM     35  C   UNL     1       2.259  -6.378  26.010  0.00  0.00    +0.091 A 
ATOM     36  O   UNL     1       5.680  -4.470  24.618  0.00  0.00    -0.451 OA
ATOM     37  C   UNL     1       2.323  -4.984  26.049  0.00  0.00    +0.135 A 
ATOM     38  C   UNL     1       5.853  -3.096  24.734  0.00  0.00    +0.181 A 
BRANCH  38  39
ATOM     39  C   UNL     1       7.258  -2.697  24.431  0.00  0.00    +0.025 A 
ATOM     40  C   UNL     1       8.165  -2.345  25.444  0.00  0.00    +0.015 A 
ATOM     41  C   UNL     1       9.444  -1.866  25.135  0.00  0.00    +0.050 A 
ATOM     42  C   UNL     1       9.820  -1.733  23.809  0.00  0.00    +0.158 A 
ATOM     43  C   UNL     1       8.964  -2.129  22.788  0.00  0.00    +0.159 A 
ATOM     44  C   UNL     1       7.690  -2.611  23.087  0.00  0.00    +0.060 A 
BRANCH  43  45
ATOM     45  O   UNL     1       9.420  -2.010  21.503  0.00  0.00    -0.503 OA
ATOM     46  H   UNL     1      10.291  -2.434  21.439  0.00  0.00    +0.292 HD
ENDBRANCH  43  45
BRANCH  42  47
ATOM     47  O   UNL     1      11.038  -1.193  23.513  0.00  0.00    -0.503 OA
ATOM     48  H   UNL     1      11.429  -0.972  24.382  0.00  0.00    +0.292 HD
ENDBRANCH  42  47
ENDBRANCH  38  39
BRANCH  37  49
ATOM     49  O   UNL     1       1.267  -4.301  26.582  0.00  0.00    -0.506 OA
ATOM     50  H   UNL     1       0.778  -4.858  27.208  0.00  0.00    +0.292 HD
ENDBRANCH  37  49
BRANCH  34  51
ATOM     51  O   UNL     1       3.232  -8.456  25.494  0.00  0.00    -0.507 OA
ATOM     52  H   UNL     1       3.304  -8.795  26.403  0.00  0.00    +0.292 HD
ENDBRANCH  34  51
ENDBRANCH  27  28
ENDBRANCH   3  27
BRANCH   1  53
ATOM     53  C   UNL     1       4.403   0.205  29.508  0.00  0.00    +0.266 C 
BRANCH  53  54
ATOM     54  O   UNL     1       3.181   0.164  30.262  0.00  0.00    -0.459 OA
BRANCH  54  55
ATOM     55  C   UNL     1       2.383  -0.893  30.018  0.00  0.00    +0.332 C 
ATOM     56  O   UNL     1       1.171  -0.906  30.001  0.00  0.00    -0.246 OA
BRANCH  55  58
ATOM     57  C   UNL     1       2.698  -3.282  29.715  0.00  0.00    +0.015 C 
ATOM     58  C   UNL     1       3.247  -2.059  29.773  0.00  0.00    +0.092 C 
BRANCH  57  60
ATOM     59  C   UNL     1       2.904  -5.794  29.607  0.00  0.00    +0.012 A 
ATOM     60  C   UNL     1       3.445  -4.509  29.423  0.00  0.00    -0.021 A 
ATOM     61  C   UNL     1       4.740  -4.381  28.907  0.00  0.00    +0.057 A 
ATOM     62  C   UNL     1       5.481  -5.517  28.619  0.00  0.00    +0.159 A 
ATOM     63  C   UNL     1       4.950  -6.786  28.826  0.00  0.00    +0.158 A 
ATOM     64  C   UNL     1       3.658  -6.936  29.313  0.00  0.00    +0.050 A 
BRANCH  63  65
ATOM     65  O   UNL     1       5.742  -7.863  28.532  0.00  0.00    -0.503 OA
ATOM     66  H   UNL     1       5.174  -8.566  28.175  0.00  0.00    +0.292 HD
ENDBRANCH  63  65
BRANCH  62  67
ATOM     67  O   UNL     1       6.748  -5.375  28.132  0.00  0.00    -0.503 OA
ATOM     68  H   UNL     1       7.325  -5.690  28.857  0.00  0.00    +0.292 HD
ENDBRANCH  62  67
ENDBRANCH  57  60
ENDBRANCH  55  58
ENDBRANCH  54  55
ENDBRANCH  53  54
ENDBRANCH   1  53
TORSDOF 23
ENDMDL
MODEL 3
REMARK VINA RESULT:      -6.7      2.005      5.755
REMARK  Name = 
REMARK  23 active torsions:
REMARK  status: ('A' for Active; 'I' for Inactive)
REMARK    1  A    between atoms: C_3  and  O_62
REMARK    2  A    between atoms: C_4  and  O_61
REMARK    3  A    between atoms: C_6  and  C_7
REMARK    4  A    between atoms: C_8  and  C_9
REMARK    5  A    between atoms: C_9  and  O_11
REMARK    6  A    between atoms: O_11  and  C_12
REMARK    7  A    between atoms: C_12  and  C_13
REMARK    8  A    between atoms: C_14  and  O_60
REMARK    9  A    between atoms: C_16  and  O_59
REMARK   10  A    between atoms: C_18  and  O_44
REMARK   11  A    between atoms: C_19  and  O_22
REMARK   12  A    between atoms: O_22  and  C_23
REMARK   13  A    between atoms: C_24  and  C_36
REMARK   14  A    between atoms: C_28  and  O_35
REMARK   15  A    between atoms: C_30  and  O_34
REMARK   16  A    between atoms: C_38  and  O_43
REMARK   17  A    between atoms: C_39  and  O_42
REMARK   18  A    between atoms: O_44  and  C_45
REMARK   19  A    between atoms: C_47  and  O_58
REMARK   20  A    between atoms: C_48  and  O_57
REMARK   21  A    between atoms: C_50  and  O_56
REMARK   22  A    between atoms: C_52  and  C_54
REMARK   23  A    between atoms: C_54  and  O_55
REMARK                            x       y       z     vdW  Elec       q    Type
REMARK                         _______ _______ _______ _____ _____    ______ ____
ROOT
ATOM      1  C   UNL     1       3.952   0.161  28.004  0.00  0.00    +0.191 C 
ATOM      2  O   UNL     1       4.316   0.028  26.623  0.00  0.00    -0.330 OA
ATOM      3  C   UNL     1       5.725   0.152  26.318  0.00  0.00    +0.340 C 
ATOM      4  C   UNL     1       6.349   1.479  26.886  0.00  0.00    +0.221 C 
ATOM      5  C   UNL     1       5.908   1.657  28.355  0.00  0.00    +0.180 C 
ATOM      6  C   UNL     1       4.394   1.532  28.515  0.00  0.00    +0.178 C 
ENDROOT
BRANCH   6   7
ATOM      7  O   UNL     1       4.068   1.721  29.899  0.00  0.00    -0.386 OA
ATOM      8  H   UNL     1       3.755   2.639  29.999  0.00  0.00    +0.210 HD
ENDBRANCH   6   7
BRANCH   5   9
ATOM      9  O   UNL     1       6.345   2.868  28.972  0.00  0.00    -0.386 OA
ATOM     10  H   UNL     1       6.885   3.325  28.297  0.00  0.00    +0.210 HD
ENDBRANCH   5   9
BRANCH   4  11
ATOM     11  O   UNL     1       6.122   2.609  25.993  0.00  0.00    -0.337 OA
BRANCH  11  12
ATOM     12  C   UNL     1       6.963   2.667  24.818  0.00  0.00    +0.282 C 
ATOM     13  O   UNL     1       8.071   3.570  25.052  0.00  0.00    -0.341 OA
ATOM     14  C   UNL     1       7.761   4.973  25.030  0.00  0.00    +0.178 C 
ATOM     15  C   UNL     1       7.085   5.389  23.704  0.00  0.00    +0.177 C 
ATOM     16  C   UNL     1       5.860   4.514  23.475  0.00  0.00    +0.179 C 
ATOM     17  C   UNL     1       6.255   3.037  23.477  0.00  0.00    +0.201 C 
BRANCH  17  18
ATOM     18  O   UNL     1       5.122   2.245  23.116  0.00  0.00    -0.384 OA
ATOM     19  H   UNL     1       4.397   2.840  22.841  0.00  0.00    +0.210 HD
ENDBRANCH  17  18
BRANCH  16  20
ATOM     20  O   UNL     1       4.897   4.770  24.484  0.00  0.00    -0.386 OA
ATOM     21  H   UNL     1       4.778   5.743  24.537  0.00  0.00    +0.210 HD
ENDBRANCH  16  20
BRANCH  15  22
ATOM     22  O   UNL     1       7.951   5.237  22.579  0.00  0.00    -0.386 OA
ATOM     23  H   UNL     1       8.810   4.909  22.903  0.00  0.00    +0.210 HD
ENDBRANCH  15  22
BRANCH  14  24
ATOM     24  C   UNL     1       9.064   5.747  25.304  0.00  0.00    +0.190 C 
BRANCH  24  25
ATOM     25  O   UNL     1      10.122   5.407  24.414  0.00  0.00    -0.392 OA
ATOM     26  H   UNL     1      10.234   4.439  24.484  0.00  0.00    +0.210 HD
ENDBRANCH  24  25
ENDBRANCH  14  24
ENDBRANCH  11  12
ENDBRANCH   4  11
BRANCH   3  27
ATOM     27  O   UNL     1       5.831   0.060  24.885  0.00  0.00    -0.453 OA
BRANCH  27  28
ATOM     28  C   UNL     1       6.043  -1.128  24.202  0.00  0.00    +0.214 A 
ATOM     29  C   UNL     1       5.083  -2.279  24.271  0.00  0.00    +0.238 A 
ATOM     30  O   UNL     1       4.027  -2.182  24.884  0.00  0.00    -0.283 OA
ATOM     31  C   UNL     1       5.495  -3.564  23.667  0.00  0.00    +0.109 A 
ATOM     32  C   UNL     1       6.726  -3.613  23.021  0.00  0.00    +0.147 A 
ATOM     33  C   UNL     1       7.195  -4.809  22.465  0.00  0.00    +0.092 A 
ATOM     34  C   UNL     1       6.412  -5.954  22.547  0.00  0.00    +0.124 A 
ATOM     35  C   UNL     1       5.182  -5.930  23.193  0.00  0.00    +0.091 A 
ATOM     36  O   UNL     1       7.553  -2.526  22.912  0.00  0.00    -0.451 OA
ATOM     37  C   UNL     1       4.731  -4.739  23.763  0.00  0.00    +0.135 A 
ATOM     38  C   UNL     1       7.214  -1.341  23.554  0.00  0.00    +0.181 A 
BRANCH  38  39
ATOM     39  C   UNL     1       8.348  -0.372  23.540  0.00  0.00    +0.025 A 
ATOM     40  C   UNL     1       9.200  -0.209  24.645  0.00  0.00    +0.015 A 
ATOM     41  C   UNL     1      10.188   0.782  24.657  0.00  0.00    +0.050 A 
ATOM     42  C   UNL     1      10.326   1.619  23.563  0.00  0.00    +0.158 A 
ATOM     43  C   UNL     1       9.536   1.444  22.433  0.00  0.00    +0.159 A 
ATOM     44  C   UNL     1       8.552   0.456  22.411  0.00  0.00    +0.060 A 
BRANCH  43  45
ATOM     45  O   UNL     1       9.758   2.280  21.373  0.00  0.00    -0.503 OA
ATOM     46  H   UNL     1      10.218   3.075  21.692  0.00  0.00    +0.292 HD
ENDBRANCH  43  45
BRANCH  42  47
ATOM     47  O   UNL     1      11.239   2.634  23.612  0.00  0.00    -0.503 OA
ATOM     48  H   UNL     1      11.230   2.931  24.543  0.00  0.00    +0.292 HD
ENDBRANCH  42  47
ENDBRANCH  38  39
BRANCH  37  49
ATOM     49  O   UNL     1       3.537  -4.748  24.426  0.00  0.00    -0.506 OA
ATOM     50  H   UNL     1       3.503  -4.033  25.082  0.00  0.00    +0.292 HD
ENDBRANCH  37  49
BRANCH  34  51
ATOM     51  O   UNL     1       6.815  -7.140  22.009  0.00  0.00    -0.507 OA
ATOM     52  H   UNL     1       7.733  -7.319  22.275  0.00  0.00    +0.292 HD
ENDBRANCH  34  51
ENDBRANCH  27  28
ENDBRANCH   3  27
BRANCH   1  53
ATOM     53  C   UNL     1       4.428  -0.994  28.911  0.00  0.00    +0.266 C 
BRANCH  53  54
ATOM     54  O   UNL     1       3.410  -2.005  28.972  0.00  0.00    -0.459 OA
BRANCH  54  55
ATOM     55  C   UNL     1       3.815  -3.256  28.677  0.00  0.00    +0.332 C 
ATOM     56  O   UNL     1       3.219  -4.288  28.896  0.00  0.00    -0.246 OA
BRANCH  55  58
ATOM     57  C   UNL     1       5.723  -4.272  27.569  0.00  0.00    +0.015 C 
ATOM     58  C   UNL     1       5.135  -3.159  28.034  0.00  0.00    +0.092 C 
BRANCH  57  60
ATOM     59  C   UNL     1       7.772  -3.138  26.633  0.00  0.00    +0.012 A 
ATOM     60  C   UNL     1       7.006  -4.295  26.862  0.00  0.00    -0.021 A 
ATOM     61  C   UNL     1       7.496  -5.534  26.433  0.00  0.00    +0.057 A 
ATOM     62  C   UNL     1       8.706  -5.598  25.759  0.00  0.00    +0.159 A 
ATOM     63  C   UNL     1       9.448  -4.447  25.512  0.00  0.00    +0.158 A 
ATOM     64  C   UNL     1       8.992  -3.212  25.952  0.00  0.00    +0.050 A 
BRANCH  63  65
ATOM     65  O   UNL     1      10.626  -4.584  24.831  0.00  0.00    -0.503 OA
ATOM     66  H   UNL     1      11.054  -3.712  24.791  0.00  0.00    +0.292 HD
ENDBRANCH  63  65
BRANCH  62  67
ATOM     67  O   UNL     1       9.162  -6.812  25.331  0.00  0.00    -0.503 OA
ATOM     68  H   UNL     1       9.205  -7.357  26.142  0.00  0.00    +0.292 HD
ENDBRANCH  62  67
ENDBRANCH  57  60
ENDBRANCH  55  58
ENDBRANCH  54  55
ENDBRANCH  53  54
ENDBRANCH   1  53
TORSDOF 23
ENDMDL
MODEL 4
REMARK VINA RESULT:      -6.7      2.241      9.076
REMARK  Name = 
REMARK  23 active torsions:
REMARK  status: ('A' for Active; 'I' for Inactive)
REMARK    1  A    between atoms: C_3  and  O_62
REMARK    2  A    between atoms: C_4  and  O_61
REMARK    3  A    between atoms: C_6  and  C_7
REMARK    4  A    between atoms: C_8  and  C_9
REMARK    5  A    between atoms: C_9  and  O_11
REMARK    6  A    between atoms: O_11  and  C_12
REMARK    7  A    between atoms: C_12  and  C_13
REMARK    8  A    between atoms: C_14  and  O_60
REMARK    9  A    between atoms: C_16  and  O_59
REMARK   10  A    between atoms: C_18  and  O_44
REMARK   11  A    between atoms: C_19  and  O_22
REMARK   12  A    between atoms: O_22  and  C_23
REMARK   13  A    between atoms: C_24  and  C_36
REMARK   14  A    between atoms: C_28  and  O_35
REMARK   15  A    between atoms: C_30  and  O_34
REMARK   16  A    between atoms: C_38  and  O_43
REMARK   17  A    between atoms: C_39  and  O_42
REMARK   18  A    between atoms: O_44  and  C_45
REMARK   19  A    between atoms: C_47  and  O_58
REMARK   20  A    between atoms: C_48  and  O_57
REMARK   21  A    between atoms: C_50  and  O_56
REMARK   22  A    between atoms: C_52  and  C_54
REMARK   23  A    between atoms: C_54  and  O_55
REMARK                            x       y       z     vdW  Elec       q    Type
REMARK                         _______ _______ _______ _____ _____    ______ ____
ROOT
ATOM      1  C   UNL     1       5.920  -3.004  22.142  0.00  0.00    +0.191 C 
ATOM      2  O   UNL     1       5.325  -2.493  23.342  0.00  0.00    -0.330 OA
ATOM      3  C   UNL     1       5.631  -3.207  24.562  0.00  0.00    +0.340 C 
ATOM      4  C   UNL     1       5.320  -4.745  24.453  0.00  0.00    +0.221 C 
ATOM      5  C   UNL     1       5.907  -5.287  23.131  0.00  0.00    +0.180 C 
ATOM      6  C   UNL     1       5.471  -4.450  21.930  0.00  0.00    +0.178 C 
ENDROOT
BRANCH   6   7
ATOM      7  O   UNL     1       6.044  -5.023  20.747  0.00  0.00    -0.386 OA
ATOM      8  H   UNL     1       6.823  -5.540  21.024  0.00  0.00    +0.210 HD
ENDBRANCH   6   7
BRANCH   5   9
ATOM      9  O   UNL     1       5.629  -6.662  22.868  0.00  0.00    -0.386 OA
ATOM     10  H   UNL     1       5.853  -6.798  21.926  0.00  0.00    +0.210 HD
ENDBRANCH   5   9
BRANCH   4  11
ATOM     11  O   UNL     1       3.915  -5.033  24.712  0.00  0.00    -0.337 OA
BRANCH  11  12
ATOM     12  C   UNL     1       3.642  -5.884  25.850  0.00  0.00    +0.282 C 
ATOM     13  O   UNL     1       3.209  -7.188  25.395  0.00  0.00    -0.341 OA
ATOM     14  C   UNL     1       1.869  -7.267  24.879  0.00  0.00    +0.178 C 
ATOM     15  C   UNL     1       0.832  -6.756  25.903  0.00  0.00    +0.177 C 
ATOM     16  C   UNL     1       1.212  -5.346  26.335  0.00  0.00    +0.179 C 
ATOM     17  C   UNL     1       2.632  -5.330  26.903  0.00  0.00    +0.201 C 
BRANCH  17  18
ATOM     18  O   UNL     1       2.913  -4.034  27.434  0.00  0.00    -0.384 OA
ATOM     19  H   UNL     1       2.197  -3.785  28.051  0.00  0.00    +0.210 HD
ENDBRANCH  17  18
BRANCH  16  20
ATOM     20  O   UNL     1       1.112  -4.466  25.228  0.00  0.00    -0.386 OA
ATOM     21  H   UNL     1       2.021  -4.311  24.891  0.00  0.00    +0.210 HD
ENDBRANCH  16  20
BRANCH  15  22
ATOM     22  O   UNL     1       0.772  -7.574  27.073  0.00  0.00    -0.386 OA
ATOM     23  H   UNL     1      -0.135  -7.923  27.150  0.00  0.00    +0.210 HD
ENDBRANCH  15  22
BRANCH  14  24
ATOM     24  C   UNL     1       1.616  -8.724  24.449  0.00  0.00    +0.190 C 
BRANCH  24  25
ATOM     25  O   UNL     1       2.258  -9.681  25.285  0.00  0.00    -0.392 OA
ATOM     26  H   UNL     1       2.945 -10.104  24.735  0.00  0.00    +0.210 HD
ENDBRANCH  24  25
ENDBRANCH  14  24
ENDBRANCH  11  12
ENDBRANCH   4  11
BRANCH   3  27
ATOM     27  O   UNL     1       4.871  -2.563  25.602  0.00  0.00    -0.453 OA
BRANCH  27  28
ATOM     28  C   UNL     1       5.356  -1.519  26.377  0.00  0.00    +0.214 A 
ATOM     29  C   UNL     1       4.552  -0.285  26.658  0.00  0.00    +0.238 A 
ATOM     30  O   UNL     1       3.396  -0.183  26.268  0.00  0.00    -0.283 OA
ATOM     31  C   UNL     1       5.229   0.847  27.329  0.00  0.00    +0.109 A 
ATOM     32  C   UNL     1       6.556   0.676  27.709  0.00  0.00    +0.147 A 
ATOM     33  C   UNL     1       7.268   1.721  28.310  0.00  0.00    +0.092 A 
ATOM     34  C   UNL     1       6.633   2.936  28.541  0.00  0.00    +0.124 A 
ATOM     35  C   UNL     1       5.310   3.130  28.164  0.00  0.00    +0.091 A 
ATOM     36  O   UNL     1       7.245  -0.489  27.502  0.00  0.00    -0.451 OA
ATOM     37  C   UNL     1       4.613   2.090  27.548  0.00  0.00    +0.135 A 
ATOM     38  C   UNL     1       6.645  -1.523  26.793  0.00  0.00    +0.181 A 
BRANCH  38  39
ATOM     39  C   UNL     1       7.631  -2.588  26.446  0.00  0.00    +0.025 A 
ATOM     40  C   UNL     1       8.665  -2.370  25.521  0.00  0.00    +0.015 A 
ATOM     41  C   UNL     1       9.512  -3.411  25.123  0.00  0.00    +0.050 A 
ATOM     42  C   UNL     1       9.325  -4.679  25.648  0.00  0.00    +0.158 A 
ATOM     43  C   UNL     1       8.348  -4.910  26.608  0.00  0.00    +0.159 A 
ATOM     44  C   UNL     1       7.503  -3.878  27.013  0.00  0.00    +0.060 A 
BRANCH  43  45
ATOM     45  O   UNL     1       8.250  -6.178  27.114  0.00  0.00    -0.503 OA
ATOM     46  H   UNL     1       8.204  -6.807  26.376  0.00  0.00    +0.292 HD
ENDBRANCH  43  45
BRANCH  42  47
ATOM     47  O   UNL     1      10.103  -5.707  25.198  0.00  0.00    -0.503 OA
ATOM     48  H   UNL     1      11.002  -5.327  25.132  0.00  0.00    +0.292 HD
ENDBRANCH  42  47
ENDBRANCH  38  39
BRANCH  37  49
ATOM     49  O   UNL     1       3.327   2.317  27.151  0.00  0.00    -0.506 OA
ATOM     50  H   UNL     1       2.723   2.290  27.911  0.00  0.00    +0.292 HD
ENDBRANCH  37  49
BRANCH  34  51
ATOM     51  O   UNL     1       7.276   3.980  29.137  0.00  0.00    -0.507 OA
ATOM     52  H   UNL     1       8.147   3.685  29.451  0.00  0.00    +0.292 HD
ENDBRANCH  34  51
ENDBRANCH  27  28
ENDBRANCH   3  27
BRANCH   1  53
ATOM     53  C   UNL     1       7.453  -2.839  22.059  0.00  0.00    +0.266 C 
BRANCH  53  54
ATOM     54  O   UNL     1       7.796  -1.457  22.246  0.00  0.00    -0.459 OA
BRANCH  54  55
ATOM     55  C   UNL     1       9.107  -1.166  22.147  0.00  0.00    +0.332 C 
ATOM     56  O   UNL     1      10.007  -1.929  21.868  0.00  0.00    -0.246 OA
BRANCH  55  58
ATOM     57  C   UNL     1       8.671   0.783  23.530  0.00  0.00    +0.015 C 
ATOM     58  C   UNL     1       9.273   0.266  22.448  0.00  0.00    +0.092 C 
BRANCH  57  60
ATOM     59  C   UNL     1       7.984   2.755  24.945  0.00  0.00    +0.012 A 
ATOM     60  C   UNL     1       8.807   2.176  23.962  0.00  0.00    -0.021 A 
ATOM     61  C   UNL     1       9.827   2.944  23.389  0.00  0.00    +0.057 A 
ATOM     62  C   UNL     1       9.988   4.269  23.769  0.00  0.00    +0.159 A 
ATOM     63  C   UNL     1       9.155   4.843  24.723  0.00  0.00    +0.158 A 
ATOM     64  C   UNL     1       8.153   4.091  25.323  0.00  0.00    +0.050 A 
BRANCH  63  65
ATOM     65  O   UNL     1       9.362   6.157  25.041  0.00  0.00    -0.503 OA
ATOM     66  H   UNL     1      10.145   6.465  24.554  0.00  0.00    +0.292 HD
ENDBRANCH  63  65
BRANCH  62  67
ATOM     67  O   UNL     1      10.976   5.009  23.187  0.00  0.00    -0.503 OA
ATOM     68  H   UNL     1      11.725   4.954  23.814  0.00  0.00    +0.292 HD
ENDBRANCH  62  67
ENDBRANCH  57  60
ENDBRANCH  55  58
ENDBRANCH  54  55
ENDBRANCH  53  54
ENDBRANCH   1  53
TORSDOF 23
ENDMDL
MODEL 5
REMARK VINA RESULT:      -6.6      1.707      5.391
REMARK  Name = 
REMARK  23 active torsions:
REMARK  status: ('A' for Active; 'I' for Inactive)
REMARK    1  A    between atoms: C_3  and  O_62
REMARK    2  A    between atoms: C_4  and  O_61
REMARK    3  A    between atoms: C_6  and  C_7
REMARK    4  A    between atoms: C_8  and  C_9
REMARK    5  A    between atoms: C_9  and  O_11
REMARK    6  A    between atoms: O_11  and  C_12
REMARK    7  A    between atoms: C_12  and  C_13
REMARK    8  A    between atoms: C_14  and  O_60
REMARK    9  A    between atoms: C_16  and  O_59
REMARK   10  A    between atoms: C_18  and  O_44
REMARK   11  A    between atoms: C_19  and  O_22
REMARK   12  A    between atoms: O_22  and  C_23
REMARK   13  A    between atoms: C_24  and  C_36
REMARK   14  A    between atoms: C_28  and  O_35
REMARK   15  A    between atoms: C_30  and  O_34
REMARK   16  A    between atoms: C_38  and  O_43
REMARK   17  A    between atoms: C_39  and  O_42
REMARK   18  A    between atoms: O_44  and  C_45
REMARK   19  A    between atoms: C_47  and  O_58
REMARK   20  A    between atoms: C_48  and  O_57
REMARK   21  A    between atoms: C_50  and  O_56
REMARK   22  A    between atoms: C_52  and  C_54
REMARK   23  A    between atoms: C_54  and  O_55
REMARK                            x       y       z     vdW  Elec       q    Type
REMARK                         _______ _______ _______ _____ _____    ______ ____
ROOT
ATOM      1  C   UNL     1       4.424   1.020  28.496  0.00  0.00    +0.191 C 
ATOM      2  O   UNL     1       4.554   0.910  27.072  0.00  0.00    -0.330 OA
ATOM      3  C   UNL     1       5.868   0.563  26.575  0.00  0.00    +0.340 C 
ATOM      4  C   UNL     1       6.989   1.522  27.118  0.00  0.00    +0.221 C 
ATOM      5  C   UNL     1       6.815   1.691  28.643  0.00  0.00    +0.180 C 
ATOM      6  C   UNL     1       5.386   2.089  29.012  0.00  0.00    +0.178 C 
ENDROOT
BRANCH   6   7
ATOM      7  O   UNL     1       5.312   2.238  30.436  0.00  0.00    -0.386 OA
ATOM      8  H   UNL     1       5.676   3.116  30.655  0.00  0.00    +0.210 HD
ENDBRANCH   6   7
BRANCH   5   9
ATOM      9  O   UNL     1       7.727   2.603  29.256  0.00  0.00    -0.386 OA
ATOM     10  H   UNL     1       8.618   2.301  28.988  0.00  0.00    +0.210 HD
ENDBRANCH   5   9
BRANCH   4  11
ATOM     11  O   UNL     1       7.085   2.744  26.330  0.00  0.00    -0.337 OA
BRANCH  11  12
ATOM     12  C   UNL     1       6.088   3.756  26.607  0.00  0.00    +0.282 C 
ATOM     13  O   UNL     1       5.189   3.880  25.480  0.00  0.00    -0.341 OA
ATOM     14  C   UNL     1       5.710   4.558  24.324  0.00  0.00    +0.178 C 
ATOM     15  C   UNL     1       6.226   5.972  24.675  0.00  0.00    +0.177 C 
ATOM     16  C   UNL     1       7.245   5.864  25.801  0.00  0.00    +0.179 C 
ATOM     17  C   UNL     1       6.625   5.165  27.012  0.00  0.00    +0.201 C 
BRANCH  17  18
ATOM     18  O   UNL     1       7.547   5.205  28.103  0.00  0.00    -0.384 OA
ATOM     19  H   UNL     1       8.429   4.932  27.780  0.00  0.00    +0.210 HD
ENDBRANCH  17  18
BRANCH  16  20
ATOM     20  O   UNL     1       8.383   5.151  25.346  0.00  0.00    -0.386 OA
ATOM     21  H   UNL     1       9.178   5.652  25.632  0.00  0.00    +0.210 HD
ENDBRANCH  16  20
BRANCH  15  22
ATOM     22  O   UNL     1       5.180   6.842  25.109  0.00  0.00    -0.386 OA
ATOM     23  H   UNL     1       5.095   7.560  24.456  0.00  0.00    +0.210 HD
ENDBRANCH  15  22
BRANCH  14  24
ATOM     24  C   UNL     1       4.606   4.575  23.250  0.00  0.00    +0.190 C 
BRANCH  24  25
ATOM     25  O   UNL     1       5.061   4.165  21.964  0.00  0.00    -0.392 OA
ATOM     26  H   UNL     1       4.696   4.812  21.329  0.00  0.00    +0.210 HD
ENDBRANCH  24  25
ENDBRANCH  14  24
ENDBRANCH  11  12
ENDBRANCH   4  11
BRANCH   3  27
ATOM     27  O   UNL     1       5.769   0.587  25.138  0.00  0.00    -0.453 OA
BRANCH  27  28
ATOM     28  C   UNL     1       6.035  -0.508  24.329  0.00  0.00    +0.214 A 
ATOM     29  C   UNL     1       5.274  -1.796  24.440  0.00  0.00    +0.238 A 
ATOM     30  O   UNL     1       4.328  -1.904  25.211  0.00  0.00    -0.283 OA
ATOM     31  C   UNL     1       5.762  -2.960  23.669  0.00  0.00    +0.109 A 
ATOM     32  C   UNL     1       6.866  -2.774  22.843  0.00  0.00    +0.147 A 
ATOM     33  C   UNL     1       7.405  -3.845  22.119  0.00  0.00    +0.092 A 
ATOM     34  C   UNL     1       6.818  -5.100  22.217  0.00  0.00    +0.124 A 
ATOM     35  C   UNL     1       5.718  -5.309  23.040  0.00  0.00    +0.091 A 
ATOM     36  O   UNL     1       7.500  -1.568  22.707  0.00  0.00    -0.451 OA
ATOM     37  C   UNL     1       5.199  -4.242  23.775  0.00  0.00    +0.135 A 
ATOM     38  C   UNL     1       7.103  -0.493  23.496  0.00  0.00    +0.181 A 
BRANCH  38  39
ATOM     39  C   UNL     1       8.070   0.639  23.397  0.00  0.00    +0.025 A 
ATOM     40  C   UNL     1       9.345   0.580  23.984  0.00  0.00    +0.015 A 
ATOM     41  C   UNL     1      10.195   1.693  23.978  0.00  0.00    +0.050 A 
ATOM     42  C   UNL     1       9.772   2.870  23.387  0.00  0.00    +0.158 A 
ATOM     43  C   UNL     1       8.540   2.939  22.748  0.00  0.00    +0.159 A 
ATOM     44  C   UNL     1       7.688   1.835  22.746  0.00  0.00    +0.060 A 
BRANCH  43  45
ATOM     45  O   UNL     1       8.206   4.123  22.148  0.00  0.00    -0.503 OA
ATOM     46  H   UNL     1       8.312   4.842  22.792  0.00  0.00    +0.292 HD
ENDBRANCH  43  45
BRANCH  42  47
ATOM     47  O   UNL     1      10.573   3.974  23.452  0.00  0.00    -0.503 OA
ATOM     48  H   UNL     1      10.540   4.249  24.390  0.00  0.00    +0.292 HD
ENDBRANCH  42  47
ENDBRANCH  38  39
BRANCH  37  49
ATOM     49  O   UNL     1       4.143  -4.480  24.607  0.00  0.00    -0.506 OA
ATOM     50  H   UNL     1       4.309  -5.262  25.158  0.00  0.00    +0.292 HD
ENDBRANCH  37  49
BRANCH  34  51
ATOM     51  O   UNL     1       7.293  -6.172  21.521  0.00  0.00    -0.507 OA
ATOM     52  H   UNL     1       8.217  -6.336  21.774  0.00  0.00    +0.292 HD
ENDBRANCH  34  51
ENDBRANCH  27  28
ENDBRANCH   3  27
BRANCH   1  53
ATOM     53  C   UNL     1       4.552  -0.315  29.261  0.00  0.00    +0.266 C 
BRANCH  53  54
ATOM     54  O   UNL     1       3.458  -1.176  28.908  0.00  0.00    -0.459 OA
BRANCH  54  55
ATOM     55  C   UNL     1       3.741  -2.492  28.877  0.00  0.00    +0.332 C 
ATOM     56  O   UNL     1       3.098  -3.391  29.375  0.00  0.00    -0.246 OA
BRANCH  55  58
ATOM     57  C   UNL     1       5.448  -3.901  27.875  0.00  0.00    +0.015 C 
ATOM     58  C   UNL     1       4.996  -2.663  28.126  0.00  0.00    +0.092 C 
BRANCH  57  60
ATOM     59  C   UNL     1       7.011  -5.503  26.713  0.00  0.00    +0.012 A 
ATOM     60  C   UNL     1       6.650  -4.198  27.092  0.00  0.00    -0.021 A 
ATOM     61  C   UNL     1       7.445  -3.123  26.679  0.00  0.00    +0.057 A 
ATOM     62  C   UNL     1       8.593  -3.362  25.938  0.00  0.00    +0.159 A 
ATOM     63  C   UNL     1       8.959  -4.657  25.587  0.00  0.00    +0.158 A 
ATOM     64  C   UNL     1       8.170  -5.736  25.964  0.00  0.00    +0.050 A 
BRANCH  63  65
ATOM     65  O   UNL     1      10.110  -4.819  24.866  0.00  0.00    -0.503 OA
ATOM     66  H   UNL     1       9.875  -5.210  24.007  0.00  0.00    +0.292 HD
ENDBRANCH  63  65
BRANCH  62  67
ATOM     67  O   UNL     1       9.367  -2.303  25.558  0.00  0.00    -0.503 OA
ATOM     68  H   UNL     1      10.034  -2.691  24.957  0.00  0.00    +0.292 HD
ENDBRANCH  62  67
ENDBRANCH  57  60
ENDBRANCH  55  58
ENDBRANCH  54  55
ENDBRANCH  53  54
ENDBRANCH   1  53
TORSDOF 23
ENDMDL
MODEL 6
REMARK VINA RESULT:      -6.6      2.025      9.358
REMARK  Name = 
REMARK  23 active torsions:
REMARK  status: ('A' for Active; 'I' for Inactive)
REMARK    1  A    between atoms: C_3  and  O_62
REMARK    2  A    between atoms: C_4  and  O_61
REMARK    3  A    between atoms: C_6  and  C_7
REMARK    4  A    between atoms: C_8  and  C_9
REMARK    5  A    between atoms: C_9  and  O_11
REMARK    6  A    between atoms: O_11  and  C_12
REMARK    7  A    between atoms: C_12  and  C_13
REMARK    8  A    between atoms: C_14  and  O_60
REMARK    9  A    between atoms: C_16  and  O_59
REMARK   10  A    between atoms: C_18  and  O_44
REMARK   11  A    between atoms: C_19  and  O_22
REMARK   12  A    between atoms: O_22  and  C_23
REMARK   13  A    between atoms: C_24  and  C_36
REMARK   14  A    between atoms: C_28  and  O_35
REMARK   15  A    between atoms: C_30  and  O_34
REMARK   16  A    between atoms: C_38  and  O_43
REMARK   17  A    between atoms: C_39  and  O_42
REMARK   18  A    between atoms: O_44  and  C_45
REMARK   19  A    between atoms: C_47  and  O_58
REMARK   20  A    between atoms: C_48  and  O_57
REMARK   21  A    between atoms: C_50  and  O_56
REMARK   22  A    between atoms: C_52  and  C_54
REMARK   23  A    between atoms: C_54  and  O_55
REMARK                            x       y       z     vdW  Elec       q    Type
REMARK                         _______ _______ _______ _____ _____    ______ ____
ROOT
ATOM      1  C   UNL     1       3.354  -0.606  28.008  0.00  0.00    +0.191 C 
ATOM      2  O   UNL     1       4.703  -0.943  27.660  0.00  0.00    -0.330 OA
ATOM      3  C   UNL     1       4.885  -1.638  26.403  0.00  0.00    +0.340 C 
ATOM      4  C   UNL     1       3.991  -2.928  26.295  0.00  0.00    +0.221 C 
ATOM      5  C   UNL     1       2.550  -2.583  26.729  0.00  0.00    +0.180 C 
ATOM      6  C   UNL     1       2.516  -1.883  28.086  0.00  0.00    +0.178 C 
ENDROOT
BRANCH   6   7
ATOM      7  O   UNL     1       1.148  -1.610  28.421  0.00  0.00    -0.386 OA
ATOM      8  H   UNL     1       0.804  -2.391  28.892  0.00  0.00    +0.210 HD
ENDBRANCH   6   7
BRANCH   5   9
ATOM      9  O   UNL     1       1.647  -3.688  26.750  0.00  0.00    -0.386 OA
ATOM     10  H   UNL     1       0.752  -3.294  26.784  0.00  0.00    +0.210 HD
ENDBRANCH   5   9
BRANCH   4  11
ATOM     11  O   UNL     1       4.614  -4.074  26.946  0.00  0.00    -0.337 OA
BRANCH  11  12
ATOM     12  C   UNL     1       5.199  -5.062  26.066  0.00  0.00    +0.282 C 
ATOM     13  O   UNL     1       4.571  -4.993  24.764  0.00  0.00    -0.341 OA
ATOM     14  C   UNL     1       3.244  -5.540  24.670  0.00  0.00    +0.178 C 
ATOM     15  C   UNL     1       3.198  -7.011  25.140  0.00  0.00    +0.177 C 
ATOM     16  C   UNL     1       3.772  -7.103  26.547  0.00  0.00    +0.179 C 
ATOM     17  C   UNL     1       5.192  -6.537  26.578  0.00  0.00    +0.201 C 
BRANCH  17  18
ATOM     18  O   UNL     1       5.763  -6.765  27.868  0.00  0.00    -0.384 OA
ATOM     19  H   UNL     1       6.372  -7.527  27.812  0.00  0.00    +0.210 HD
ENDBRANCH  17  18
BRANCH  16  20
ATOM     20  O   UNL     1       2.937  -6.394  27.448  0.00  0.00    -0.386 OA
ATOM     21  H   UNL     1       2.964  -5.447  27.191  0.00  0.00    +0.210 HD
ENDBRANCH  16  20
BRANCH  15  22
ATOM     22  O   UNL     1       3.959  -7.877  24.296  0.00  0.00    -0.386 OA
ATOM     23  H   UNL     1       4.048  -7.447  23.426  0.00  0.00    +0.210 HD
ENDBRANCH  15  22
BRANCH  14  24
ATOM     24  C   UNL     1       2.763  -5.361  23.218  0.00  0.00    +0.190 C 
BRANCH  24  25
ATOM     25  O   UNL     1       3.572  -6.043  22.265  0.00  0.00    -0.392 OA
ATOM     26  H   UNL     1       3.713  -5.415  21.530  0.00  0.00    +0.210 HD
ENDBRANCH  24  25
ENDBRANCH  14  24
ENDBRANCH  11  12
ENDBRANCH   4  11
BRANCH   3  27
ATOM     27  O   UNL     1       6.292  -1.931  26.311  0.00  0.00    -0.453 OA
BRANCH  27  28
ATOM     28  C   UNL     1       7.206  -1.121  25.654  0.00  0.00    +0.214 A 
ATOM     29  C   UNL     1       7.456   0.302  26.059  0.00  0.00    +0.238 A 
ATOM     30  O   UNL     1       6.907   0.784  27.042  0.00  0.00    -0.283 OA
ATOM     31  C   UNL     1       8.303   1.136  25.178  0.00  0.00    +0.109 A 
ATOM     32  C   UNL     1       8.863   0.533  24.056  0.00  0.00    +0.147 A 
ATOM     33  C   UNL     1       9.639   1.275  23.158  0.00  0.00    +0.092 A 
ATOM     34  C   UNL     1       9.864   2.625  23.403  0.00  0.00    +0.124 A 
ATOM     35  C   UNL     1       9.310   3.248  24.514  0.00  0.00    +0.091 A 
ATOM     36  O   UNL     1       8.675  -0.788  23.749  0.00  0.00    -0.451 OA
ATOM     37  C   UNL     1       8.520   2.507  25.393  0.00  0.00    +0.135 A 
ATOM     38  C   UNL     1       7.808  -1.554  24.521  0.00  0.00    +0.181 A 
BRANCH  38  39
ATOM     39  C   UNL     1       7.534  -2.874  23.882  0.00  0.00    +0.025 A 
ATOM     40  C   UNL     1       8.163  -4.053  24.314  0.00  0.00    +0.015 A 
ATOM     41  C   UNL     1       7.980  -5.262  23.632  0.00  0.00    +0.050 A 
ATOM     42  C   UNL     1       7.168  -5.296  22.511  0.00  0.00    +0.158 A 
ATOM     43  C   UNL     1       6.488  -4.158  22.096  0.00  0.00    +0.159 A 
ATOM     44  C   UNL     1       6.662  -2.950  22.771  0.00  0.00    +0.060 A 
BRANCH  43  45
ATOM     45  O   UNL     1       5.669  -4.276  21.006  0.00  0.00    -0.503 OA
ATOM     46  H   UNL     1       5.640  -5.209  20.736  0.00  0.00    +0.292 HD
ENDBRANCH  43  45
BRANCH  42  47
ATOM     47  O   UNL     1       7.056  -6.459  21.806  0.00  0.00    -0.503 OA
ATOM     48  H   UNL     1       7.972  -6.683  21.549  0.00  0.00    +0.292 HD
ENDBRANCH  42  47
ENDBRANCH  38  39
BRANCH  37  49
ATOM     49  O   UNL     1       7.954   3.150  26.456  0.00  0.00    -0.506 OA
ATOM     50  H   UNL     1       7.028   2.877  26.569  0.00  0.00    +0.292 HD
ENDBRANCH  37  49
BRANCH  34  51
ATOM     51  O   UNL     1      10.625   3.389  22.569  0.00  0.00    -0.507 OA
ATOM     52  H   UNL     1      11.257   3.908  23.095  0.00  0.00    +0.292 HD
ENDBRANCH  34  51
ENDBRANCH  27  28
ENDBRANCH   3  27
BRANCH   1  53
ATOM     53  C   UNL     1       2.707   0.475  27.116  0.00  0.00    +0.266 C 
BRANCH  53  54
ATOM     54  O   UNL     1       3.603   1.591  26.990  0.00  0.00    -0.459 OA
BRANCH  54  55
ATOM     55  C   UNL     1       3.016   2.796  26.866  0.00  0.00    +0.332 C 
ATOM     56  O   UNL     1       1.966   3.153  27.356  0.00  0.00    -0.246 OA
BRANCH  55  58
ATOM     57  C   UNL     1       4.602   3.047  25.043  0.00  0.00    +0.015 C 
ATOM     58  C   UNL     1       3.879   3.629  26.012  0.00  0.00    +0.092 C 
BRANCH  57  60
ATOM     59  C   UNL     1       5.902   3.215  22.888  0.00  0.00    +0.012 A 
ATOM     60  C   UNL     1       5.451   3.775  24.097  0.00  0.00    -0.021 A 
ATOM     61  C   UNL     1       5.793   5.097  24.405  0.00  0.00    +0.057 A 
ATOM     62  C   UNL     1       6.597   5.820  23.537  0.00  0.00    +0.159 A 
ATOM     63  C   UNL     1       7.060   5.253  22.354  0.00  0.00    +0.158 A 
ATOM     64  C   UNL     1       6.712   3.952  22.017  0.00  0.00    +0.050 A 
BRANCH  63  65
ATOM     65  O   UNL     1       7.859   6.020  21.551  0.00  0.00    -0.503 OA
ATOM     66  H   UNL     1       8.760   5.999  21.914  0.00  0.00    +0.292 HD
ENDBRANCH  63  65
BRANCH  62  67
ATOM     67  O   UNL     1       6.935   7.103  23.861  0.00  0.00    -0.503 OA
ATOM     68  H   UNL     1       6.098   7.602  23.788  0.00  0.00    +0.292 HD
ENDBRANCH  62  67
ENDBRANCH  57  60
ENDBRANCH  55  58
ENDBRANCH  54  55
ENDBRANCH  53  54
ENDBRANCH   1  53
TORSDOF 23
ENDMDL
MODEL 7
REMARK VINA RESULT:      -6.5      2.187      3.756
REMARK  Name = 
REMARK  23 active torsions:
REMARK  status: ('A' for Active; 'I' for Inactive)
REMARK    1  A    between atoms: C_3  and  O_62
REMARK    2  A    between atoms: C_4  and  O_61
REMARK    3  A    between atoms: C_6  and  C_7
REMARK    4  A    between atoms: C_8  and  C_9
REMARK    5  A    between atoms: C_9  and  O_11
REMARK    6  A    between atoms: O_11  and  C_12
REMARK    7  A    between atoms: C_12  and  C_13
REMARK    8  A    between atoms: C_14  and  O_60
REMARK    9  A    between atoms: C_16  and  O_59
REMARK   10  A    between atoms: C_18  and  O_44
REMARK   11  A    between atoms: C_19  and  O_22
REMARK   12  A    between atoms: O_22  and  C_23
REMARK   13  A    between atoms: C_24  and  C_36
REMARK   14  A    between atoms: C_28  and  O_35
REMARK   15  A    between atoms: C_30  and  O_34
REMARK   16  A    between atoms: C_38  and  O_43
REMARK   17  A    between atoms: C_39  and  O_42
REMARK   18  A    between atoms: O_44  and  C_45
REMARK   19  A    between atoms: C_47  and  O_58
REMARK   20  A    between atoms: C_48  and  O_57
REMARK   21  A    between atoms: C_50  and  O_56
REMARK   22  A    between atoms: C_52  and  C_54
REMARK   23  A    between atoms: C_54  and  O_55
REMARK                            x       y       z     vdW  Elec       q    Type
REMARK                         _______ _______ _______ _____ _____    ______ ____
ROOT
ATOM      1  C   UNL     1       9.344   0.394  25.237  0.00  0.00    +0.191 C 
ATOM      2  O   UNL     1       7.976   0.411  25.667  0.00  0.00    -0.330 OA
ATOM      3  C   UNL     1       6.980   0.213  24.636  0.00  0.00    +0.340 C 
ATOM      4  C   UNL     1       7.150   1.215  23.436  0.00  0.00    +0.221 C 
ATOM      5  C   UNL     1       8.635   1.247  23.010  0.00  0.00    +0.180 C 
ATOM      6  C   UNL     1       9.562   1.494  24.199  0.00  0.00    +0.178 C 
ENDROOT
BRANCH   6   7
ATOM      7  O   UNL     1      10.914   1.522  23.720  0.00  0.00    -0.386 OA
ATOM      8  H   UNL     1      11.349   0.709  24.034  0.00  0.00    +0.210 HD
ENDBRANCH   6   7
BRANCH   5   9
ATOM      9  O   UNL     1       8.944   2.178  21.974  0.00  0.00    -0.386 OA
ATOM     10  H   UNL     1       9.918   2.159  21.888  0.00  0.00    +0.210 HD
ENDBRANCH   5   9
BRANCH   4  11
ATOM     11  O   UNL     1       6.520   2.500  23.709  0.00  0.00    -0.337 OA
BRANCH  11  12
ATOM     12  C   UNL     1       5.828   3.117  22.598  0.00  0.00    +0.282 C 
ATOM     13  O   UNL     1       6.615   4.216  22.079  0.00  0.00    -0.341 OA
ATOM     14  C   UNL     1       6.631   5.414  22.873  0.00  0.00    +0.178 C 
ATOM     15  C   UNL     1       5.203   5.941  23.142  0.00  0.00    +0.177 C 
ATOM     16  C   UNL     1       4.374   4.831  23.773  0.00  0.00    +0.179 C 
ATOM     17  C   UNL     1       4.368   3.596  22.872  0.00  0.00    +0.201 C 
BRANCH  17  18
ATOM     18  O   UNL     1       3.470   2.623  23.410  0.00  0.00    -0.384 OA
ATOM     19  H   UNL     1       3.172   2.924  24.291  0.00  0.00    +0.210 HD
ENDBRANCH  17  18
BRANCH  16  20
ATOM     20  O   UNL     1       4.903   4.510  25.049  0.00  0.00    -0.386 OA
ATOM     21  H   UNL     1       4.575   3.615  25.287  0.00  0.00    +0.210 HD
ENDBRANCH  16  20
BRANCH  15  22
ATOM     22  O   UNL     1       4.542   6.359  21.947  0.00  0.00    -0.386 OA
ATOM     23  H   UNL     1       3.709   5.858  21.873  0.00  0.00    +0.210 HD
ENDBRANCH  15  22
BRANCH  14  24
ATOM     24  C   UNL     1       7.521   6.444  22.152  0.00  0.00    +0.190 C 
BRANCH  24  25
ATOM     25  O   UNL     1       6.941   6.954  20.955  0.00  0.00    -0.392 OA
ATOM     26  H   UNL     1       5.977   6.985  21.113  0.00  0.00    +0.210 HD
ENDBRANCH  24  25
ENDBRANCH  14  24
ENDBRANCH  11  12
ENDBRANCH   4  11
BRANCH   3  27
ATOM     27  O   UNL     1       5.702   0.344  25.287  0.00  0.00    -0.453 OA
BRANCH  27  28
ATOM     28  C   UNL     1       5.201  -0.579  26.193  0.00  0.00    +0.214 A 
ATOM     29  C   UNL     1       4.505  -1.836  25.759  0.00  0.00    +0.238 A 
ATOM     30  O   UNL     1       4.417  -2.130  24.573  0.00  0.00    -0.283 OA
ATOM     31  C   UNL     1       3.840  -2.655  26.796  0.00  0.00    +0.109 A 
ATOM     32  C   UNL     1       3.947  -2.239  28.119  0.00  0.00    +0.147 A 
ATOM     33  C   UNL     1       3.306  -2.944  29.144  0.00  0.00    +0.092 A 
ATOM     34  C   UNL     1       2.568  -4.080  28.834  0.00  0.00    +0.124 A 
ATOM     35  C   UNL     1       2.442  -4.510  27.519  0.00  0.00    +0.091 A 
ATOM     36  O   UNL     1       4.649  -1.124  28.494  0.00  0.00    -0.451 OA
ATOM     37  C   UNL     1       3.068  -3.790  26.500  0.00  0.00    +0.135 A 
ATOM     38  C   UNL     1       5.201  -0.301  27.519  0.00  0.00    +0.181 A 
BRANCH  38  39
ATOM     39  C   UNL     1       5.689   0.982  28.102  0.00  0.00    +0.025 A 
ATOM     40  C   UNL     1       5.084   2.213  27.799  0.00  0.00    +0.015 A 
ATOM     41  C   UNL     1       5.624   3.418  28.266  0.00  0.00    +0.050 A 
ATOM     42  C   UNL     1       6.774   3.396  29.036  0.00  0.00    +0.158 A 
ATOM     43  C   UNL     1       7.359   2.190  29.400  0.00  0.00    +0.159 A 
ATOM     44  C   UNL     1       6.827   0.985  28.942  0.00  0.00    +0.060 A 
BRANCH  43  45
ATOM     45  O   UNL     1       8.469   2.244  30.199  0.00  0.00    -0.503 OA
ATOM     46  H   UNL     1       9.184   1.741  29.776  0.00  0.00    +0.292 HD
ENDBRANCH  43  45
BRANCH  42  47
ATOM     47  O   UNL     1       7.339   4.577  29.423  0.00  0.00    -0.503 OA
ATOM     48  H   UNL     1       6.637   5.033  29.929  0.00  0.00    +0.292 HD
ENDBRANCH  42  47
ENDBRANCH  38  39
BRANCH  37  49
ATOM     49  O   UNL     1       2.898  -4.209  25.211  0.00  0.00    -0.506 OA
ATOM     50  H   UNL     1       2.586  -3.479  24.651  0.00  0.00    +0.292 HD
ENDBRANCH  37  49
BRANCH  34  51
ATOM     51  O   UNL     1       1.937  -4.811  29.796  0.00  0.00    -0.507 OA
ATOM     52  H   UNL     1       1.936  -5.749  29.539  0.00  0.00    +0.292 HD
ENDBRANCH  34  51
ENDBRANCH  27  28
ENDBRANCH   3  27
BRANCH   1  53
ATOM     53  C   UNL     1       9.856  -0.982  24.762  0.00  0.00    +0.266 C 
BRANCH  53  54
ATOM     54  O   UNL     1       8.738  -1.844  24.499  0.00  0.00    -0.459 OA
BRANCH  54  55
ATOM     55  C   UNL     1       8.758  -2.475  23.309  0.00  0.00    +0.332 C 
ATOM     56  O   UNL     1       9.462  -2.219  22.357  0.00  0.00    -0.246 OA
BRANCH  55  58
ATOM     57  C   UNL     1       7.429  -4.094  24.539  0.00  0.00    +0.015 C 
ATOM     58  C   UNL     1       7.756  -3.552  23.356  0.00  0.00    +0.092 C 
BRANCH  57  60
ATOM     59  C   UNL     1       5.628  -5.625  23.659  0.00  0.00    +0.012 A 
ATOM     60  C   UNL     1       6.408  -5.130  24.719  0.00  0.00    -0.021 A 
ATOM     61  C   UNL     1       6.237  -5.666  26.001  0.00  0.00    +0.057 A 
ATOM     62  C   UNL     1       5.279  -6.646  26.214  0.00  0.00    +0.159 A 
ATOM     63  C   UNL     1       4.493  -7.115  25.166  0.00  0.00    +0.158 A 
ATOM     64  C   UNL     1       4.664  -6.615  23.882  0.00  0.00    +0.050 A 
BRANCH  63  65
ATOM     65  O   UNL     1       3.560  -8.074  25.451  0.00  0.00    -0.503 OA
ATOM     66  H   UNL     1       2.969  -8.157  24.684  0.00  0.00    +0.292 HD
ENDBRANCH  63  65
BRANCH  62  67
ATOM     67  O   UNL     1       5.112  -7.146  27.473  0.00  0.00    -0.503 OA
ATOM     68  H   UNL     1       4.196  -6.903  27.714  0.00  0.00    +0.292 HD
ENDBRANCH  62  67
ENDBRANCH  57  60
ENDBRANCH  55  58
ENDBRANCH  54  55
ENDBRANCH  53  54
ENDBRANCH   1  53
TORSDOF 23
ENDMDL
MODEL 8
REMARK VINA RESULT:      -6.4      2.371      6.978
REMARK  Name = 
REMARK  23 active torsions:
REMARK  status: ('A' for Active; 'I' for Inactive)
REMARK    1  A    between atoms: C_3  and  O_62
REMARK    2  A    between atoms: C_4  and  O_61
REMARK    3  A    between atoms: C_6  and  C_7
REMARK    4  A    between atoms: C_8  and  C_9
REMARK    5  A    between atoms: C_9  and  O_11
REMARK    6  A    between atoms: O_11  and  C_12
REMARK    7  A    between atoms: C_12  and  C_13
REMARK    8  A    between atoms: C_14  and  O_60
REMARK    9  A    between atoms: C_16  and  O_59
REMARK   10  A    between atoms: C_18  and  O_44
REMARK   11  A    between atoms: C_19  and  O_22
REMARK   12  A    between atoms: O_22  and  C_23
REMARK   13  A    between atoms: C_24  and  C_36
REMARK   14  A    between atoms: C_28  and  O_35
REMARK   15  A    between atoms: C_30  and  O_34
REMARK   16  A    between atoms: C_38  and  O_43
REMARK   17  A    between atoms: C_39  and  O_42
REMARK   18  A    between atoms: O_44  and  C_45
REMARK   19  A    between atoms: C_47  and  O_58
REMARK   20  A    between atoms: C_48  and  O_57
REMARK   21  A    between atoms: C_50  and  O_56
REMARK   22  A    between atoms: C_52  and  C_54
REMARK   23  A    between atoms: C_54  and  O_55
REMARK                            x       y       z     vdW  Elec       q    Type
REMARK                         _______ _______ _______ _____ _____    ______ ____
ROOT
ATOM      1  C   UNL     1       6.106  -1.332  25.379  0.00  0.00    +0.191 C 
ATOM      2  O   UNL     1       6.654  -0.354  24.486  0.00  0.00    -0.330 OA
ATOM      3  C   UNL     1       6.647   1.016  24.954  0.00  0.00    +0.340 C 
ATOM      4  C   UNL     1       5.217   1.486  25.412  0.00  0.00    +0.221 C 
ATOM      5  C   UNL     1       4.598   0.405  26.325  0.00  0.00    +0.180 C 
ATOM      6  C   UNL     1       4.650  -0.980  25.684  0.00  0.00    +0.178 C 
ENDROOT
BRANCH   6   7
ATOM      7  O   UNL     1       4.047  -1.919  26.585  0.00  0.00    -0.386 OA
ATOM      8  H   UNL     1       4.001  -1.492  27.460  0.00  0.00    +0.210 HD
ENDBRANCH   6   7
BRANCH   5   9
ATOM      9  O   UNL     1       3.262   0.673  26.753  0.00  0.00    -0.386 OA
ATOM     10  H   UNL     1       3.220   1.641  26.886  0.00  0.00    +0.210 HD
ENDBRANCH   5   9
BRANCH   4  11
ATOM     11  O   UNL     1       4.408   1.933  24.285  0.00  0.00    -0.337 OA
BRANCH  11  12
ATOM     12  C   UNL     1       3.528   3.053  24.542  0.00  0.00    +0.282 C 
ATOM     13  O   UNL     1       2.374   2.979  23.672  0.00  0.00    -0.341 OA
ATOM     14  C   UNL     1       2.594   3.331  22.295  0.00  0.00    +0.178 C 
ATOM     15  C   UNL     1       3.201   4.745  22.156  0.00  0.00    +0.177 C 
ATOM     16  C   UNL     1       4.471   4.826  22.993  0.00  0.00    +0.179 C 
ATOM     17  C   UNL     1       4.169   4.473  24.450  0.00  0.00    +0.201 C 
BRANCH  17  18
ATOM     18  O   UNL     1       5.338   4.696  25.241  0.00  0.00    -0.384 OA
ATOM     19  H   UNL     1       5.507   3.900  25.783  0.00  0.00    +0.210 HD
ENDBRANCH  17  18
BRANCH  16  20
ATOM     20  O   UNL     1       5.446   3.945  22.462  0.00  0.00    -0.386 OA
ATOM     21  H   UNL     1       5.667   4.259  21.558  0.00  0.00    +0.210 HD
ENDBRANCH  16  20
BRANCH  15  22
ATOM     22  O   UNL     1       2.311   5.767  22.608  0.00  0.00    -0.386 OA
ATOM     23  H   UNL     1       1.630   5.897  21.923  0.00  0.00    +0.210 HD
ENDBRANCH  15  22
BRANCH  14  24
ATOM     24  C   UNL     1       1.254   3.181  21.551  0.00  0.00    +0.190 C 
BRANCH  24  25
ATOM     25  O   UNL     1       1.137   1.953  20.838  0.00  0.00    -0.392 OA
ATOM     26  H   UNL     1       0.180   1.779  20.755  0.00  0.00    +0.210 HD
ENDBRANCH  24  25
ENDBRANCH  14  24
ENDBRANCH  11  12
ENDBRANCH   4  11
BRANCH   3  27
ATOM     27  O   UNL     1       7.169   1.809  23.872  0.00  0.00    -0.453 OA
BRANCH  27  28
ATOM     28  C   UNL     1       8.458   2.321  23.844  0.00  0.00    +0.214 A 
ATOM     29  C   UNL     1       8.747   3.783  24.009  0.00  0.00    +0.238 A 
ATOM     30  O   UNL     1       7.849   4.580  24.250  0.00  0.00    -0.283 OA
ATOM     31  C   UNL     1      10.131   4.249  23.771  0.00  0.00    +0.109 A 
ATOM     32  C   UNL     1      11.093   3.292  23.463  0.00  0.00    +0.147 A 
ATOM     33  C   UNL     1      12.412   3.670  23.184  0.00  0.00    +0.092 A 
ATOM     34  C   UNL     1      12.763   5.014  23.232  0.00  0.00    +0.124 A 
ATOM     35  C   UNL     1      11.817   5.986  23.533  0.00  0.00    +0.091 A 
ATOM     36  O   UNL     1      10.815   1.954  23.387  0.00  0.00    -0.451 OA
ATOM     37  C   UNL     1      10.500   5.604  23.789  0.00  0.00    +0.135 A 
ATOM     38  C   UNL     1       9.501   1.519  23.521  0.00  0.00    +0.181 A 
BRANCH  38  39
ATOM     39  C   UNL     1       9.365   0.080  23.150  0.00  0.00    +0.025 A 
ATOM     40  C   UNL     1       8.649  -0.329  22.012  0.00  0.00    +0.015 A 
ATOM     41  C   UNL     1       8.436  -1.685  21.740  0.00  0.00    +0.050 A 
ATOM     42  C   UNL     1       8.935  -2.640  22.609  0.00  0.00    +0.158 A 
ATOM     43  C   UNL     1       9.696  -2.267  23.711  0.00  0.00    +0.159 A 
ATOM     44  C   UNL     1       9.916  -0.918  23.987  0.00  0.00    +0.060 A 
BRANCH  43  45
ATOM     45  O   UNL     1      10.193  -3.267  24.501  0.00  0.00    -0.503 OA
ATOM     46  H   UNL     1       9.469  -3.869  24.737  0.00  0.00    +0.292 HD
ENDBRANCH  43  45
BRANCH  42  47
ATOM     47  O   UNL     1       8.658  -3.958  22.382  0.00  0.00    -0.503 OA
ATOM     48  H   UNL     1       8.876  -4.406  23.223  0.00  0.00    +0.292 HD
ENDBRANCH  42  47
ENDBRANCH  38  39
BRANCH  37  49
ATOM     49  O   UNL     1       9.579   6.580  24.043  0.00  0.00    -0.506 OA
ATOM     50  H   UNL     1       8.900   6.600  23.349  0.00  0.00    +0.292 HD
ENDBRANCH  37  49
BRANCH  34  51
ATOM     51  O   UNL     1      14.037   5.433  22.985  0.00  0.00    -0.507 OA
ATOM     52  H   UNL     1      14.027   6.380  22.767  0.00  0.00    +0.292 HD
ENDBRANCH  34  51
ENDBRANCH  27  28
ENDBRANCH   3  27
BRANCH   1  53
ATOM     53  C   UNL     1       6.938  -1.580  26.656  0.00  0.00    +0.266 C 
BRANCH  53  54
ATOM     54  O   UNL     1       6.725  -2.925  27.112  0.00  0.00    -0.459 OA
BRANCH  54  55
ATOM     55  C   UNL     1       7.544  -3.855  26.582  0.00  0.00    +0.332 C 
ATOM     56  O   UNL     1       8.728  -3.996  26.799  0.00  0.00    -0.246 OA
BRANCH  55  58
ATOM     57  C   UNL     1       5.445  -4.889  25.930  0.00  0.00    +0.015 C 
ATOM     58  C   UNL     1       6.745  -4.687  25.668  0.00  0.00    +0.092 C 
BRANCH  57  60
ATOM     59  C   UNL     1       4.156  -5.213  23.787  0.00  0.00    +0.012 A 
ATOM     60  C   UNL     1       4.537  -5.649  25.068  0.00  0.00    -0.021 A 
ATOM     61  C   UNL     1       4.063  -6.880  25.538  0.00  0.00    +0.057 A 
ATOM     62  C   UNL     1       3.200  -7.630  24.754  0.00  0.00    +0.159 A 
ATOM     63  C   UNL     1       2.806  -7.182  23.497  0.00  0.00    +0.158 A 
ATOM     64  C   UNL     1       3.284  -5.976  23.001  0.00  0.00    +0.050 A 
BRANCH  63  65
ATOM     65  O   UNL     1       1.943  -7.966  22.784  0.00  0.00    -0.503 OA
ATOM     66  H   UNL     1       1.672  -7.473  21.991  0.00  0.00    +0.292 HD
ENDBRANCH  63  65
BRANCH  62  67
ATOM     67  O   UNL     1       2.733  -8.819  25.235  0.00  0.00    -0.503 OA
ATOM     68  H   UNL     1       3.226  -9.497  24.731  0.00  0.00    +0.292 HD
ENDBRANCH  62  67
ENDBRANCH  57  60
ENDBRANCH  55  58
ENDBRANCH  54  55
ENDBRANCH  53  54
ENDBRANCH   1  53
TORSDOF 23
ENDMDL
MODEL 9
REMARK VINA RESULT:      -6.4      1.975      3.552
REMARK  Name = 
REMARK  23 active torsions:
REMARK  status: ('A' for Active; 'I' for Inactive)
REMARK    1  A    between atoms: C_3  and  O_62
REMARK    2  A    between atoms: C_4  and  O_61
REMARK    3  A    between atoms: C_6  and  C_7
REMARK    4  A    between atoms: C_8  and  C_9
REMARK    5  A    between atoms: C_9  and  O_11
REMARK    6  A    between atoms: O_11  and  C_12
REMARK    7  A    between atoms: C_12  and  C_13
REMARK    8  A    between atoms: C_14  and  O_60
REMARK    9  A    between atoms: C_16  and  O_59
REMARK   10  A    between atoms: C_18  and  O_44
REMARK   11  A    between atoms: C_19  and  O_22
REMARK   12  A    between atoms: O_22  and  C_23
REMARK   13  A    between atoms: C_24  and  C_36
REMARK   14  A    between atoms: C_28  and  O_35
REMARK   15  A    between atoms: C_30  and  O_34
REMARK   16  A    between atoms: C_38  and  O_43
REMARK   17  A    between atoms: C_39  and  O_42
REMARK   18  A    between atoms: O_44  and  C_45
REMARK   19  A    between atoms: C_47  and  O_58
REMARK   20  A    between atoms: C_48  and  O_57
REMARK   21  A    between atoms: C_50  and  O_56
REMARK   22  A    between atoms: C_52  and  C_54
REMARK   23  A    between atoms: C_54  and  O_55
REMARK                            x       y       z     vdW  Elec       q    Type
REMARK                         _______ _______ _______ _____ _____    ______ ____
ROOT
ATOM      1  C   UNL     1       9.757   1.493  24.605  0.00  0.00    +0.191 C 
ATOM      2  O   UNL     1       8.475   1.142  25.143  0.00  0.00    -0.330 OA
ATOM      3  C   UNL     1       7.555   0.494  24.234  0.00  0.00    +0.340 C 
ATOM      4  C   UNL     1       7.345   1.312  22.907  0.00  0.00    +0.221 C 
ATOM      5  C   UNL     1       8.721   1.744  22.356  0.00  0.00    +0.180 C 
ATOM      6  C   UNL     1       9.567   2.441  23.421  0.00  0.00    +0.178 C 
ENDROOT
BRANCH   6   7
ATOM      7  O   UNL     1      10.817   2.820  22.829  0.00  0.00    -0.386 OA
ATOM      8  H   UNL     1      10.876   2.372  21.965  0.00  0.00    +0.210 HD
ENDBRANCH   6   7
BRANCH   5   9
ATOM      9  O   UNL     1       8.672   2.563  21.188  0.00  0.00    -0.386 OA
ATOM     10  H   UNL     1       7.856   3.095  21.277  0.00  0.00    +0.210 HD
ENDBRANCH   5   9
BRANCH   4  11
ATOM     11  O   UNL     1       6.346   2.361  23.070  0.00  0.00    -0.337 OA
BRANCH  11  12
ATOM     12  C   UNL     1       6.783   3.549  23.770  0.00  0.00    +0.282 C 
ATOM     13  O   UNL     1       6.090   3.654  25.037  0.00  0.00    -0.341 OA
ATOM     14  C   UNL     1       4.715   4.067  24.975  0.00  0.00    +0.178 C 
ATOM     15  C   UNL     1       4.555   5.415  24.236  0.00  0.00    +0.177 C 
ATOM     16  C   UNL     1       5.197   5.306  22.860  0.00  0.00    +0.179 C 
ATOM     17  C   UNL     1       6.664   4.896  22.990  0.00  0.00    +0.201 C 
BRANCH  17  18
ATOM     18  O   UNL     1       7.283   4.942  21.703  0.00  0.00    -0.384 OA
ATOM     19  H   UNL     1       6.609   5.189  21.039  0.00  0.00    +0.210 HD
ENDBRANCH  17  18
BRANCH  16  20
ATOM     20  O   UNL     1       4.486   4.362  22.077  0.00  0.00    -0.386 OA
ATOM     21  H   UNL     1       4.483   3.513  22.571  0.00  0.00    +0.210 HD
ENDBRANCH  16  20
BRANCH  15  22
ATOM     22  O   UNL     1       5.181   6.495  24.931  0.00  0.00    -0.386 OA
ATOM     23  H   UNL     1       5.017   7.312  24.426  0.00  0.00    +0.210 HD
ENDBRANCH  15  22
BRANCH  14  24
ATOM     24  C   UNL     1       4.171   4.108  26.416  0.00  0.00    +0.190 C 
BRANCH  24  25
ATOM     25  O   UNL     1       5.104   4.625  27.359  0.00  0.00    -0.392 OA
ATOM     26  H   UNL     1       4.612   5.275  27.898  0.00  0.00    +0.210 HD
ENDBRANCH  24  25
ENDBRANCH  14  24
ENDBRANCH  11  12
ENDBRANCH   4  11
BRANCH   3  27
ATOM     27  O   UNL     1       6.330   0.313  24.971  0.00  0.00    -0.453 OA
BRANCH  27  28
ATOM     28  C   UNL     1       5.682  -0.907  25.098  0.00  0.00    +0.214 A 
ATOM     29  C   UNL     1       5.605  -1.899  23.976  0.00  0.00    +0.238 A 
ATOM     30  O   UNL     1       6.182  -1.696  22.915  0.00  0.00    -0.283 OA
ATOM     31  C   UNL     1       4.730  -3.079  24.150  0.00  0.00    +0.109 A 
ATOM     32  C   UNL     1       4.074  -3.225  25.368  0.00  0.00    +0.147 A 
ATOM     33  C   UNL     1       3.197  -4.296  25.583  0.00  0.00    +0.092 A 
ATOM     34  C   UNL     1       2.996  -5.228  24.572  0.00  0.00    +0.124 A 
ATOM     35  C   UNL     1       3.637  -5.098  23.346  0.00  0.00    +0.091 A 
ATOM     36  O   UNL     1       4.217  -2.339  26.402  0.00  0.00    -0.451 OA
ATOM     37  C   UNL     1       4.493  -4.017  23.132  0.00  0.00    +0.135 A 
ATOM     38  C   UNL     1       4.966  -1.183  26.215  0.00  0.00    +0.181 A 
BRANCH  38  39
ATOM     39  C   UNL     1       4.789  -0.231  27.349  0.00  0.00    +0.025 A 
ATOM     40  C   UNL     1       3.539   0.333  27.657  0.00  0.00    +0.015 A 
ATOM     41  C   UNL     1       3.412   1.309  28.652  0.00  0.00    +0.050 A 
ATOM     42  C   UNL     1       4.536   1.728  29.343  0.00  0.00    +0.158 A 
ATOM     43  C   UNL     1       5.774   1.146  29.100  0.00  0.00    +0.159 A 
ATOM     44  C   UNL     1       5.910   0.170  28.113  0.00  0.00    +0.060 A 
BRANCH  43  45
ATOM     45  O   UNL     1       6.832   1.579  29.851  0.00  0.00    -0.503 OA
ATOM     46  H   UNL     1       6.588   1.537  30.791  0.00  0.00    +0.292 HD
ENDBRANCH  43  45
BRANCH  42  47
ATOM     47  O   UNL     1       4.419   2.735  30.257  0.00  0.00    -0.503 OA
ATOM     48  H   UNL     1       5.192   3.311  30.093  0.00  0.00    +0.292 HD
ENDBRANCH  42  47
ENDBRANCH  38  39
BRANCH  37  49
ATOM     49  O   UNL     1       5.081  -3.888  21.906  0.00  0.00    -0.506 OA
ATOM     50  H   UNL     1       4.470  -3.476  21.274  0.00  0.00    +0.292 HD
ENDBRANCH  37  49
BRANCH  34  51
ATOM     51  O   UNL     1       2.166  -6.297  24.736  0.00  0.00    -0.507 OA
ATOM     52  H   UNL     1       1.809  -6.292  25.640  0.00  0.00    +0.292 HD
ENDBRANCH  34  51
ENDBRANCH  27  28
ENDBRANCH   3  27
BRANCH   1  53
ATOM     53  C   UNL     1      10.665   0.292  24.264  0.00  0.00    +0.266 C 
BRANCH  53  54
ATOM     54  O   UNL     1       9.957  -0.931  24.520  0.00  0.00    -0.459 OA
BRANCH  54  55
ATOM     55  C   UNL     1      10.062  -1.874  23.564  0.00  0.00    +0.332 C 
ATOM     56  O   UNL     1      10.741  -1.827  22.561  0.00  0.00    -0.246 OA
BRANCH  55  58
ATOM     57  C   UNL     1       8.737  -3.079  25.205  0.00  0.00    +0.015 C 
ATOM     58  C   UNL     1       9.190  -2.998  23.945  0.00  0.00    +0.092 C 
BRANCH  57  60
ATOM     59  C   UNL     1       7.375  -5.177  24.879  0.00  0.00    +0.012 A 
ATOM     60  C   UNL     1       7.821  -4.116  25.687  0.00  0.00    -0.021 A 
ATOM     61  C   UNL     1       7.406  -4.056  27.023  0.00  0.00    +0.057 A 
ATOM     62  C   UNL     1       6.538  -5.017  27.517  0.00  0.00    +0.159 A 
ATOM     63  C   UNL     1       6.080  -6.050  26.707  0.00  0.00    +0.158 A 
ATOM     64  C   UNL     1       6.499  -6.144  25.386  0.00  0.00    +0.050 A 
BRANCH  63  65
ATOM     65  O   UNL     1       5.216  -6.956  27.257  0.00  0.00    -0.503 OA
ATOM     66  H   UNL     1       5.456  -7.072  28.192  0.00  0.00    +0.292 HD
ENDBRANCH  63  65
BRANCH  62  67
ATOM     67  O   UNL     1       6.129  -4.933  28.818  0.00  0.00    -0.503 OA
ATOM     68  H   UNL     1       5.645  -4.085  28.868  0.00  0.00    +0.292 HD
ENDBRANCH  62  67
ENDBRANCH  57  60
ENDBRANCH  55  58
ENDBRANCH  54  55
ENDBRANCH  53  54
ENDBRANCH   1  53
TORSDOF 23
ENDMDL
