MODEL 1
REMARK VINA RESULT:      -7.7      0.000      0.000
REMARK  Name = 
REMARK  19 active torsions:
REMARK  status: ('A' for Active; 'I' for Inactive)
REMARK    1  A    between atoms: C_1  and  C_2
REMARK    2  A    between atoms: C_2  and  O_4
REMARK    3  A    between atoms: O_4  and  C_5
REMARK    4  A    between atoms: C_6  and  O_51
REMARK    5  A    between atoms: C_8  and  O_50
REMARK    6  A    between atoms: C_11  and  O_13
REMARK    7  A    between atoms: O_13  and  C_14
REMARK    8  A    between atoms: C_14  and  C_15
REMARK    9  A    between atoms: C_16  and  O_49
REMARK   10  A    between atoms: C_18  and  O_48
REMARK   11  A    between atoms: C_20  and  O_47
REMARK   12  A    between atoms: C_21  and  O_24
REMARK   13  A    between atoms: O_24  and  C_25
REMARK   14  A    between atoms: C_26  and  C_38
REMARK   15  A    between atoms: C_30  and  O_37
REMARK   16  A    between atoms: C_32  and  O_36
REMARK   17  A    between atoms: C_40  and  O_45
REMARK   18  A    between atoms: C_41  and  O_44
REMARK   19  A    between atoms: O_45  and  C_46
REMARK                            x       y       z     vdW  Elec       q    Type
REMARK                         _______ _______ _______ _____ _____    ______ ____
ROOT
ATOM      1  C   UNL     1       8.269  -0.303  23.803  0.00  0.00    +0.179 C 
ATOM      2  O   UNL     1       7.613   0.766  24.522  0.00  0.00    -0.331 OA
ATOM      3  C   UNL     1       7.227   1.916  23.725  0.00  0.00    +0.340 C 
ATOM      4  C   UNL     1       8.488   2.497  23.028  0.00  0.00    +0.214 C 
ATOM      5  C   UNL     1       9.175   1.407  22.203  0.00  0.00    +0.180 C 
ATOM      6  C   UNL     1       9.538   0.227  23.106  0.00  0.00    +0.177 C 
ENDROOT
BRANCH   6   7
ATOM      7  O   UNL     1      10.239  -0.743  22.325  0.00  0.00    -0.386 OA
ATOM      8  H   UNL     1      10.366  -0.357  21.438  0.00  0.00    +0.210 HD
ENDBRANCH   6   7
BRANCH   5   9
ATOM      9  O   UNL     1      10.354   1.907  21.561  0.00  0.00    -0.386 OA
ATOM     10  H   UNL     1      10.652   1.182  20.974  0.00  0.00    +0.210 HD
ENDBRANCH   5   9
BRANCH   4  11
ATOM     11  O   UNL     1       9.395   3.014  24.028  0.00  0.00    -0.383 OA
ATOM     12  H   UNL     1       8.975   2.877  24.898  0.00  0.00    +0.210 HD
ENDBRANCH   4  11
BRANCH   3  13
ATOM     13  O   UNL     1       6.635   2.896  24.616  0.00  0.00    -0.453 OA
BRANCH  13  14
ATOM     14  C   UNL     1       5.719   3.795  24.070  0.00  0.00    +0.214 A 
ATOM     15  C   UNL     1       4.320   3.356  23.751  0.00  0.00    +0.238 A 
ATOM     16  O   UNL     1       3.861   2.322  24.220  0.00  0.00    -0.283 OA
ATOM     17  C   UNL     1       3.529   4.214  22.856  0.00  0.00    +0.109 A 
ATOM     18  C   UNL     1       3.977   5.516  22.664  0.00  0.00    +0.147 A 
ATOM     19  C   UNL     1       3.246   6.416  21.888  0.00  0.00    +0.092 A 
ATOM     20  C   UNL     1       2.077   5.989  21.272  0.00  0.00    +0.124 A 
ATOM     21  C   UNL     1       1.630   4.679  21.418  0.00  0.00    +0.091 A 
ATOM     22  O   UNL     1       5.123   5.985  23.245  0.00  0.00    -0.451 OA
ATOM     23  C   UNL     1       2.361   3.794  22.211  0.00  0.00    +0.135 A 
ATOM     24  C   UNL     1       6.016   5.094  23.829  0.00  0.00    +0.181 A 
BRANCH  24  25
ATOM     25  C   UNL     1       7.282   5.790  24.195  0.00  0.00    +0.025 A 
ATOM     26  C   UNL     1       8.257   6.087  23.231  0.00  0.00    +0.015 A 
ATOM     27  C   UNL     1       9.533   6.516  23.611  0.00  0.00    +0.050 A 
ATOM     28  C   UNL     1       9.837   6.656  24.958  0.00  0.00    +0.158 A 
ATOM     29  C   UNL     1       8.874   6.433  25.942  0.00  0.00    +0.162 A 
ATOM     30  C   UNL     1       7.604   5.991  25.559  0.00  0.00    +0.061 A 
BRANCH  29  31
ATOM     31  O   UNL     1       9.303   6.618  27.232  0.00  0.00    -0.491 OA
ATOM     32  C   UNL     1       8.305   7.040  28.156  0.00  0.00    +0.277 C 
ENDBRANCH  29  31
BRANCH  28  33
ATOM     33  O   UNL     1      11.113   7.005  25.307  0.00  0.00    -0.503 OA
ATOM     34  H   UNL     1      11.428   6.276  25.876  0.00  0.00    +0.292 HD
ENDBRANCH  28  33
ENDBRANCH  24  25
BRANCH  23  35
ATOM     35  O   UNL     1       1.936   2.498  22.314  0.00  0.00    -0.506 OA
ATOM     36  H   UNL     1       1.072   2.395  21.886  0.00  0.00    +0.292 HD
ENDBRANCH  23  35
BRANCH  20  37
ATOM     37  O   UNL     1       1.329   6.823  20.494  0.00  0.00    -0.507 OA
ATOM     38  H   UNL     1       1.778   7.682  20.423  0.00  0.00    +0.292 HD
ENDBRANCH  20  37
ENDBRANCH  13  14
ENDBRANCH   3  13
BRANCH   1  39
ATOM     39  C   UNL     1       7.315  -1.099  22.879  0.00  0.00    +0.197 C 
BRANCH  39  40
ATOM     40  O   UNL     1       7.775  -2.452  22.709  0.00  0.00    -0.345 OA
BRANCH  40  42
ATOM     41  C   UNL     1       6.730  -4.226  24.074  0.00  0.00    +0.263 C 
ATOM     42  C   UNL     1       7.838  -3.145  23.963  0.00  0.00    +0.294 C 
ATOM     43  O   UNL     1       9.124  -3.745  24.128  0.00  0.00    -0.345 OA
ATOM     44  C   UNL     1       9.294  -4.303  25.428  0.00  0.00    +0.197 C 
ATOM     45  C   UNL     1       8.244  -5.363  25.764  0.00  0.00    +0.172 C 
ATOM     46  C   UNL     1       6.831  -4.812  25.498  0.00  0.00    +0.191 C 
BRANCH  46  47
ATOM     47  O   UNL     1       5.876  -5.839  25.795  0.00  0.00    -0.385 OA
ATOM     48  H   UNL     1       6.101  -6.641  25.276  0.00  0.00    +0.210 HD
ENDBRANCH  46  47
BRANCH  45  49
ATOM     49  O   UNL     1       8.410  -5.721  27.142  0.00  0.00    -0.387 OA
ATOM     50  H   UNL     1       9.362  -5.872  27.290  0.00  0.00    +0.210 HD
ENDBRANCH  45  49
BRANCH  41  51
ATOM     51  O   UNL     1       6.944  -5.257  23.072  0.00  0.00    -0.454 OA
BRANCH  51  53
ATOM     52  C   UNL     1       6.188  -5.686  20.883  0.00  0.00    +0.136 C 
ATOM     53  C   UNL     1       5.854  -5.617  22.342  0.00  0.00    +0.304 C 
ATOM     54  O   UNL     1       4.755  -5.873  22.817  0.00  0.00    -0.251 OA
ENDBRANCH  51  53
ENDBRANCH  41  51
ENDBRANCH  40  42
ENDBRANCH  39  40
ENDBRANCH   1  39
TORSDOF 17
ENDMDL
MODEL 2
REMARK VINA RESULT:      -7.6      3.310      6.595
REMARK  Name = 
REMARK  19 active torsions:
REMARK  status: ('A' for Active; 'I' for Inactive)
REMARK    1  A    between atoms: C_1  and  C_2
REMARK    2  A    between atoms: C_2  and  O_4
REMARK    3  A    between atoms: O_4  and  C_5
REMARK    4  A    between atoms: C_6  and  O_51
REMARK    5  A    between atoms: C_8  and  O_50
REMARK    6  A    between atoms: C_11  and  O_13
REMARK    7  A    between atoms: O_13  and  C_14
REMARK    8  A    between atoms: C_14  and  C_15
REMARK    9  A    between atoms: C_16  and  O_49
REMARK   10  A    between atoms: C_18  and  O_48
REMARK   11  A    between atoms: C_20  and  O_47
REMARK   12  A    between atoms: C_21  and  O_24
REMARK   13  A    between atoms: O_24  and  C_25
REMARK   14  A    between atoms: C_26  and  C_38
REMARK   15  A    between atoms: C_30  and  O_37
REMARK   16  A    between atoms: C_32  and  O_36
REMARK   17  A    between atoms: C_40  and  O_45
REMARK   18  A    between atoms: C_41  and  O_44
REMARK   19  A    between atoms: O_45  and  C_46
REMARK                            x       y       z     vdW  Elec       q    Type
REMARK                         _______ _______ _______ _____ _____    ______ ____
ROOT
ATOM      1  C   UNL     1       4.649  -1.063  26.264  0.00  0.00    +0.179 C 
ATOM      2  O   UNL     1       5.094  -0.148  25.236  0.00  0.00    -0.331 OA
ATOM      3  C   UNL     1       6.359   0.516  25.488  0.00  0.00    +0.340 C 
ATOM      4  C   UNL     1       6.265   1.296  26.828  0.00  0.00    +0.214 C 
ATOM      5  C   UNL     1       5.858   0.346  27.956  0.00  0.00    +0.180 C 
ATOM      6  C   UNL     1       4.526  -0.324  27.613  0.00  0.00    +0.177 C 
ENDROOT
BRANCH   6   7
ATOM      7  O   UNL     1       4.137  -1.151  28.712  0.00  0.00    -0.386 OA
ATOM      8  H   UNL     1       3.911  -2.025  28.344  0.00  0.00    +0.210 HD
ENDBRANCH   6   7
BRANCH   5   9
ATOM      9  O   UNL     1       5.744   1.039  29.205  0.00  0.00    -0.386 OA
ATOM     10  H   UNL     1       5.716   1.988  28.969  0.00  0.00    +0.210 HD
ENDBRANCH   5   9
BRANCH   4  11
ATOM     11  O   UNL     1       5.295   2.361  26.698  0.00  0.00    -0.383 OA
ATOM     12  H   UNL     1       5.792   3.201  26.664  0.00  0.00    +0.210 HD
ENDBRANCH   4  11
BRANCH   3  13
ATOM     13  O   UNL     1       6.615   1.420  24.383  0.00  0.00    -0.453 OA
BRANCH  13  14
ATOM     14  C   UNL     1       7.889   1.981  24.289  0.00  0.00    +0.214 A 
ATOM     15  C   UNL     1       8.116   3.417  24.659  0.00  0.00    +0.238 A 
ATOM     16  O   UNL     1       7.291   4.037  25.318  0.00  0.00    -0.283 OA
ATOM     17  C   UNL     1       9.364   4.044  24.199  0.00  0.00    +0.109 A 
ATOM     18  C   UNL     1      10.386   3.198  23.784  0.00  0.00    +0.147 A 
ATOM     19  C   UNL     1      11.626   3.709  23.400  0.00  0.00    +0.092 A 
ATOM     20  C   UNL     1      11.825   5.084  23.401  0.00  0.00    +0.124 A 
ATOM     21  C   UNL     1      10.804   5.952  23.776  0.00  0.00    +0.091 A 
ATOM     22  O   UNL     1      10.241   1.838  23.762  0.00  0.00    -0.451 OA
ATOM     23  C   UNL     1       9.574   5.428  24.173  0.00  0.00    +0.135 A 
ATOM     24  C   UNL     1       8.977   1.276  23.899  0.00  0.00    +0.181 A 
BRANCH  24  25
ATOM     25  C   UNL     1       9.025  -0.189  23.624  0.00  0.00    +0.025 A 
ATOM     26  C   UNL     1       8.507  -0.725  22.436  0.00  0.00    +0.015 A 
ATOM     27  C   UNL     1       8.335  -2.106  22.288  0.00  0.00    +0.050 A 
ATOM     28  C   UNL     1       8.687  -2.955  23.327  0.00  0.00    +0.158 A 
ATOM     29  C   UNL     1       9.264  -2.464  24.498  0.00  0.00    +0.162 A 
ATOM     30  C   UNL     1       9.421  -1.083  24.647  0.00  0.00    +0.061 A 
BRANCH  29  31
ATOM     31  O   UNL     1       9.574  -3.413  25.440  0.00  0.00    -0.491 OA
ATOM     32  C   UNL     1       8.646  -3.537  26.513  0.00  0.00    +0.277 C 
ENDBRANCH  29  31
BRANCH  28  33
ATOM     33  O   UNL     1       8.440  -4.294  23.188  0.00  0.00    -0.503 OA
ATOM     34  H   UNL     1       8.262  -4.614  24.094  0.00  0.00    +0.292 HD
ENDBRANCH  28  33
ENDBRANCH  24  25
BRANCH  23  35
ATOM     35  O   UNL     1       8.564   6.291  24.499  0.00  0.00    -0.506 OA
ATOM     36  H   UNL     1       8.836   6.860  25.237  0.00  0.00    +0.292 HD
ENDBRANCH  23  35
BRANCH  20  37
ATOM     37  O   UNL     1      13.013   5.638  23.026  0.00  0.00    -0.507 OA
ATOM     38  H   UNL     1      13.002   6.587  23.230  0.00  0.00    +0.292 HD
ENDBRANCH  20  37
ENDBRANCH  13  14
ENDBRANCH   3  13
BRANCH   1  39
ATOM     39  C   UNL     1       5.474  -2.371  26.323  0.00  0.00    +0.197 C 
BRANCH  39  40
ATOM     40  O   UNL     1       5.440  -3.058  25.060  0.00  0.00    -0.345 OA
BRANCH  40  42
ATOM     41  C   UNL     1       4.369  -4.857  23.750  0.00  0.00    +0.263 C 
ATOM     42  C   UNL     1       4.717  -4.292  25.153  0.00  0.00    +0.294 C 
ATOM     43  O   UNL     1       5.476  -5.252  25.890  0.00  0.00    -0.345 OA
ATOM     44  C   UNL     1       4.733  -6.438  26.154  0.00  0.00    +0.197 C 
ATOM     45  C   UNL     1       4.234  -7.125  24.882  0.00  0.00    +0.172 C 
ATOM     46  C   UNL     1       3.499  -6.110  23.985  0.00  0.00    +0.191 C 
BRANCH  46  47
ATOM     47  O   UNL     1       3.073  -6.779  22.792  0.00  0.00    -0.385 OA
ATOM     48  H   UNL     1       3.062  -6.133  22.052  0.00  0.00    +0.210 HD
ENDBRANCH  46  47
BRANCH  45  49
ATOM     49  O   UNL     1       3.365  -8.195  25.273  0.00  0.00    -0.387 OA
ATOM     50  H   UNL     1       3.920  -8.883  25.687  0.00  0.00    +0.210 HD
ENDBRANCH  45  49
BRANCH  41  51
ATOM     51  O   UNL     1       5.588  -5.197  23.038  0.00  0.00    -0.454 OA
BRANCH  51  53
ATOM     52  C   UNL     1       6.231  -5.763  20.844  0.00  0.00    +0.136 C 
ATOM     53  C   UNL     1       5.696  -4.715  21.771  0.00  0.00    +0.304 C 
ATOM     54  O   UNL     1       5.376  -3.583  21.430  0.00  0.00    -0.251 OA
ENDBRANCH  51  53
ENDBRANCH  41  51
ENDBRANCH  40  42
ENDBRANCH  39  40
ENDBRANCH   1  39
TORSDOF 17
ENDMDL
MODEL 3
REMARK VINA RESULT:      -7.5      1.946      3.151
REMARK  Name = 
REMARK  19 active torsions:
REMARK  status: ('A' for Active; 'I' for Inactive)
REMARK    1  A    between atoms: C_1  and  C_2
REMARK    2  A    between atoms: C_2  and  O_4
REMARK    3  A    between atoms: O_4  and  C_5
REMARK    4  A    between atoms: C_6  and  O_51
REMARK    5  A    between atoms: C_8  and  O_50
REMARK    6  A    between atoms: C_11  and  O_13
REMARK    7  A    between atoms: O_13  and  C_14
REMARK    8  A    between atoms: C_14  and  C_15
REMARK    9  A    between atoms: C_16  and  O_49
REMARK   10  A    between atoms: C_18  and  O_48
REMARK   11  A    between atoms: C_20  and  O_47
REMARK   12  A    between atoms: C_21  and  O_24
REMARK   13  A    between atoms: O_24  and  C_25
REMARK   14  A    between atoms: C_26  and  C_38
REMARK   15  A    between atoms: C_30  and  O_37
REMARK   16  A    between atoms: C_32  and  O_36
REMARK   17  A    between atoms: C_40  and  O_45
REMARK   18  A    between atoms: C_41  and  O_44
REMARK   19  A    between atoms: O_45  and  C_46
REMARK                            x       y       z     vdW  Elec       q    Type
REMARK                         _______ _______ _______ _____ _____    ______ ____
ROOT
ATOM      1  C   UNL     1       8.907  -1.750  25.524  0.00  0.00    +0.179 C 
ATOM      2  O   UNL     1       9.032  -0.332  25.777  0.00  0.00    -0.331 OA
ATOM      3  C   UNL     1       8.731   0.537  24.655  0.00  0.00    +0.340 C 
ATOM      4  C   UNL     1       9.660   0.170  23.465  0.00  0.00    +0.214 C 
ATOM      5  C   UNL     1       9.507  -1.314  23.124  0.00  0.00    +0.180 C 
ATOM      6  C   UNL     1       9.827  -2.163  24.356  0.00  0.00    +0.177 C 
ENDROOT
BRANCH   6   7
ATOM      7  O   UNL     1       9.744  -3.542  23.991  0.00  0.00    -0.386 OA
ATOM      8  H   UNL     1       9.960  -4.061  24.789  0.00  0.00    +0.210 HD
ENDBRANCH   6   7
BRANCH   5   9
ATOM      9  O   UNL     1      10.365  -1.690  22.041  0.00  0.00    -0.386 OA
ATOM     10  H   UNL     1      11.212  -1.231  22.214  0.00  0.00    +0.210 HD
ENDBRANCH   5   9
BRANCH   4  11
ATOM     11  O   UNL     1      11.031   0.463  23.816  0.00  0.00    -0.383 OA
ATOM     12  H   UNL     1      11.085   0.470  24.791  0.00  0.00    +0.210 HD
ENDBRANCH   4  11
BRANCH   3  13
ATOM     13  O   UNL     1       8.957   1.906  25.080  0.00  0.00    -0.453 OA
BRANCH  13  14
ATOM     14  C   UNL     1       8.038   2.870  24.665  0.00  0.00    +0.214 A 
ATOM     15  C   UNL     1       6.580   2.719  24.988  0.00  0.00    +0.238 A 
ATOM     16  O   UNL     1       6.203   1.937  25.851  0.00  0.00    -0.283 OA
ATOM     17  C   UNL     1       5.630   3.546  24.229  0.00  0.00    +0.109 A 
ATOM     18  C   UNL     1       6.145   4.642  23.546  0.00  0.00    +0.147 A 
ATOM     19  C   UNL     1       5.303   5.517  22.860  0.00  0.00    +0.092 A 
ATOM     20  C   UNL     1       3.937   5.266  22.834  0.00  0.00    +0.124 A 
ATOM     21  C   UNL     1       3.403   4.153  23.478  0.00  0.00    +0.091 A 
ATOM     22  O   UNL     1       7.482   4.932  23.538  0.00  0.00    -0.451 OA
ATOM     23  C   UNL     1       4.254   3.295  24.174  0.00  0.00    +0.135 A 
ATOM     24  C   UNL     1       8.396   3.989  23.992  0.00  0.00    +0.181 A 
BRANCH  24  25
ATOM     25  C   UNL     1       9.789   4.425  23.688  0.00  0.00    +0.025 A 
ATOM     26  C   UNL     1      10.672   3.601  22.974  0.00  0.00    +0.015 A 
ATOM     27  C   UNL     1      12.036   3.905  22.901  0.00  0.00    +0.050 A 
ATOM     28  C   UNL     1      12.520   5.039  23.537  0.00  0.00    +0.158 A 
ATOM     29  C   UNL     1      11.662   5.916  24.201  0.00  0.00    +0.162 A 
ATOM     30  C   UNL     1      10.303   5.601  24.284  0.00  0.00    +0.061 A 
BRANCH  29  31
ATOM     31  O   UNL     1      12.270   7.004  24.777  0.00  0.00    -0.491 OA
ATOM     32  C   UNL     1      12.131   7.107  26.190  0.00  0.00    +0.277 C 
ENDBRANCH  29  31
BRANCH  28  33
ATOM     33  O   UNL     1      13.867   5.275  23.514  0.00  0.00    -0.503 OA
ATOM     34  H   UNL     1      14.280   4.406  23.690  0.00  0.00    +0.292 HD
ENDBRANCH  28  33
ENDBRANCH  24  25
BRANCH  23  35
ATOM     35  O   UNL     1       3.726   2.183  24.768  0.00  0.00    -0.506 OA
ATOM     36  H   UNL     1       3.699   1.447  24.136  0.00  0.00    +0.292 HD
ENDBRANCH  23  35
BRANCH  20  37
ATOM     37  O   UNL     1       3.069   6.083  22.171  0.00  0.00    -0.507 OA
ATOM     38  H   UNL     1       2.694   6.725  22.796  0.00  0.00    +0.292 HD
ENDBRANCH  20  37
ENDBRANCH  13  14
ENDBRANCH   3  13
BRANCH   1  39
ATOM     39  C   UNL     1       7.440  -2.223  25.382  0.00  0.00    +0.197 C 
BRANCH  39  40
ATOM     40  O   UNL     1       7.286  -3.571  25.860  0.00  0.00    -0.345 OA
BRANCH  40  42
ATOM     41  C   UNL     1       5.559  -4.196  24.210  0.00  0.00    +0.263 C 
ATOM     42  C   UNL     1       5.937  -4.032  25.706  0.00  0.00    +0.294 C 
ATOM     43  O   UNL     1       5.759  -5.270  26.394  0.00  0.00    -0.345 OA
ATOM     44  C   UNL     1       4.396  -5.685  26.411  0.00  0.00    +0.197 C 
ATOM     45  C   UNL     1       3.804  -5.846  25.011  0.00  0.00    +0.172 C 
ATOM     46  C   UNL     1       4.063  -4.578  24.176  0.00  0.00    +0.191 C 
BRANCH  46  47
ATOM     47  O   UNL     1       3.523  -4.775  22.864  0.00  0.00    -0.385 OA
ATOM     48  H   UNL     1       2.589  -5.067  22.945  0.00  0.00    +0.210 HD
ENDBRANCH  46  47
BRANCH  45  49
ATOM     49  O   UNL     1       2.400  -6.093  25.155  0.00  0.00    -0.387 OA
ATOM     50  H   UNL     1       1.947  -5.630  24.426  0.00  0.00    +0.210 HD
ENDBRANCH  45  49
BRANCH  41  51
ATOM     51  O   UNL     1       6.374  -5.236  23.606  0.00  0.00    -0.454 OA
BRANCH  51  53
ATOM     52  C   UNL     1       6.658  -6.076  21.424  0.00  0.00    +0.136 C 
ATOM     53  C   UNL     1       6.898  -4.951  22.384  0.00  0.00    +0.304 C 
ATOM     54  O   UNL     1       7.470  -3.905  22.101  0.00  0.00    -0.251 OA
ENDBRANCH  51  53
ENDBRANCH  41  51
ENDBRANCH  40  42
ENDBRANCH  39  40
ENDBRANCH   1  39
TORSDOF 17
ENDMDL
MODEL 4
REMARK VINA RESULT:      -7.3      1.739      3.213
REMARK  Name = 
REMARK  19 active torsions:
REMARK  status: ('A' for Active; 'I' for Inactive)
REMARK    1  A    between atoms: C_1  and  C_2
REMARK    2  A    between atoms: C_2  and  O_4
REMARK    3  A    between atoms: O_4  and  C_5
REMARK    4  A    between atoms: C_6  and  O_51
REMARK    5  A    between atoms: C_8  and  O_50
REMARK    6  A    between atoms: C_11  and  O_13
REMARK    7  A    between atoms: O_13  and  C_14
REMARK    8  A    between atoms: C_14  and  C_15
REMARK    9  A    between atoms: C_16  and  O_49
REMARK   10  A    between atoms: C_18  and  O_48
REMARK   11  A    between atoms: C_20  and  O_47
REMARK   12  A    between atoms: C_21  and  O_24
REMARK   13  A    between atoms: O_24  and  C_25
REMARK   14  A    between atoms: C_26  and  C_38
REMARK   15  A    between atoms: C_30  and  O_37
REMARK   16  A    between atoms: C_32  and  O_36
REMARK   17  A    between atoms: C_40  and  O_45
REMARK   18  A    between atoms: C_41  and  O_44
REMARK   19  A    between atoms: O_45  and  C_46
REMARK                            x       y       z     vdW  Elec       q    Type
REMARK                         _______ _______ _______ _____ _____    ______ ____
ROOT
ATOM      1  C   UNL     1       8.033  -1.275  24.957  0.00  0.00    +0.179 C 
ATOM      2  O   UNL     1       7.941   0.065  25.491  0.00  0.00    -0.331 OA
ATOM      3  C   UNL     1       8.130   1.139  24.534  0.00  0.00    +0.340 C 
ATOM      4  C   UNL     1       9.519   0.978  23.858  0.00  0.00    +0.214 C 
ATOM      5  C   UNL     1       9.630  -0.410  23.223  0.00  0.00    +0.180 C 
ATOM      6  C   UNL     1       9.407  -1.485  24.288  0.00  0.00    +0.177 C 
ENDROOT
BRANCH   6   7
ATOM      7  O   UNL     1       9.585  -2.768  23.683  0.00  0.00    -0.386 OA
ATOM      8  H   UNL     1      10.046  -3.328  24.335  0.00  0.00    +0.210 HD
ENDBRANCH   6   7
BRANCH   5   9
ATOM      9  O   UNL     1      10.909  -0.599  22.605  0.00  0.00    -0.386 OA
ATOM     10  H   UNL     1      10.844  -1.456  22.139  0.00  0.00    +0.210 HD
ENDBRANCH   5   9
BRANCH   4  11
ATOM     11  O   UNL     1      10.559   1.160  24.845  0.00  0.00    -0.383 OA
ATOM     12  H   UNL     1      10.716   2.120  24.925  0.00  0.00    +0.210 HD
ENDBRANCH   4  11
BRANCH   3  13
ATOM     13  O   UNL     1       8.052   2.396  25.255  0.00  0.00    -0.453 OA
BRANCH  13  14
ATOM     14  C   UNL     1       7.271   3.410  24.701  0.00  0.00    +0.214 A 
ATOM     15  C   UNL     1       5.802   3.200  24.474  0.00  0.00    +0.238 A 
ATOM     16  O   UNL     1       5.203   2.284  25.024  0.00  0.00    -0.283 OA
ATOM     17  C   UNL     1       5.117   4.135  23.570  0.00  0.00    +0.109 A 
ATOM     18  C   UNL     1       5.764   5.331  23.281  0.00  0.00    +0.147 A 
ATOM     19  C   UNL     1       5.152   6.303  22.489  0.00  0.00    +0.092 A 
ATOM     20  C   UNL     1       3.895   6.052  21.955  0.00  0.00    +0.124 A 
ATOM     21  C   UNL     1       3.244   4.846  22.199  0.00  0.00    +0.091 A 
ATOM     22  O   UNL     1       7.004   5.626  23.780  0.00  0.00    -0.451 OA
ATOM     23  C   UNL     1       3.860   3.889  23.006  0.00  0.00    +0.135 A 
ATOM     24  C   UNL     1       7.766   4.626  24.371  0.00  0.00    +0.181 A 
BRANCH  24  25
ATOM     25  C   UNL     1       9.150   5.113  24.636  0.00  0.00    +0.025 A 
ATOM     26  C   UNL     1       9.387   6.228  25.455  0.00  0.00    +0.015 A 
ATOM     27  C   UNL     1      10.651   6.824  25.507  0.00  0.00    +0.050 A 
ATOM     28  C   UNL     1      11.686   6.302  24.744  0.00  0.00    +0.158 A 
ATOM     29  C   UNL     1      11.506   5.157  23.968  0.00  0.00    +0.162 A 
ATOM     30  C   UNL     1      10.237   4.573  23.908  0.00  0.00    +0.061 A 
BRANCH  29  31
ATOM     31  O   UNL     1      12.613   4.742  23.272  0.00  0.00    -0.491 OA
ATOM     32  C   UNL     1      12.872   5.440  22.059  0.00  0.00    +0.277 C 
ENDBRANCH  29  31
BRANCH  28  33
ATOM     33  O   UNL     1      12.893   6.946  24.755  0.00  0.00    -0.503 OA
ATOM     34  H   UNL     1      13.557   6.243  24.612  0.00  0.00    +0.292 HD
ENDBRANCH  28  33
ENDBRANCH  24  25
BRANCH  23  35
ATOM     35  O   UNL     1       3.231   2.692  23.204  0.00  0.00    -0.506 OA
ATOM     36  H   UNL     1       2.449   2.814  23.766  0.00  0.00    +0.292 HD
ENDBRANCH  23  35
BRANCH  20  37
ATOM     37  O   UNL     1       3.255   6.962  21.166  0.00  0.00    -0.507 OA
ATOM     38  H   UNL     1       2.748   6.492  20.483  0.00  0.00    +0.292 HD
ENDBRANCH  20  37
ENDBRANCH  13  14
ENDBRANCH   3  13
BRANCH   1  39
ATOM     39  C   UNL     1       6.824  -1.671  24.076  0.00  0.00    +0.197 C 
BRANCH  39  40
ATOM     40  O   UNL     1       5.857  -2.418  24.836  0.00  0.00    -0.345 OA
BRANCH  40  42
ATOM     41  C   UNL     1       6.113  -4.550  23.615  0.00  0.00    +0.263 C 
ATOM     42  C   UNL     1       5.176  -3.380  24.018  0.00  0.00    +0.294 C 
ATOM     43  O   UNL     1       4.031  -3.885  24.704  0.00  0.00    -0.345 OA
ATOM     44  C   UNL     1       3.229  -4.718  23.871  0.00  0.00    +0.197 C 
ATOM     45  C   UNL     1       3.996  -5.916  23.309  0.00  0.00    +0.172 C 
ATOM     46  C   UNL     1       5.306  -5.445  22.651  0.00  0.00    +0.191 C 
BRANCH  46  47
ATOM     47  O   UNL     1       6.012  -6.593  22.164  0.00  0.00    -0.385 OA
ATOM     48  H   UNL     1       6.467  -7.029  22.916  0.00  0.00    +0.210 HD
ENDBRANCH  46  47
BRANCH  45  49
ATOM     49  O   UNL     1       3.146  -6.574  22.361  0.00  0.00    -0.387 OA
ATOM     50  H   UNL     1       2.307  -6.777  22.815  0.00  0.00    +0.210 HD
ENDBRANCH  45  49
BRANCH  41  51
ATOM     51  O   UNL     1       6.514  -5.291  24.799  0.00  0.00    -0.454 OA
BRANCH  51  53
ATOM     52  C   UNL     1       8.028  -5.152  26.598  0.00  0.00    +0.136 C 
ATOM     53  C   UNL     1       7.836  -5.245  25.115  0.00  0.00    +0.304 C 
ATOM     54  O   UNL     1       8.747  -5.297  24.297  0.00  0.00    -0.251 OA
ENDBRANCH  51  53
ENDBRANCH  41  51
ENDBRANCH  40  42
ENDBRANCH  39  40
ENDBRANCH   1  39
TORSDOF 17
ENDMDL
MODEL 5
REMARK VINA RESULT:      -7.3      2.475      3.749
REMARK  Name = 
REMARK  19 active torsions:
REMARK  status: ('A' for Active; 'I' for Inactive)
REMARK    1  A    between atoms: C_1  and  C_2
REMARK    2  A    between atoms: C_2  and  O_4
REMARK    3  A    between atoms: O_4  and  C_5
REMARK    4  A    between atoms: C_6  and  O_51
REMARK    5  A    between atoms: C_8  and  O_50
REMARK    6  A    between atoms: C_11  and  O_13
REMARK    7  A    between atoms: O_13  and  C_14
REMARK    8  A    between atoms: C_14  and  C_15
REMARK    9  A    between atoms: C_16  and  O_49
REMARK   10  A    between atoms: C_18  and  O_48
REMARK   11  A    between atoms: C_20  and  O_47
REMARK   12  A    between atoms: C_21  and  O_24
REMARK   13  A    between atoms: O_24  and  C_25
REMARK   14  A    between atoms: C_26  and  C_38
REMARK   15  A    between atoms: C_30  and  O_37
REMARK   16  A    between atoms: C_32  and  O_36
REMARK   17  A    between atoms: C_40  and  O_45
REMARK   18  A    between atoms: C_41  and  O_44
REMARK   19  A    between atoms: O_45  and  C_46
REMARK                            x       y       z     vdW  Elec       q    Type
REMARK                         _______ _______ _______ _____ _____    ______ ____
ROOT
ATOM      1  C   UNL     1       8.955  -0.811  23.532  0.00  0.00    +0.179 C 
ATOM      2  O   UNL     1       8.705  -0.028  24.721  0.00  0.00    -0.331 OA
ATOM      3  C   UNL     1       8.084   1.266  24.505  0.00  0.00    +0.340 C 
ATOM      4  C   UNL     1       8.977   2.103  23.547  0.00  0.00    +0.214 C 
ATOM      5  C   UNL     1       9.210   1.331  22.247  0.00  0.00    +0.180 C 
ATOM      6  C   UNL     1       9.853  -0.022  22.557  0.00  0.00    +0.177 C 
ENDROOT
BRANCH   6   7
ATOM      7  O   UNL     1      10.123  -0.690  21.323  0.00  0.00    -0.386 OA
ATOM      8  H   UNL     1      10.733  -0.119  20.819  0.00  0.00    +0.210 HD
ENDBRANCH   6   7
BRANCH   5   9
ATOM      9  O   UNL     1      10.047   2.069  21.347  0.00  0.00    -0.386 OA
ATOM     10  H   UNL     1       9.468   2.304  20.594  0.00  0.00    +0.210 HD
ENDBRANCH   5   9
BRANCH   4  11
ATOM     11  O   UNL     1      10.239   2.389  24.192  0.00  0.00    -0.383 OA
ATOM     12  H   UNL     1      10.229   1.941  25.059  0.00  0.00    +0.210 HD
ENDBRANCH   4  11
BRANCH   3  13
ATOM     13  O   UNL     1       7.959   1.920  25.794  0.00  0.00    -0.453 OA
BRANCH  13  14
ATOM     14  C   UNL     1       6.671   2.167  26.269  0.00  0.00    +0.214 A 
ATOM     15  C   UNL     1       6.137   1.405  27.448  0.00  0.00    +0.238 A 
ATOM     16  O   UNL     1       6.888   0.785  28.191  0.00  0.00    -0.283 OA
ATOM     17  C   UNL     1       4.684   1.435  27.670  0.00  0.00    +0.109 A 
ATOM     18  C   UNL     1       3.961   2.429  27.020  0.00  0.00    +0.147 A 
ATOM     19  C   UNL     1       2.590   2.571  27.233  0.00  0.00    +0.092 A 
ATOM     20  C   UNL     1       1.937   1.682  28.078  0.00  0.00    +0.124 A 
ATOM     21  C   UNL     1       2.634   0.656  28.710  0.00  0.00    +0.091 A 
ATOM     22  O   UNL     1       4.555   3.327  26.175  0.00  0.00    -0.451 OA
ATOM     23  C   UNL     1       4.008   0.535  28.501  0.00  0.00    +0.135 A 
ATOM     24  C   UNL     1       5.854   3.105  25.735  0.00  0.00    +0.181 A 
BRANCH  24  25
ATOM     25  C   UNL     1       6.214   4.076  24.663  0.00  0.00    +0.025 A 
ATOM     26  C   UNL     1       5.716   3.942  23.358  0.00  0.00    +0.015 A 
ATOM     27  C   UNL     1       6.239   4.703  22.308  0.00  0.00    +0.050 A 
ATOM     28  C   UNL     1       7.260   5.609  22.561  0.00  0.00    +0.158 A 
ATOM     29  C   UNL     1       7.736   5.817  23.856  0.00  0.00    +0.162 A 
ATOM     30  C   UNL     1       7.220   5.044  24.900  0.00  0.00    +0.061 A 
BRANCH  29  31
ATOM     31  O   UNL     1       8.739   6.748  23.967  0.00  0.00    -0.491 OA
ATOM     32  C   UNL     1      10.051   6.219  24.125  0.00  0.00    +0.277 C 
ENDBRANCH  29  31
BRANCH  28  33
ATOM     33  O   UNL     1       7.806   6.288  21.507  0.00  0.00    -0.503 OA
ATOM     34  H   UNL     1       8.532   6.816  21.895  0.00  0.00    +0.292 HD
ENDBRANCH  28  33
ENDBRANCH  24  25
BRANCH  23  35
ATOM     35  O   UNL     1       4.675  -0.502  29.093  0.00  0.00    -0.506 OA
ATOM     36  H   UNL     1       4.622  -1.295  28.535  0.00  0.00    +0.292 HD
ENDBRANCH  23  35
BRANCH  20  37
ATOM     37  O   UNL     1       0.597   1.768  28.314  0.00  0.00    -0.507 OA
ATOM     38  H   UNL     1       0.167   2.205  27.560  0.00  0.00    +0.292 HD
ENDBRANCH  20  37
ENDBRANCH  13  14
ENDBRANCH   3  13
BRANCH   1  39
ATOM     39  C   UNL     1       7.669  -1.389  22.894  0.00  0.00    +0.197 C 
BRANCH  39  40
ATOM     40  O   UNL     1       7.744  -2.822  22.793  0.00  0.00    -0.345 OA
BRANCH  40  42
ATOM     41  C   UNL     1       6.511  -4.341  24.300  0.00  0.00    +0.263 C 
ATOM     42  C   UNL     1       7.755  -3.439  24.087  0.00  0.00    +0.294 C 
ATOM     43  O   UNL     1       8.948  -4.205  24.255  0.00  0.00    -0.345 OA
ATOM     44  C   UNL     1       9.086  -4.702  25.584  0.00  0.00    +0.197 C 
ATOM     45  C   UNL     1       7.911  -5.577  26.019  0.00  0.00    +0.172 C 
ATOM     46  C   UNL     1       6.580  -4.848  25.756  0.00  0.00    +0.191 C 
BRANCH  46  47
ATOM     47  O   UNL     1       5.502  -5.707  26.146  0.00  0.00    -0.385 OA
ATOM     48  H   UNL     1       4.652  -5.287  25.891  0.00  0.00    +0.210 HD
ENDBRANCH  46  47
BRANCH  45  49
ATOM     49  O   UNL     1       8.075  -5.871  27.411  0.00  0.00    -0.387 OA
ATOM     50  H   UNL     1       8.271  -5.029  27.865  0.00  0.00    +0.210 HD
ENDBRANCH  45  49
BRANCH  41  51
ATOM     51  O   UNL     1       6.540  -5.451  23.362  0.00  0.00    -0.454 OA
BRANCH  51  53
ATOM     52  C   UNL     1       6.235  -5.683  21.039  0.00  0.00    +0.136 C 
ATOM     53  C   UNL     1       5.607  -5.424  22.374  0.00  0.00    +0.304 C 
ATOM     54  O   UNL     1       4.410  -5.237  22.554  0.00  0.00    -0.251 OA
ENDBRANCH  51  53
ENDBRANCH  41  51
ENDBRANCH  40  42
ENDBRANCH  39  40
ENDBRANCH   1  39
TORSDOF 17
ENDMDL
MODEL 6
REMARK VINA RESULT:      -7.2      2.159      3.640
REMARK  Name = 
REMARK  19 active torsions:
REMARK  status: ('A' for Active; 'I' for Inactive)
REMARK    1  A    between atoms: C_1  and  C_2
REMARK    2  A    between atoms: C_2  and  O_4
REMARK    3  A    between atoms: O_4  and  C_5
REMARK    4  A    between atoms: C_6  and  O_51
REMARK    5  A    between atoms: C_8  and  O_50
REMARK    6  A    between atoms: C_11  and  O_13
REMARK    7  A    between atoms: O_13  and  C_14
REMARK    8  A    between atoms: C_14  and  C_15
REMARK    9  A    between atoms: C_16  and  O_49
REMARK   10  A    between atoms: C_18  and  O_48
REMARK   11  A    between atoms: C_20  and  O_47
REMARK   12  A    between atoms: C_21  and  O_24
REMARK   13  A    between atoms: O_24  and  C_25
REMARK   14  A    between atoms: C_26  and  C_38
REMARK   15  A    between atoms: C_30  and  O_37
REMARK   16  A    between atoms: C_32  and  O_36
REMARK   17  A    between atoms: C_40  and  O_45
REMARK   18  A    between atoms: C_41  and  O_44
REMARK   19  A    between atoms: O_45  and  C_46
REMARK                            x       y       z     vdW  Elec       q    Type
REMARK                         _______ _______ _______ _____ _____    ______ ____
ROOT
ATOM      1  C   UNL     1       9.067  -1.964  25.620  0.00  0.00    +0.179 C 
ATOM      2  O   UNL     1       9.263  -0.544  25.808  0.00  0.00    -0.331 OA
ATOM      3  C   UNL     1       8.716   0.311  24.771  0.00  0.00    +0.340 C 
ATOM      4  C   UNL     1       9.336  -0.090  23.404  0.00  0.00    +0.214 C 
ATOM      5  C   UNL     1       9.091  -1.577  23.138  0.00  0.00    +0.180 C 
ATOM      6  C   UNL     1       9.683  -2.410  24.278  0.00  0.00    +0.177 C 
ENDROOT
BRANCH   6   7
ATOM      7  O   UNL     1       9.503  -3.794  23.970  0.00  0.00    -0.386 OA
ATOM      8  H   UNL     1      10.379  -4.147  23.724  0.00  0.00    +0.210 HD
ENDBRANCH   6   7
BRANCH   5   9
ATOM      9  O   UNL     1       9.668  -1.984  21.891  0.00  0.00    -0.386 OA
ATOM     10  H   UNL     1      10.140  -2.818  22.088  0.00  0.00    +0.210 HD
ENDBRANCH   5   9
BRANCH   4  11
ATOM     11  O   UNL     1      10.754   0.188  23.418  0.00  0.00    -0.383 OA
ATOM     12  H   UNL     1      11.015   0.404  22.503  0.00  0.00    +0.210 HD
ENDBRANCH   4  11
BRANCH   3  13
ATOM     13  O   UNL     1       9.049   1.683  25.104  0.00  0.00    -0.453 OA
BRANCH  13  14
ATOM     14  C   UNL     1       8.096   2.664  24.827  0.00  0.00    +0.214 A 
ATOM     15  C   UNL     1       6.667   2.473  25.244  0.00  0.00    +0.238 A 
ATOM     16  O   UNL     1       6.359   1.626  26.073  0.00  0.00    -0.283 OA
ATOM     17  C   UNL     1       5.659   3.341  24.617  0.00  0.00    +0.109 A 
ATOM     18  C   UNL     1       6.116   4.489  23.979  0.00  0.00    +0.147 A 
ATOM     19  C   UNL     1       5.220   5.401  23.421  0.00  0.00    +0.092 A 
ATOM     20  C   UNL     1       3.858   5.136  23.475  0.00  0.00    +0.124 A 
ATOM     21  C   UNL     1       3.380   3.974  24.075  0.00  0.00    +0.091 A 
ATOM     22  O   UNL     1       7.447   4.794  23.895  0.00  0.00    -0.451 OA
ATOM     23  C   UNL     1       4.285   3.078  24.643  0.00  0.00    +0.135 A 
ATOM     24  C   UNL     1       8.397   3.831  24.212  0.00  0.00    +0.181 A 
BRANCH  24  25
ATOM     25  C   UNL     1       9.762   4.304  23.840  0.00  0.00    +0.025 A 
ATOM     26  C   UNL     1      10.658   3.475  23.150  0.00  0.00    +0.015 A 
ATOM     27  C   UNL     1      12.005   3.829  23.017  0.00  0.00    +0.050 A 
ATOM     28  C   UNL     1      12.459   5.018  23.570  0.00  0.00    +0.158 A 
ATOM     29  C   UNL     1      11.584   5.898  24.207  0.00  0.00    +0.162 A 
ATOM     30  C   UNL     1      10.242   5.534  24.350  0.00  0.00    +0.061 A 
BRANCH  29  31
ATOM     31  O   UNL     1      12.162   7.042  24.698  0.00  0.00    -0.491 OA
ATOM     32  C   UNL     1      12.284   7.107  26.115  0.00  0.00    +0.277 C 
ENDBRANCH  29  31
BRANCH  28  33
ATOM     33  O   UNL     1      13.794   5.306  23.492  0.00  0.00    -0.503 OA
ATOM     34  H   UNL     1      13.869   6.237  23.781  0.00  0.00    +0.292 HD
ENDBRANCH  28  33
ENDBRANCH  24  25
BRANCH  23  35
ATOM     35  O   UNL     1       3.808   1.920  25.192  0.00  0.00    -0.506 OA
ATOM     36  H   UNL     1       3.177   2.122  25.901  0.00  0.00    +0.292 HD
ENDBRANCH  23  35
BRANCH  20  37
ATOM     37  O   UNL     1       2.938   5.988  22.937  0.00  0.00    -0.507 OA
ATOM     38  H   UNL     1       2.607   5.616  22.103  0.00  0.00    +0.292 HD
ENDBRANCH  20  37
ENDBRANCH  13  14
ENDBRANCH   3  13
BRANCH   1  39
ATOM     39  C   UNL     1       7.603  -2.418  25.836  0.00  0.00    +0.197 C 
BRANCH  39  40
ATOM     40  O   UNL     1       7.545  -3.585  26.675  0.00  0.00    -0.345 OA
BRANCH  40  42
ATOM     41  C   UNL     1       5.751  -5.277  26.795  0.00  0.00    +0.263 C 
ATOM     42  C   UNL     1       6.943  -4.692  25.992  0.00  0.00    +0.294 C 
ATOM     43  O   UNL     1       6.506  -4.290  24.693  0.00  0.00    -0.345 OA
ATOM     44  C   UNL     1       6.051  -5.391  23.912  0.00  0.00    +0.197 C 
ATOM     45  C   UNL     1       4.901  -6.155  24.570  0.00  0.00    +0.172 C 
ATOM     46  C   UNL     1       5.269  -6.522  26.020  0.00  0.00    +0.191 C 
BRANCH  46  47
ATOM     47  O   UNL     1       4.160  -7.208  26.614  0.00  0.00    -0.385 OA
ATOM     48  H   UNL     1       4.100  -8.109  26.230  0.00  0.00    +0.210 HD
ENDBRANCH  46  47
BRANCH  45  49
ATOM     49  O   UNL     1       4.649  -7.328  23.786  0.00  0.00    -0.387 OA
ATOM     50  H   UNL     1       4.000  -7.869  24.273  0.00  0.00    +0.210 HD
ENDBRANCH  45  49
BRANCH  41  51
ATOM     51  O   UNL     1       4.692  -4.288  26.898  0.00  0.00    -0.454 OA
BRANCH  51  53
ATOM     52  C   UNL     1       4.971  -4.735  29.193  0.00  0.00    +0.136 C 
ATOM     53  C   UNL     1       4.444  -3.804  28.145  0.00  0.00    +0.304 C 
ATOM     54  O   UNL     1       3.886  -2.739  28.378  0.00  0.00    -0.251 OA
ENDBRANCH  51  53
ENDBRANCH  41  51
ENDBRANCH  40  42
ENDBRANCH  39  40
ENDBRANCH   1  39
TORSDOF 17
ENDMDL
MODEL 7
REMARK VINA RESULT:      -7.0      2.675      4.378
REMARK  Name = 
REMARK  19 active torsions:
REMARK  status: ('A' for Active; 'I' for Inactive)
REMARK    1  A    between atoms: C_1  and  C_2
REMARK    2  A    between atoms: C_2  and  O_4
REMARK    3  A    between atoms: O_4  and  C_5
REMARK    4  A    between atoms: C_6  and  O_51
REMARK    5  A    between atoms: C_8  and  O_50
REMARK    6  A    between atoms: C_11  and  O_13
REMARK    7  A    between atoms: O_13  and  C_14
REMARK    8  A    between atoms: C_14  and  C_15
REMARK    9  A    between atoms: C_16  and  O_49
REMARK   10  A    between atoms: C_18  and  O_48
REMARK   11  A    between atoms: C_20  and  O_47
REMARK   12  A    between atoms: C_21  and  O_24
REMARK   13  A    between atoms: O_24  and  C_25
REMARK   14  A    between atoms: C_26  and  C_38
REMARK   15  A    between atoms: C_30  and  O_37
REMARK   16  A    between atoms: C_32  and  O_36
REMARK   17  A    between atoms: C_40  and  O_45
REMARK   18  A    between atoms: C_41  and  O_44
REMARK   19  A    between atoms: O_45  and  C_46
REMARK                            x       y       z     vdW  Elec       q    Type
REMARK                         _______ _______ _______ _____ _____    ______ ____
ROOT
ATOM      1  C   UNL     1       8.683  -0.908  23.489  0.00  0.00    +0.179 C 
ATOM      2  O   UNL     1       8.520  -0.129  24.695  0.00  0.00    -0.331 OA
ATOM      3  C   UNL     1       7.986   1.208  24.514  0.00  0.00    +0.340 C 
ATOM      4  C   UNL     1       8.910   1.996  23.545  0.00  0.00    +0.214 C 
ATOM      5  C   UNL     1       9.055   1.232  22.228  0.00  0.00    +0.180 C 
ATOM      6  C   UNL     1       9.609  -0.168  22.501  0.00  0.00    +0.177 C 
ENDROOT
BRANCH   6   7
ATOM      7  O   UNL     1       9.799  -0.833  21.250  0.00  0.00    -0.386 OA
ATOM      8  H   UNL     1       9.115  -1.526  21.189  0.00  0.00    +0.210 HD
ENDBRANCH   6   7
BRANCH   5   9
ATOM      9  O   UNL     1       9.917   1.924  21.316  0.00  0.00    -0.386 OA
ATOM     10  H   UNL     1      10.804   1.536  21.459  0.00  0.00    +0.210 HD
ENDBRANCH   5   9
BRANCH   4  11
ATOM     11  O   UNL     1      10.205   2.184  24.159  0.00  0.00    -0.383 OA
ATOM     12  H   UNL     1      10.859   2.256  23.438  0.00  0.00    +0.210 HD
ENDBRANCH   4  11
BRANCH   3  13
ATOM     13  O   UNL     1       7.940   1.849  25.815  0.00  0.00    -0.453 OA
BRANCH  13  14
ATOM     14  C   UNL     1       6.685   2.159  26.338  0.00  0.00    +0.214 A 
ATOM     15  C   UNL     1       6.158   1.424  27.535  0.00  0.00    +0.238 A 
ATOM     16  O   UNL     1       6.903   0.766  28.251  0.00  0.00    -0.283 OA
ATOM     17  C   UNL     1       4.717   1.526  27.811  0.00  0.00    +0.109 A 
ATOM     18  C   UNL     1       4.021   2.556  27.188  0.00  0.00    +0.147 A 
ATOM     19  C   UNL     1       2.668   2.766  27.450  0.00  0.00    +0.092 A 
ATOM     20  C   UNL     1       2.003   1.911  28.320  0.00  0.00    +0.124 A 
ATOM     21  C   UNL     1       2.670   0.850  28.926  0.00  0.00    +0.091 A 
ATOM     22  O   UNL     1       4.628   3.424  26.321  0.00  0.00    -0.451 OA
ATOM     23  C   UNL     1       4.027   0.660  28.667  0.00  0.00    +0.135 A 
ATOM     24  C   UNL     1       5.897   3.138  25.833  0.00  0.00    +0.181 A 
BRANCH  24  25
ATOM     25  C   UNL     1       6.266   4.092  24.748  0.00  0.00    +0.025 A 
ATOM     26  C   UNL     1       5.720   3.978  23.460  0.00  0.00    +0.015 A 
ATOM     27  C   UNL     1       6.244   4.715  22.393  0.00  0.00    +0.050 A 
ATOM     28  C   UNL     1       7.311   5.574  22.611  0.00  0.00    +0.158 A 
ATOM     29  C   UNL     1       7.838   5.761  23.889  0.00  0.00    +0.162 A 
ATOM     30  C   UNL     1       7.322   5.012  24.951  0.00  0.00    +0.061 A 
BRANCH  29  31
ATOM     31  O   UNL     1       8.884   6.646  23.966  0.00  0.00    -0.491 OA
ATOM     32  C   UNL     1      10.173   6.060  24.122  0.00  0.00    +0.277 C 
ENDBRANCH  29  31
BRANCH  28  33
ATOM     33  O   UNL     1       7.854   6.227  21.538  0.00  0.00    -0.503 OA
ATOM     34  H   UNL     1       7.668   5.651  20.770  0.00  0.00    +0.292 HD
ENDBRANCH  28  33
ENDBRANCH  24  25
BRANCH  23  35
ATOM     35  O   UNL     1       4.662  -0.410  29.234  0.00  0.00    -0.506 OA
ATOM     36  H   UNL     1       5.502  -0.580  28.778  0.00  0.00    +0.292 HD
ENDBRANCH  23  35
BRANCH  20  37
ATOM     37  O   UNL     1       0.678   2.064  28.605  0.00  0.00    -0.507 OA
ATOM     38  H   UNL     1       0.334   2.834  28.123  0.00  0.00    +0.292 HD
ENDBRANCH  20  37
ENDBRANCH  13  14
ENDBRANCH   3  13
BRANCH   1  39
ATOM     39  C   UNL     1       7.343  -1.384  22.877  0.00  0.00    +0.197 C 
BRANCH  39  40
ATOM     40  O   UNL     1       6.514  -2.004  23.877  0.00  0.00    -0.345 OA
BRANCH  40  42
ATOM     41  C   UNL     1       6.571  -4.370  23.175  0.00  0.00    +0.263 C 
ATOM     42  C   UNL     1       5.734  -3.071  23.322  0.00  0.00    +0.294 C 
ATOM     43  O   UNL     1       4.589  -3.319  24.139  0.00  0.00    -0.345 OA
ATOM     44  C   UNL     1       3.696  -4.256  23.544  0.00  0.00    +0.197 C 
ATOM     45  C   UNL     1       4.354  -5.605  23.252  0.00  0.00    +0.172 C 
ATOM     46  C   UNL     1       5.662  -5.398  22.466  0.00  0.00    +0.191 C 
BRANCH  46  47
ATOM     47  O   UNL     1       6.266  -6.677  22.238  0.00  0.00    -0.385 OA
ATOM     48  H   UNL     1       5.558  -7.345  22.112  0.00  0.00    +0.210 HD
ENDBRANCH  46  47
BRANCH  45  49
ATOM     49  O   UNL     1       3.421  -6.396  22.506  0.00  0.00    -0.387 OA
ATOM     50  H   UNL     1       3.510  -6.142  21.568  0.00  0.00    +0.210 HD
ENDBRANCH  45  49
BRANCH  41  51
ATOM     51  O   UNL     1       6.973  -4.850  24.486  0.00  0.00    -0.454 OA
BRANCH  51  53
ATOM     52  C   UNL     1       8.644  -3.949  25.880  0.00  0.00    +0.136 C 
ATOM     53  C   UNL     1       8.310  -4.857  24.736  0.00  0.00    +0.304 C 
ATOM     54  O   UNL     1       9.127  -5.533  24.123  0.00  0.00    -0.251 OA
ENDBRANCH  51  53
ENDBRANCH  41  51
ENDBRANCH  40  42
ENDBRANCH  39  40
ENDBRANCH   1  39
TORSDOF 17
ENDMDL
MODEL 8
REMARK VINA RESULT:      -7.0      1.718      2.503
REMARK  Name = 
REMARK  19 active torsions:
REMARK  status: ('A' for Active; 'I' for Inactive)
REMARK    1  A    between atoms: C_1  and  C_2
REMARK    2  A    between atoms: C_2  and  O_4
REMARK    3  A    between atoms: O_4  and  C_5
REMARK    4  A    between atoms: C_6  and  O_51
REMARK    5  A    between atoms: C_8  and  O_50
REMARK    6  A    between atoms: C_11  and  O_13
REMARK    7  A    between atoms: O_13  and  C_14
REMARK    8  A    between atoms: C_14  and  C_15
REMARK    9  A    between atoms: C_16  and  O_49
REMARK   10  A    between atoms: C_18  and  O_48
REMARK   11  A    between atoms: C_20  and  O_47
REMARK   12  A    between atoms: C_21  and  O_24
REMARK   13  A    between atoms: O_24  and  C_25
REMARK   14  A    between atoms: C_26  and  C_38
REMARK   15  A    between atoms: C_30  and  O_37
REMARK   16  A    between atoms: C_32  and  O_36
REMARK   17  A    between atoms: C_40  and  O_45
REMARK   18  A    between atoms: C_41  and  O_44
REMARK   19  A    between atoms: O_45  and  C_46
REMARK                            x       y       z     vdW  Elec       q    Type
REMARK                         _______ _______ _______ _____ _____    ______ ____
ROOT
ATOM      1  C   UNL     1       8.316  -1.367  24.715  0.00  0.00    +0.179 C 
ATOM      2  O   UNL     1       8.375  -0.011  25.215  0.00  0.00    -0.331 OA
ATOM      3  C   UNL     1       8.193   1.033  24.225  0.00  0.00    +0.340 C 
ATOM      4  C   UNL     1       9.268   0.874  23.115  0.00  0.00    +0.214 C 
ATOM      5  C   UNL     1       9.193  -0.531  22.515  0.00  0.00    +0.180 C 
ATOM      6  C   UNL     1       9.381  -1.575  23.619  0.00  0.00    +0.177 C 
ENDROOT
BRANCH   6   7
ATOM      7  O   UNL     1       9.376  -2.873  23.022  0.00  0.00    -0.386 OA
ATOM      8  H   UNL     1      10.282  -3.226  23.101  0.00  0.00    +0.210 HD
ENDBRANCH   6   7
BRANCH   5   9
ATOM      9  O   UNL     1      10.186  -0.717  21.499  0.00  0.00    -0.386 OA
ATOM     10  H   UNL     1       9.707  -0.617  20.652  0.00  0.00    +0.210 HD
ENDBRANCH   5   9
BRANCH   4  11
ATOM     11  O   UNL     1      10.579   1.108  23.678  0.00  0.00    -0.383 OA
ATOM     12  H   UNL     1      10.771   2.060  23.578  0.00  0.00    +0.210 HD
ENDBRANCH   4  11
BRANCH   3  13
ATOM     13  O   UNL     1       8.332   2.312  24.896  0.00  0.00    -0.453 OA
BRANCH  13  14
ATOM     14  C   UNL     1       7.491   3.349  24.491  0.00  0.00    +0.214 A 
ATOM     15  C   UNL     1       6.024   3.103  24.292  0.00  0.00    +0.238 A 
ATOM     16  O   UNL     1       5.483   2.105  24.751  0.00  0.00    -0.283 OA
ATOM     17  C   UNL     1       5.269   4.106  23.526  0.00  0.00    +0.109 A 
ATOM     18  C   UNL     1       5.857   5.354  23.358  0.00  0.00    +0.147 A 
ATOM     19  C   UNL     1       5.178   6.383  22.706  0.00  0.00    +0.092 A 
ATOM     20  C   UNL     1       3.912   6.141  22.189  0.00  0.00    +0.124 A 
ATOM     21  C   UNL     1       3.318   4.888  22.312  0.00  0.00    +0.091 A 
ATOM     22  O   UNL     1       7.103   5.643  23.845  0.00  0.00    -0.451 OA
ATOM     23  C   UNL     1       4.001   3.872  22.980  0.00  0.00    +0.135 A 
ATOM     24  C   UNL     1       7.926   4.614  24.289  0.00  0.00    +0.181 A 
BRANCH  24  25
ATOM     25  C   UNL     1       9.299   5.127  24.562  0.00  0.00    +0.025 A 
ATOM     26  C   UNL     1       9.511   6.241  25.389  0.00  0.00    +0.015 A 
ATOM     27  C   UNL     1      10.763   6.861  25.449  0.00  0.00    +0.050 A 
ATOM     28  C   UNL     1      11.811   6.365  24.687  0.00  0.00    +0.158 A 
ATOM     29  C   UNL     1      11.656   5.221  23.904  0.00  0.00    +0.162 A 
ATOM     30  C   UNL     1      10.399   4.612  23.835  0.00  0.00    +0.061 A 
BRANCH  29  31
ATOM     31  O   UNL     1      12.774   4.831  23.210  0.00  0.00    -0.491 OA
ATOM     32  C   UNL     1      13.106   5.634  22.081  0.00  0.00    +0.277 C 
ENDBRANCH  29  31
BRANCH  28  33
ATOM     33  O   UNL     1      13.005   7.032  24.706  0.00  0.00    -0.503 OA
ATOM     34  H   UNL     1      12.920   7.724  24.020  0.00  0.00    +0.292 HD
ENDBRANCH  28  33
ENDBRANCH  24  25
BRANCH  23  35
ATOM     35  O   UNL     1       3.427   2.634  23.059  0.00  0.00    -0.506 OA
ATOM     36  H   UNL     1       2.787   2.608  23.788  0.00  0.00    +0.292 HD
ENDBRANCH  23  35
BRANCH  20  37
ATOM     37  O   UNL     1       3.206   7.108  21.534  0.00  0.00    -0.507 OA
ATOM     38  H   UNL     1       3.797   7.852  21.331  0.00  0.00    +0.292 HD
ENDBRANCH  20  37
ENDBRANCH  13  14
ENDBRANCH   3  13
BRANCH   1  39
ATOM     39  C   UNL     1       6.889  -1.814  24.315  0.00  0.00    +0.197 C 
BRANCH  39  40
ATOM     40  O   UNL     1       6.848  -3.227  24.050  0.00  0.00    -0.345 OA
BRANCH  40  42
ATOM     41  C   UNL     1       5.251  -4.903  24.910  0.00  0.00    +0.263 C 
ATOM     42  C   UNL     1       6.453  -3.968  25.212  0.00  0.00    +0.294 C 
ATOM     43  O   UNL     1       7.553  -4.732  25.706  0.00  0.00    -0.345 OA
ATOM     44  C   UNL     1       7.260  -5.355  26.953  0.00  0.00    +0.197 C 
ATOM     45  C   UNL     1       6.047  -6.284  26.885  0.00  0.00    +0.172 C 
ATOM     46  C   UNL     1       4.850  -5.549  26.254  0.00  0.00    +0.191 C 
BRANCH  46  47
ATOM     47  O   UNL     1       3.743  -6.455  26.178  0.00  0.00    -0.385 OA
ATOM     48  H   UNL     1       3.597  -6.701  25.239  0.00  0.00    +0.210 HD
ENDBRANCH  46  47
BRANCH  45  49
ATOM     49  O   UNL     1       5.747  -6.711  28.220  0.00  0.00    -0.387 OA
ATOM     50  H   UNL     1       5.900  -5.949  28.810  0.00  0.00    +0.210 HD
ENDBRANCH  45  49
BRANCH  41  51
ATOM     51  O   UNL     1       5.643  -5.915  23.944  0.00  0.00    -0.454 OA
BRANCH  51  53
ATOM     52  C   UNL     1       6.065  -5.899  21.627  0.00  0.00    +0.136 C 
ATOM     53  C   UNL     1       5.046  -5.840  22.724  0.00  0.00    +0.304 C 
ATOM     54  O   UNL     1       3.837  -5.760  22.547  0.00  0.00    -0.251 OA
ENDBRANCH  51  53
ENDBRANCH  41  51
ENDBRANCH  40  42
ENDBRANCH  39  40
ENDBRANCH   1  39
TORSDOF 17
ENDMDL
MODEL 9
REMARK VINA RESULT:      -6.8      3.321      7.059
REMARK  Name = 
REMARK  19 active torsions:
REMARK  status: ('A' for Active; 'I' for Inactive)
REMARK    1  A    between atoms: C_1  and  C_2
REMARK    2  A    between atoms: C_2  and  O_4
REMARK    3  A    between atoms: O_4  and  C_5
REMARK    4  A    between atoms: C_6  and  O_51
REMARK    5  A    between atoms: C_8  and  O_50
REMARK    6  A    between atoms: C_11  and  O_13
REMARK    7  A    between atoms: O_13  and  C_14
REMARK    8  A    between atoms: C_14  and  C_15
REMARK    9  A    between atoms: C_16  and  O_49
REMARK   10  A    between atoms: C_18  and  O_48
REMARK   11  A    between atoms: C_20  and  O_47
REMARK   12  A    between atoms: C_21  and  O_24
REMARK   13  A    between atoms: O_24  and  C_25
REMARK   14  A    between atoms: C_26  and  C_38
REMARK   15  A    between atoms: C_30  and  O_37
REMARK   16  A    between atoms: C_32  and  O_36
REMARK   17  A    between atoms: C_40  and  O_45
REMARK   18  A    between atoms: C_41  and  O_44
REMARK   19  A    between atoms: O_45  and  C_46
REMARK                            x       y       z     vdW  Elec       q    Type
REMARK                         _______ _______ _______ _____ _____    ______ ____
ROOT
ATOM      1  C   UNL     1       4.533   0.098  28.469  0.00  0.00    +0.179 C 
ATOM      2  O   UNL     1       4.590   0.121  27.025  0.00  0.00    -0.331 OA
ATOM      3  C   UNL     1       5.871  -0.228  26.439  0.00  0.00    +0.340 C 
ATOM      4  C   UNL     1       6.959   0.736  26.986  0.00  0.00    +0.214 C 
ATOM      5  C   UNL     1       6.973   0.690  28.516  0.00  0.00    +0.180 C 
ATOM      6  C   UNL     1       5.589   1.056  29.057  0.00  0.00    +0.177 C 
ENDROOT
BRANCH   6   7
ATOM      7  O   UNL     1       5.650   1.073  30.484  0.00  0.00    -0.386 OA
ATOM      8  H   UNL     1       4.755   1.295  30.804  0.00  0.00    +0.210 HD
ENDBRANCH   6   7
BRANCH   5   9
ATOM      9  O   UNL     1       7.955   1.584  29.054  0.00  0.00    -0.386 OA
ATOM     10  H   UNL     1       7.528   2.464  29.053  0.00  0.00    +0.210 HD
ENDBRANCH   5   9
BRANCH   4  11
ATOM     11  O   UNL     1       6.685   2.080  26.529  0.00  0.00    -0.383 OA
ATOM     12  H   UNL     1       7.518   2.436  26.165  0.00  0.00    +0.210 HD
ENDBRANCH   4  11
BRANCH   3  13
ATOM     13  O   UNL     1       5.750  -0.103  24.999  0.00  0.00    -0.453 OA
BRANCH  13  14
ATOM     14  C   UNL     1       5.948  -1.252  24.232  0.00  0.00    +0.214 A 
ATOM     15  C   UNL     1       4.998  -2.409  24.340  0.00  0.00    +0.238 A 
ATOM     16  O   UNL     1       3.895  -2.275  24.854  0.00  0.00    -0.283 OA
ATOM     17  C   UNL     1       5.447  -3.704  23.806  0.00  0.00    +0.109 A 
ATOM     18  C   UNL     1       6.531  -3.692  22.936  0.00  0.00    +0.147 A 
ATOM     19  C   UNL     1       6.974  -4.867  22.329  0.00  0.00    +0.092 A 
ATOM     20  C   UNL     1       6.343  -6.068  22.631  0.00  0.00    +0.124 A 
ATOM     21  C   UNL     1       5.281  -6.110  23.529  0.00  0.00    +0.091 A 
ATOM     22  O   UNL     1       7.188  -2.538  22.608  0.00  0.00    -0.451 OA
ATOM     23  C   UNL     1       4.837  -4.925  24.116  0.00  0.00    +0.135 A 
ATOM     24  C   UNL     1       6.960  -1.381  23.344  0.00  0.00    +0.181 A 
BRANCH  24  25
ATOM     25  C   UNL     1       7.935  -0.319  22.960  0.00  0.00    +0.025 A 
ATOM     26  C   UNL     1       9.298  -0.433  23.272  0.00  0.00    +0.015 A 
ATOM     27  C   UNL     1      10.159   0.660  23.129  0.00  0.00    +0.050 A 
ATOM     28  C   UNL     1       9.661   1.869  22.667  0.00  0.00    +0.158 A 
ATOM     29  C   UNL     1       8.326   2.002  22.286  0.00  0.00    +0.162 A 
ATOM     30  C   UNL     1       7.465   0.912  22.444  0.00  0.00    +0.061 A 
BRANCH  29  31
ATOM     31  O   UNL     1       7.967   3.249  21.837  0.00  0.00    -0.491 OA
ATOM     32  C   UNL     1       7.198   4.030  22.746  0.00  0.00    +0.277 C 
ENDBRANCH  29  31
BRANCH  28  33
ATOM     33  O   UNL     1      10.507   2.943  22.606  0.00  0.00    -0.503 OA
ATOM     34  H   UNL     1      10.201   3.463  21.837  0.00  0.00    +0.292 HD
ENDBRANCH  28  33
ENDBRANCH  24  25
BRANCH  23  35
ATOM     35  O   UNL     1       3.820  -4.983  25.029  0.00  0.00    -0.506 OA
ATOM     36  H   UNL     1       4.078  -5.538  25.781  0.00  0.00    +0.292 HD
ENDBRANCH  23  35
BRANCH  20  37
ATOM     37  O   UNL     1       6.742  -7.248  22.076  0.00  0.00    -0.507 OA
ATOM     38  H   UNL     1       5.971  -7.831  21.977  0.00  0.00    +0.292 HD
ENDBRANCH  20  37
ENDBRANCH  13  14
ENDBRANCH   3  13
BRANCH   1  39
ATOM     39  C   UNL     1       4.563  -1.331  29.064  0.00  0.00    +0.197 C 
BRANCH  39  40
ATOM     40  O   UNL     1       4.654  -2.320  28.022  0.00  0.00    -0.345 OA
BRANCH  40  42
ATOM     41  C   UNL     1       5.139  -4.725  27.747  0.00  0.00    +0.263 C 
ATOM     42  C   UNL     1       4.351  -3.631  28.516  0.00  0.00    +0.294 C 
ATOM     43  O   UNL     1       4.643  -3.710  29.912  0.00  0.00    -0.345 OA
ATOM     44  C   UNL     1       4.204  -4.938  30.485  0.00  0.00    +0.197 C 
ATOM     45  C   UNL     1       4.825  -6.164  29.815  0.00  0.00    +0.172 C 
ATOM     46  C   UNL     1       4.643  -6.084  28.288  0.00  0.00    +0.191 C 
BRANCH  46  47
ATOM     47  O   UNL     1       5.261  -7.230  27.691  0.00  0.00    -0.385 OA
ATOM     48  H   UNL     1       4.603  -7.688  27.125  0.00  0.00    +0.210 HD
ENDBRANCH  46  47
BRANCH  45  49
ATOM     49  O   UNL     1       4.185  -7.328  30.352  0.00  0.00    -0.387 OA
ATOM     50  H   UNL     1       3.223  -7.209  30.241  0.00  0.00    +0.210 HD
ENDBRANCH  45  49
BRANCH  41  51
ATOM     51  O   UNL     1       6.564  -4.564  27.981  0.00  0.00    -0.454 OA
BRANCH  51  53
ATOM     52  C   UNL     1       7.970  -3.427  26.471  0.00  0.00    +0.136 C 
ATOM     53  C   UNL     1       7.370  -4.732  26.899  0.00  0.00    +0.304 C 
ATOM     54  O   UNL     1       7.594  -5.809  26.361  0.00  0.00    -0.251 OA
ENDBRANCH  51  53
ENDBRANCH  41  51
ENDBRANCH  40  42
ENDBRANCH  39  40
ENDBRANCH   1  39
TORSDOF 17
ENDMDL
