MODEL 1
REMARK VINA RESULT:      -6.8      0.000      0.000
REMARK  Name = 
REMARK  17 active torsions:
REMARK  status: ('A' for Active; 'I' for Inactive)
REMARK    1  A    between atoms: C_1  and  O_2
REMARK    2  A    between atoms: O_2  and  C_3
REMARK    3  A    between atoms: C_4  and  O_49
REMARK    4  A    between atoms: C_7  and  C_9
REMARK    5  A    between atoms: C_10  and  O_22
REMARK    6  A    between atoms: C_14  and  O_21
REMARK    7  A    between atoms: C_16  and  O_20
REMARK    8  A    between atoms: O_22  and  C_23
REMARK    9  A    between atoms: C_25  and  O_36
REMARK   10  A    between atoms: C_26  and  O_35
REMARK   11  A    between atoms: C_28  and  O_34
REMARK   12  A    between atoms: C_30  and  C_32
REMARK   13  A    between atoms: C_32  and  O_33
REMARK   14  A    between atoms: O_36  and  C_37
REMARK   15  A    between atoms: C_39  and  O_48
REMARK   16  A    between atoms: C_40  and  O_47
REMARK   17  A    between atoms: C_42  and  O_46
REMARK                            x       y       z     vdW  Elec       q    Type
REMARK                         _______ _______ _______ _____ _____    ______ ____
ROOT
ATOM      1  O   UNL     1       7.046  -2.780  26.987  0.00  0.00    -0.453 OA
ENDROOT
BRANCH   1  12
ATOM      2  C   UNL     1       7.107  -0.353  26.318  0.00  0.00    +0.181 A 
ATOM      3  O   UNL     1       7.524   0.645  25.416  0.00  0.00    -0.451 OA
ATOM      4  C   UNL     1       8.217   0.332  24.277  0.00  0.00    +0.147 A 
ATOM      5  C   UNL     1       8.660  -0.945  24.031  0.00  0.00    +0.109 A 
ATOM      6  C   UNL     1       9.390  -1.271  22.873  0.00  0.00    +0.135 A 
ATOM      7  C   UNL     1       9.713  -0.283  21.965  0.00  0.00    +0.091 A 
ATOM      8  C   UNL     1       9.315   1.023  22.235  0.00  0.00    +0.124 A 
ATOM      9  C   UNL     1       8.522  -1.890  25.101  0.00  0.00    +0.238 A 
ATOM     10  O   UNL     1       9.351  -2.801  25.101  0.00  0.00    -0.283 OA
ATOM     11  C   UNL     1       8.554   1.337  23.368  0.00  0.00    +0.092 A 
ATOM     12  C   UNL     1       7.473  -1.676  26.176  0.00  0.00    +0.214 A 
BRANCH   2  15
ATOM     13  C   UNL     1       4.175   1.058  28.300  0.00  0.00    +0.162 A 
ATOM     14  C   UNL     1       4.938   0.322  27.388  0.00  0.00    +0.061 A 
ATOM     15  C   UNL     1       6.357   0.250  27.473  0.00  0.00    +0.025 A 
ATOM     16  C   UNL     1       6.956   0.826  28.604  0.00  0.00    +0.015 A 
ATOM     17  C   UNL     1       6.192   1.534  29.551  0.00  0.00    +0.050 A 
ATOM     18  C   UNL     1       4.824   1.666  29.373  0.00  0.00    +0.158 A 
BRANCH  18  19
ATOM     19  O   UNL     1       4.119   2.445  30.252  0.00  0.00    -0.503 OA
ATOM     20  H   UNL     1       3.878   3.249  29.752  0.00  0.00    +0.292 HD
ENDBRANCH  18  19
BRANCH  13  22
ATOM     21  C   UNL     1       2.089   0.313  27.451  0.00  0.00    +0.277 C 
ATOM     22  O   UNL     1       2.816   1.246  28.247  0.00  0.00    -0.491 OA
ENDBRANCH  13  22
ENDBRANCH   2  15
BRANCH   8  23
ATOM     23  O   UNL     1       9.684   2.041  21.404  0.00  0.00    -0.507 OA
ATOM     24  H   UNL     1       8.910   2.300  20.871  0.00  0.00    +0.292 HD
ENDBRANCH   8  23
BRANCH   6  25
ATOM     25  O   UNL     1       9.829  -2.537  22.601  0.00  0.00    -0.506 OA
ATOM     26  H   UNL     1      10.660  -2.680  23.109  0.00  0.00    +0.292 HD
ENDBRANCH   6  25
ENDBRANCH   1  12
BRANCH   1  27
ATOM     27  C   UNL     1       5.640  -3.098  26.780  0.00  0.00    +0.340 C 
ATOM     28  O   UNL     1       4.980  -3.294  28.043  0.00  0.00    -0.331 OA
ATOM     29  C   UNL     1       5.095  -4.629  28.552  0.00  0.00    +0.179 C 
ATOM     30  C   UNL     1       4.250  -5.537  27.650  0.00  0.00    +0.177 C 
ATOM     31  C   UNL     1       4.888  -5.541  26.252  0.00  0.00    +0.180 C 
ATOM     32  C   UNL     1       5.108  -4.112  25.718  0.00  0.00    +0.221 C 
BRANCH  31  33
ATOM     33  O   UNL     1       6.093  -6.316  26.335  0.00  0.00    -0.386 OA
ATOM     34  H   UNL     1       6.849  -5.733  26.140  0.00  0.00    +0.210 HD
ENDBRANCH  31  33
BRANCH  30  35
ATOM     35  O   UNL     1       4.164  -6.874  28.153  0.00  0.00    -0.386 OA
ATOM     36  H   UNL     1       3.208  -7.035  28.313  0.00  0.00    +0.210 HD
ENDBRANCH  30  35
BRANCH  32  37
ATOM     37  O   UNL     1       5.757  -4.170  24.446  0.00  0.00    -0.337 OA
BRANCH  37  38
ATOM     38  C   UNL     1       4.904  -4.237  23.283  0.00  0.00    +0.282 C 
ATOM     39  O   UNL     1       4.542  -5.553  22.875  0.00  0.00    -0.346 OA
ATOM     40  C   UNL     1       5.541  -6.352  22.223  0.00  0.00    +0.197 C 
ATOM     41  C   UNL     1       6.519  -5.647  21.254  0.00  0.00    +0.171 C 
ATOM     42  C   UNL     1       6.903  -4.261  21.756  0.00  0.00    +0.178 C 
ATOM     43  C   UNL     1       5.608  -3.506  22.122  0.00  0.00    +0.201 C 
BRANCH  43  44
ATOM     44  O   UNL     1       5.889  -2.142  22.446  0.00  0.00    -0.384 OA
ATOM     45  H   UNL     1       6.852  -2.024  22.376  0.00  0.00    +0.210 HD
ENDBRANCH  43  44
BRANCH  42  46
ATOM     46  O   UNL     1       7.835  -4.407  22.834  0.00  0.00    -0.386 OA
ATOM     47  H   UNL     1       8.571  -3.783  22.680  0.00  0.00    +0.210 HD
ENDBRANCH  42  46
BRANCH  41  48
ATOM     48  O   UNL     1       5.937  -5.527  19.950  0.00  0.00    -0.387 OA
ATOM     49  H   UNL     1       6.456  -4.851  19.473  0.00  0.00    +0.210 HD
ENDBRANCH  41  48
ENDBRANCH  37  38
ENDBRANCH  32  37
BRANCH  29  50
ATOM     50  C   UNL     1       4.621  -4.626  30.012  0.00  0.00    +0.190 C 
BRANCH  50  51
ATOM     51  O   UNL     1       3.248  -4.965  30.156  0.00  0.00    -0.392 OA
ATOM     52  H   UNL     1       3.017  -4.823  31.099  0.00  0.00    +0.210 HD
ENDBRANCH  50  51
ENDBRANCH  29  50
ENDBRANCH   1  27
TORSDOF 16
ENDMDL
MODEL 2
REMARK VINA RESULT:      -6.6      3.836      7.393
REMARK  Name = 
REMARK  17 active torsions:
REMARK  status: ('A' for Active; 'I' for Inactive)
REMARK    1  A    between atoms: C_1  and  O_2
REMARK    2  A    between atoms: O_2  and  C_3
REMARK    3  A    between atoms: C_4  and  O_49
REMARK    4  A    between atoms: C_7  and  C_9
REMARK    5  A    between atoms: C_10  and  O_22
REMARK    6  A    between atoms: C_14  and  O_21
REMARK    7  A    between atoms: C_16  and  O_20
REMARK    8  A    between atoms: O_22  and  C_23
REMARK    9  A    between atoms: C_25  and  O_36
REMARK   10  A    between atoms: C_26  and  O_35
REMARK   11  A    between atoms: C_28  and  O_34
REMARK   12  A    between atoms: C_30  and  C_32
REMARK   13  A    between atoms: C_32  and  O_33
REMARK   14  A    between atoms: O_36  and  C_37
REMARK   15  A    between atoms: C_39  and  O_48
REMARK   16  A    between atoms: C_40  and  O_47
REMARK   17  A    between atoms: C_42  and  O_46
REMARK                            x       y       z     vdW  Elec       q    Type
REMARK                         _______ _______ _______ _____ _____    ______ ____
ROOT
ATOM      1  O   UNL     1       6.925   2.035  24.401  0.00  0.00    -0.453 OA
ENDROOT
BRANCH   1  12
ATOM      2  C   UNL     1       9.351   1.528  23.955  0.00  0.00    +0.181 A 
ATOM      3  O   UNL     1      10.656   1.987  23.691  0.00  0.00    -0.451 OA
ATOM      4  C   UNL     1      10.946   3.324  23.647  0.00  0.00    +0.147 A 
ATOM      5  C   UNL     1       9.960   4.278  23.717  0.00  0.00    +0.109 A 
ATOM      6  C   UNL     1      10.248   5.654  23.654  0.00  0.00    +0.135 A 
ATOM      7  C   UNL     1      11.550   6.076  23.475  0.00  0.00    +0.091 A 
ATOM      8  C   UNL     1      12.547   5.113  23.348  0.00  0.00    +0.124 A 
ATOM      9  C   UNL     1       8.607   3.808  23.655  0.00  0.00    +0.238 A 
ATOM     10  O   UNL     1       7.798   4.612  23.188  0.00  0.00    -0.283 OA
ATOM     11  C   UNL     1      12.263   3.745  23.453  0.00  0.00    +0.092 A 
ATOM     12  C   UNL     1       8.274   2.385  24.062  0.00  0.00    +0.214 A 
BRANCH   2  15
ATOM     13  C   UNL     1       8.887  -2.005  25.303  0.00  0.00    +0.162 A 
ATOM     14  C   UNL     1       8.771  -0.625  25.109  0.00  0.00    +0.061 A 
ATOM     15  C   UNL     1       9.304   0.025  23.961  0.00  0.00    +0.025 A 
ATOM     16  C   UNL     1       9.822  -0.797  22.949  0.00  0.00    +0.015 A 
ATOM     17  C   UNL     1       9.906  -2.192  23.114  0.00  0.00    +0.050 A 
ATOM     18  C   UNL     1       9.468  -2.773  24.294  0.00  0.00    +0.158 A 
BRANCH  18  19
ATOM     19  O   UNL     1       9.653  -4.118  24.473  0.00  0.00    -0.503 OA
ATOM     20  H   UNL     1      10.561  -4.211  24.823  0.00  0.00    +0.292 HD
ENDBRANCH  18  19
BRANCH  13  22
ATOM     21  C   UNL     1       7.064  -2.791  26.603  0.00  0.00    +0.277 C 
ATOM     22  O   UNL     1       8.474  -2.701  26.412  0.00  0.00    -0.491 OA
ENDBRANCH  13  22
ENDBRANCH   2  15
BRANCH   8  23
ATOM     23  O   UNL     1      13.835   5.485  23.091  0.00  0.00    -0.507 OA
ATOM     24  H   UNL     1      14.195   5.922  23.884  0.00  0.00    +0.292 HD
ENDBRANCH   8  23
BRANCH   6  25
ATOM     25  O   UNL     1       9.285   6.621  23.735  0.00  0.00    -0.506 OA
ATOM     26  H   UNL     1       9.734   7.474  23.929  0.00  0.00    +0.292 HD
ENDBRANCH   6  25
ENDBRANCH   1  12
BRANCH   1  27
ATOM     27  C   UNL     1       6.445   2.776  25.560  0.00  0.00    +0.340 C 
ATOM     28  O   UNL     1       7.100   2.317  26.755  0.00  0.00    -0.331 OA
ATOM     29  C   UNL     1       6.471   1.179  27.357  0.00  0.00    +0.179 C 
ATOM     30  C   UNL     1       5.130   1.649  27.935  0.00  0.00    +0.177 C 
ATOM     31  C   UNL     1       4.236   2.082  26.765  0.00  0.00    +0.180 C 
ATOM     32  C   UNL     1       4.943   3.097  25.846  0.00  0.00    +0.221 C 
BRANCH  31  33
ATOM     33  O   UNL     1       3.813   0.890  26.087  0.00  0.00    -0.386 OA
ATOM     34  H   UNL     1       2.941   1.056  25.683  0.00  0.00    +0.210 HD
ENDBRANCH  31  33
BRANCH  30  35
ATOM     35  O   UNL     1       4.480   0.630  28.699  0.00  0.00    -0.386 OA
ATOM     36  H   UNL     1       5.059  -0.161  28.634  0.00  0.00    +0.210 HD
ENDBRANCH  30  35
BRANCH  32  37
ATOM     37  O   UNL     1       4.093   3.420  24.743  0.00  0.00    -0.337 OA
BRANCH  37  38
ATOM     38  C   UNL     1       4.564   4.439  23.835  0.00  0.00    +0.282 C 
ATOM     39  O   UNL     1       3.850   5.670  23.886  0.00  0.00    -0.346 OA
ATOM     40  C   UNL     1       2.541   5.711  23.298  0.00  0.00    +0.197 C 
ATOM     41  C   UNL     1       2.300   4.907  21.999  0.00  0.00    +0.171 C 
ATOM     42  C   UNL     1       3.055   3.583  22.013  0.00  0.00    +0.178 C 
ATOM     43  C   UNL     1       4.521   3.870  22.402  0.00  0.00    +0.201 C 
BRANCH  43  44
ATOM     44  O   UNL     1       5.320   2.692  22.273  0.00  0.00    -0.384 OA
ATOM     45  H   UNL     1       6.105   2.815  22.835  0.00  0.00    +0.210 HD
ENDBRANCH  43  44
BRANCH  42  46
ATOM     46  O   UNL     1       2.371   2.675  22.884  0.00  0.00    -0.386 OA
ATOM     47  H   UNL     1       1.647   2.260  22.375  0.00  0.00    +0.210 HD
ENDBRANCH  42  46
BRANCH  41  48
ATOM     48  O   UNL     1       2.706   5.666  20.854  0.00  0.00    -0.387 OA
ATOM     49  H   UNL     1       3.611   5.984  21.036  0.00  0.00    +0.210 HD
ENDBRANCH  41  48
ENDBRANCH  37  38
ENDBRANCH  32  37
BRANCH  29  50
ATOM     50  C   UNL     1       7.420   0.615  28.424  0.00  0.00    +0.190 C 
BRANCH  50  51
ATOM     51  O   UNL     1       7.901   1.604  29.325  0.00  0.00    -0.392 OA
ATOM     52  H   UNL     1       8.663   2.041  28.888  0.00  0.00    +0.210 HD
ENDBRANCH  50  51
ENDBRANCH  29  50
ENDBRANCH   1  27
TORSDOF 16
ENDMDL
MODEL 3
REMARK VINA RESULT:      -6.6      1.595      6.060
REMARK  Name = 
REMARK  17 active torsions:
REMARK  status: ('A' for Active; 'I' for Inactive)
REMARK    1  A    between atoms: C_1  and  O_2
REMARK    2  A    between atoms: O_2  and  C_3
REMARK    3  A    between atoms: C_4  and  O_49
REMARK    4  A    between atoms: C_7  and  C_9
REMARK    5  A    between atoms: C_10  and  O_22
REMARK    6  A    between atoms: C_14  and  O_21
REMARK    7  A    between atoms: C_16  and  O_20
REMARK    8  A    between atoms: O_22  and  C_23
REMARK    9  A    between atoms: C_25  and  O_36
REMARK   10  A    between atoms: C_26  and  O_35
REMARK   11  A    between atoms: C_28  and  O_34
REMARK   12  A    between atoms: C_30  and  C_32
REMARK   13  A    between atoms: C_32  and  O_33
REMARK   14  A    between atoms: O_36  and  C_37
REMARK   15  A    between atoms: C_39  and  O_48
REMARK   16  A    between atoms: C_40  and  O_47
REMARK   17  A    between atoms: C_42  and  O_46
REMARK                            x       y       z     vdW  Elec       q    Type
REMARK                         _______ _______ _______ _____ _____    ______ ____
ROOT
ATOM      1  O   UNL     1       6.742  -2.985  25.293  0.00  0.00    -0.453 OA
ENDROOT
BRANCH   1  12
ATOM      2  C   UNL     1       5.154  -2.667  27.220  0.00  0.00    +0.181 A 
ATOM      3  O   UNL     1       4.621  -1.838  28.227  0.00  0.00    -0.451 OA
ATOM      4  C   UNL     1       5.011  -0.532  28.356  0.00  0.00    +0.147 A 
ATOM      5  C   UNL     1       6.037  -0.009  27.608  0.00  0.00    +0.109 A 
ATOM      6  C   UNL     1       6.457   1.327  27.747  0.00  0.00    +0.135 A 
ATOM      7  C   UNL     1       5.858   2.139  28.689  0.00  0.00    +0.091 A 
ATOM      8  C   UNL     1       4.855   1.600  29.489  0.00  0.00    +0.124 A 
ATOM      9  C   UNL     1       6.795  -0.938  26.820  0.00  0.00    +0.238 A 
ATOM     10  O   UNL     1       7.962  -0.606  26.606  0.00  0.00    -0.283 OA
ATOM     11  C   UNL     1       4.411   0.282  29.319  0.00  0.00    +0.092 A 
ATOM     12  C   UNL     1       6.178  -2.256  26.392  0.00  0.00    +0.214 A 
BRANCH   2  15
ATOM     13  C   UNL     1       2.469  -5.364  27.392  0.00  0.00    +0.162 A 
ATOM     14  C   UNL     1       3.143  -4.168  27.128  0.00  0.00    +0.061 A 
ATOM     15  C   UNL     1       4.552  -4.043  27.288  0.00  0.00    +0.025 A 
ATOM     16  C   UNL     1       5.265  -5.216  27.577  0.00  0.00    +0.015 A 
ATOM     17  C   UNL     1       4.601  -6.436  27.803  0.00  0.00    +0.050 A 
ATOM     18  C   UNL     1       3.217  -6.488  27.739  0.00  0.00    +0.158 A 
BRANCH  18  19
ATOM     19  O   UNL     1       2.588  -7.661  28.063  0.00  0.00    -0.503 OA
ATOM     20  H   UNL     1       1.713  -7.399  28.412  0.00  0.00    +0.292 HD
ENDBRANCH  18  19
BRANCH  13  22
ATOM     21  C   UNL     1       0.537  -5.613  26.038  0.00  0.00    +0.277 C 
ATOM     22  O   UNL     1       1.110  -5.551  27.342  0.00  0.00    -0.491 OA
ENDBRANCH  13  22
ENDBRANCH   2  15
BRANCH   8  23
ATOM     23  O   UNL     1       4.293   2.345  30.485  0.00  0.00    -0.507 OA
ATOM     24  H   UNL     1       3.719   1.765  31.019  0.00  0.00    +0.292 HD
ENDBRANCH   8  23
BRANCH   6  25
ATOM     25  O   UNL     1       7.465   1.872  27.003  0.00  0.00    -0.506 OA
ATOM     26  H   UNL     1       8.318   1.546  27.372  0.00  0.00    +0.292 HD
ENDBRANCH   6  25
ENDBRANCH   1  12
BRANCH   1  27
ATOM     27  C   UNL     1       5.914  -2.896  24.097  0.00  0.00    +0.340 C 
ATOM     28  O   UNL     1       4.843  -3.853  24.158  0.00  0.00    -0.331 OA
ATOM     29  C   UNL     1       5.205  -5.154  23.678  0.00  0.00    +0.179 C 
ATOM     30  C   UNL     1       5.399  -5.045  22.160  0.00  0.00    +0.177 C 
ATOM     31  C   UNL     1       6.603  -4.127  21.902  0.00  0.00    +0.180 C 
ATOM     32  C   UNL     1       6.468  -2.782  22.642  0.00  0.00    +0.221 C 
BRANCH  31  33
ATOM     33  O   UNL     1       7.784  -4.862  22.255  0.00  0.00    -0.386 OA
ATOM     34  H   UNL     1       8.293  -5.038  21.442  0.00  0.00    +0.210 HD
ENDBRANCH  31  33
BRANCH  30  35
ATOM     35  O   UNL     1       5.613  -6.319  21.546  0.00  0.00    -0.386 OA
ATOM     36  H   UNL     1       6.428  -6.679  21.959  0.00  0.00    +0.210 HD
ENDBRANCH  30  35
BRANCH  32  37
ATOM     37  O   UNL     1       7.639  -1.992  22.418  0.00  0.00    -0.337 OA
BRANCH  37  38
ATOM     38  C   UNL     1       7.776  -0.794  23.212  0.00  0.00    +0.282 C 
ATOM     39  O   UNL     1       7.428   0.415  22.544  0.00  0.00    -0.346 OA
ATOM     40  C   UNL     1       8.342   0.927  21.563  0.00  0.00    +0.197 C 
ATOM     41  C   UNL     1       9.858   0.780  21.832  0.00  0.00    +0.171 C 
ATOM     42  C   UNL     1      10.180  -0.545  22.511  0.00  0.00    +0.178 C 
ATOM     43  C   UNL     1       9.231  -0.711  23.717  0.00  0.00    +0.201 C 
BRANCH  43  44
ATOM     44  O   UNL     1       9.590  -1.856  24.493  0.00  0.00    -0.384 OA
ATOM     45  H   UNL     1      10.556  -1.834  24.606  0.00  0.00    +0.210 HD
ENDBRANCH  43  44
BRANCH  42  46
ATOM     46  O   UNL     1      10.096  -1.591  21.536  0.00  0.00    -0.386 OA
ATOM     47  H   UNL     1       9.700  -1.213  20.726  0.00  0.00    +0.210 HD
ENDBRANCH  42  46
BRANCH  41  48
ATOM     48  O   UNL     1      10.330   1.854  22.654  0.00  0.00    -0.387 OA
ATOM     49  H   UNL     1      10.843   2.447  22.072  0.00  0.00    +0.210 HD
ENDBRANCH  41  48
ENDBRANCH  37  38
ENDBRANCH  32  37
BRANCH  29  50
ATOM     50  C   UNL     1       4.093  -6.137  24.071  0.00  0.00    +0.190 C 
BRANCH  50  51
ATOM     51  O   UNL     1       4.503  -7.497  24.021  0.00  0.00    -0.392 OA
ATOM     52  H   UNL     1       3.686  -8.040  23.993  0.00  0.00    +0.210 HD
ENDBRANCH  50  51
ENDBRANCH  29  50
ENDBRANCH   1  27
TORSDOF 16
ENDMDL
MODEL 4
REMARK VINA RESULT:      -6.5      1.856      6.428
REMARK  Name = 
REMARK  17 active torsions:
REMARK  status: ('A' for Active; 'I' for Inactive)
REMARK    1  A    between atoms: C_1  and  O_2
REMARK    2  A    between atoms: O_2  and  C_3
REMARK    3  A    between atoms: C_4  and  O_49
REMARK    4  A    between atoms: C_7  and  C_9
REMARK    5  A    between atoms: C_10  and  O_22
REMARK    6  A    between atoms: C_14  and  O_21
REMARK    7  A    between atoms: C_16  and  O_20
REMARK    8  A    between atoms: O_22  and  C_23
REMARK    9  A    between atoms: C_25  and  O_36
REMARK   10  A    between atoms: C_26  and  O_35
REMARK   11  A    between atoms: C_28  and  O_34
REMARK   12  A    between atoms: C_30  and  C_32
REMARK   13  A    between atoms: C_32  and  O_33
REMARK   14  A    between atoms: O_36  and  C_37
REMARK   15  A    between atoms: C_39  and  O_48
REMARK   16  A    between atoms: C_40  and  O_47
REMARK   17  A    between atoms: C_42  and  O_46
REMARK                            x       y       z     vdW  Elec       q    Type
REMARK                         _______ _______ _______ _____ _____    ______ ____
ROOT
ATOM      1  O   UNL     1       5.374  -1.520  25.372  0.00  0.00    -0.453 OA
ENDROOT
BRANCH   1  12
ATOM      2  C   UNL     1       6.986  -1.551  23.438  0.00  0.00    +0.181 A 
ATOM      3  O   UNL     1       7.981  -0.904  22.679  0.00  0.00    -0.451 OA
ATOM      4  C   UNL     1       8.447   0.336  23.025  0.00  0.00    +0.147 A 
ATOM      5  C   UNL     1       7.873   1.065  24.037  0.00  0.00    +0.109 A 
ATOM      6  C   UNL     1       8.334   2.348  24.387  0.00  0.00    +0.135 A 
ATOM      7  C   UNL     1       9.367   2.924  23.674  0.00  0.00    +0.091 A 
ATOM      8  C   UNL     1       9.917   2.213  22.611  0.00  0.00    +0.124 A 
ATOM      9  C   UNL     1       6.656   0.548  24.591  0.00  0.00    +0.238 A 
ATOM     10  O   UNL     1       5.896   1.396  25.062  0.00  0.00    -0.283 OA
ATOM     11  C   UNL     1       9.483   0.920  22.293  0.00  0.00    +0.092 A 
ATOM     12  C   UNL     1       6.341  -0.933  24.490  0.00  0.00    +0.214 A 
BRANCH   2  15
ATOM     13  C   UNL     1       4.955  -4.664  22.602  0.00  0.00    +0.162 A 
ATOM     14  C   UNL     1       5.314  -3.348  22.912  0.00  0.00    +0.061 A 
ATOM     15  C   UNL     1       6.663  -2.900  22.856  0.00  0.00    +0.025 A 
ATOM     16  C   UNL     1       7.609  -3.793  22.331  0.00  0.00    +0.015 A 
ATOM     17  C   UNL     1       7.252  -5.107  21.976  0.00  0.00    +0.050 A 
ATOM     18  C   UNL     1       5.944  -5.534  22.144  0.00  0.00    +0.158 A 
BRANCH  18  19
ATOM     19  O   UNL     1       5.642  -6.846  21.889  0.00  0.00    -0.503 OA
ATOM     20  H   UNL     1       5.607  -7.279  22.764  0.00  0.00    +0.292 HD
ENDBRANCH  18  19
BRANCH  13  22
ATOM     21  C   UNL     1       2.991  -4.911  23.909  0.00  0.00    +0.277 C 
ATOM     22  O   UNL     1       3.696  -5.201  22.704  0.00  0.00    -0.491 OA
ENDBRANCH  13  22
ENDBRANCH   2  15
BRANCH   8  23
ATOM     23  O   UNL     1      10.884   2.778  21.832  0.00  0.00    -0.507 OA
ATOM     24  H   UNL     1      11.629   2.153  21.762  0.00  0.00    +0.292 HD
ENDBRANCH   8  23
BRANCH   6  25
ATOM     25  O   UNL     1       7.787   3.086  25.399  0.00  0.00    -0.506 OA
ATOM     26  H   UNL     1       7.913   2.583  26.236  0.00  0.00    +0.292 HD
ENDBRANCH   6  25
ENDBRANCH   1  12
BRANCH   1  27
ATOM     27  C   UNL     1       5.969  -1.938  26.634  0.00  0.00    +0.340 C 
ATOM     28  O   UNL     1       6.981  -2.933  26.405  0.00  0.00    -0.331 OA
ATOM     29  C   UNL     1       6.468  -4.269  26.330  0.00  0.00    +0.179 C 
ATOM     30  C   UNL     1       6.002  -4.661  27.737  0.00  0.00    +0.177 C 
ATOM     31  C   UNL     1       4.821  -3.754  28.114  0.00  0.00    +0.180 C 
ATOM     32  C   UNL     1       5.161  -2.263  27.930  0.00  0.00    +0.221 C 
BRANCH  31  33
ATOM     33  O   UNL     1       3.689  -4.186  27.344  0.00  0.00    -0.386 OA
ATOM     34  H   UNL     1       3.819  -3.906  26.419  0.00  0.00    +0.210 HD
ENDBRANCH  31  33
BRANCH  30  35
ATOM     35  O   UNL     1       5.611  -6.035  27.818  0.00  0.00    -0.386 OA
ATOM     36  H   UNL     1       6.073  -6.397  28.605  0.00  0.00    +0.210 HD
ENDBRANCH  30  35
BRANCH  32  37
ATOM     37  O   UNL     1       4.012  -1.468  28.235  0.00  0.00    -0.337 OA
BRANCH  37  38
ATOM     38  C   UNL     1       4.249  -0.084  28.570  0.00  0.00    +0.282 C 
ATOM     39  O   UNL     1       4.089   0.239  29.948  0.00  0.00    -0.346 OA
ATOM     40  C   UNL     1       2.753   0.313  30.469  0.00  0.00    +0.197 C 
ATOM     41  C   UNL     1       1.648   0.900  29.560  0.00  0.00    +0.171 C 
ATOM     42  C   UNL     1       1.845   0.493  28.105  0.00  0.00    +0.178 C 
ATOM     43  C   UNL     1       3.309   0.790  27.716  0.00  0.00    +0.201 C 
BRANCH  43  44
ATOM     44  O   UNL     1       3.515   0.583  26.317  0.00  0.00    -0.384 OA
ATOM     45  H   UNL     1       2.654   0.701  25.880  0.00  0.00    +0.210 HD
ENDBRANCH  43  44
BRANCH  42  46
ATOM     46  O   UNL     1       1.453  -0.877  27.956  0.00  0.00    -0.386 OA
ATOM     47  H   UNL     1       2.253  -1.395  27.741  0.00  0.00    +0.210 HD
ENDBRANCH  42  46
BRANCH  41  48
ATOM     48  O   UNL     1       1.631   2.330  29.647  0.00  0.00    -0.387 OA
ATOM     49  H   UNL     1       1.971   2.560  30.533  0.00  0.00    +0.210 HD
ENDBRANCH  41  48
ENDBRANCH  37  38
ENDBRANCH  32  37
BRANCH  29  50
ATOM     50  C   UNL     1       7.581  -5.180  25.792  0.00  0.00    +0.190 C 
BRANCH  50  51
ATOM     51  O   UNL     1       8.273  -5.883  26.815  0.00  0.00    -0.392 OA
ATOM     52  H   UNL     1       7.593  -6.239  27.426  0.00  0.00    +0.210 HD
ENDBRANCH  50  51
ENDBRANCH  29  50
ENDBRANCH   1  27
TORSDOF 16
ENDMDL
MODEL 5
REMARK VINA RESULT:      -6.5      1.889      6.334
REMARK  Name = 
REMARK  17 active torsions:
REMARK  status: ('A' for Active; 'I' for Inactive)
REMARK    1  A    between atoms: C_1  and  O_2
REMARK    2  A    between atoms: O_2  and  C_3
REMARK    3  A    between atoms: C_4  and  O_49
REMARK    4  A    between atoms: C_7  and  C_9
REMARK    5  A    between atoms: C_10  and  O_22
REMARK    6  A    between atoms: C_14  and  O_21
REMARK    7  A    between atoms: C_16  and  O_20
REMARK    8  A    between atoms: O_22  and  C_23
REMARK    9  A    between atoms: C_25  and  O_36
REMARK   10  A    between atoms: C_26  and  O_35
REMARK   11  A    between atoms: C_28  and  O_34
REMARK   12  A    between atoms: C_30  and  C_32
REMARK   13  A    between atoms: C_32  and  O_33
REMARK   14  A    between atoms: O_36  and  C_37
REMARK   15  A    between atoms: C_39  and  O_48
REMARK   16  A    between atoms: C_40  and  O_47
REMARK   17  A    between atoms: C_42  and  O_46
REMARK                            x       y       z     vdW  Elec       q    Type
REMARK                         _______ _______ _______ _____ _____    ______ ____
ROOT
ATOM      1  O   UNL     1       6.162  -2.040  25.192  0.00  0.00    -0.453 OA
ENDROOT
BRANCH   1  12
ATOM      2  C   UNL     1       4.580  -2.046  27.151  0.00  0.00    +0.181 A 
ATOM      3  O   UNL     1       3.654  -1.362  27.963  0.00  0.00    -0.451 OA
ATOM      4  C   UNL     1       3.289  -0.070  27.695  0.00  0.00    +0.147 A 
ATOM      5  C   UNL     1       3.908   0.665  26.713  0.00  0.00    +0.109 A 
ATOM      6  C   UNL     1       3.553   2.000  26.444  0.00  0.00    +0.135 A 
ATOM      7  C   UNL     1       2.582   2.618  27.206  0.00  0.00    +0.091 A 
ATOM      8  C   UNL     1       1.989   1.897  28.238  0.00  0.00    +0.124 A 
ATOM      9  C   UNL     1       5.070   0.080  26.110  0.00  0.00    +0.238 A 
ATOM     10  O   UNL     1       5.892   0.887  25.672  0.00  0.00    -0.283 OA
ATOM     11  C   UNL     1       2.316   0.556  28.477  0.00  0.00    +0.092 A 
ATOM     12  C   UNL     1       5.260  -1.425  26.123  0.00  0.00    +0.214 A 
BRANCH   2  15
ATOM     13  C   UNL     1       6.346  -5.366  27.762  0.00  0.00    +0.162 A 
ATOM     14  C   UNL     1       6.098  -4.009  27.533  0.00  0.00    +0.061 A 
ATOM     15  C   UNL     1       4.795  -3.447  27.651  0.00  0.00    +0.025 A 
ATOM     16  C   UNL     1       3.787  -4.282  28.157  0.00  0.00    +0.015 A 
ATOM     17  C   UNL     1       4.035  -5.640  28.432  0.00  0.00    +0.050 A 
ATOM     18  C   UNL     1       5.295  -6.169  28.204  0.00  0.00    +0.158 A 
BRANCH  18  19
ATOM     19  O   UNL     1       5.485  -7.514  28.380  0.00  0.00    -0.503 OA
ATOM     20  H   UNL     1       5.569  -7.886  27.480  0.00  0.00    +0.292 HD
ENDBRANCH  18  19
BRANCH  13  22
ATOM     21  C   UNL     1       8.467  -5.380  26.700  0.00  0.00    +0.277 C 
ATOM     22  O   UNL     1       7.549  -6.004  27.595  0.00  0.00    -0.491 OA
ENDBRANCH  13  22
ENDBRANCH   2  15
BRANCH   8  23
ATOM     23  O   UNL     1       1.084   2.496  29.065  0.00  0.00    -0.507 OA
ATOM     24  H   UNL     1       0.202   2.438  28.652  0.00  0.00    +0.292 HD
ENDBRANCH   8  23
BRANCH   6  25
ATOM     25  O   UNL     1       4.146   2.745  25.464  0.00  0.00    -0.506 OA
ATOM     26  H   UNL     1       4.681   2.135  24.907  0.00  0.00    +0.292 HD
ENDBRANCH   6  25
ENDBRANCH   1  12
BRANCH   1  27
ATOM     27  C   UNL     1       5.501  -2.390  23.942  0.00  0.00    +0.340 C 
ATOM     28  O   UNL     1       4.534  -3.431  24.161  0.00  0.00    -0.331 OA
ATOM     29  C   UNL     1       5.087  -4.752  24.112  0.00  0.00    +0.179 C 
ATOM     30  C   UNL     1       5.476  -5.031  22.655  0.00  0.00    +0.177 C 
ATOM     31  C   UNL     1       6.606  -4.064  22.272  0.00  0.00    +0.180 C 
ATOM     32  C   UNL     1       6.236  -2.600  22.580  0.00  0.00    +0.221 C 
BRANCH  31  33
ATOM     33  O   UNL     1       7.795  -4.510  22.941  0.00  0.00    -0.386 OA
ATOM     34  H   UNL     1       7.533  -5.067  23.697  0.00  0.00    +0.210 HD
ENDBRANCH  31  33
BRANCH  30  35
ATOM     35  O   UNL     1       5.899  -6.383  22.455  0.00  0.00    -0.386 OA
ATOM     36  H   UNL     1       5.076  -6.901  22.315  0.00  0.00    +0.210 HD
ENDBRANCH  30  35
BRANCH  32  37
ATOM     37  O   UNL     1       7.341  -1.750  22.263  0.00  0.00    -0.337 OA
BRANCH  37  38
ATOM     38  C   UNL     1       7.573  -0.629  23.144  0.00  0.00    +0.282 C 
ATOM     39  O   UNL     1       7.418   0.653  22.543  0.00  0.00    -0.346 OA
ATOM     40  C   UNL     1       8.448   1.105  21.652  0.00  0.00    +0.197 C 
ATOM     41  C   UNL     1       9.915   0.752  21.994  0.00  0.00    +0.171 C 
ATOM     42  C   UNL     1      10.028  -0.643  22.597  0.00  0.00    +0.178 C 
ATOM     43  C   UNL     1       8.991  -0.761  23.734  0.00  0.00    +0.201 C 
BRANCH  43  44
ATOM     44  O   UNL     1       9.158  -1.988  24.448  0.00  0.00    -0.384 OA
ATOM     45  H   UNL     1       8.272  -2.290  24.711  0.00  0.00    +0.210 HD
ENDBRANCH  43  44
BRANCH  42  46
ATOM     46  O   UNL     1       9.880  -1.608  21.549  0.00  0.00    -0.386 OA
ATOM     47  H   UNL     1       9.049  -1.408  21.074  0.00  0.00    +0.210 HD
ENDBRANCH  42  46
BRANCH  41  48
ATOM     48  O   UNL     1      10.461   1.706  22.913  0.00  0.00    -0.387 OA
ATOM     49  H   UNL     1      10.252   1.380  23.810  0.00  0.00    +0.210 HD
ENDBRANCH  41  48
ENDBRANCH  37  38
ENDBRANCH  32  37
BRANCH  29  50
ATOM     50  C   UNL     1       4.036  -5.732  24.651  0.00  0.00    +0.190 C 
BRANCH  50  51
ATOM     51  O   UNL     1       4.553  -7.034  24.889  0.00  0.00    -0.392 OA
ATOM     52  H   UNL     1       5.188  -6.957  25.633  0.00  0.00    +0.210 HD
ENDBRANCH  50  51
ENDBRANCH  29  50
ENDBRANCH   1  27
TORSDOF 16
ENDMDL
MODEL 6
REMARK VINA RESULT:      -6.3      1.673      6.656
REMARK  Name = 
REMARK  17 active torsions:
REMARK  status: ('A' for Active; 'I' for Inactive)
REMARK    1  A    between atoms: C_1  and  O_2
REMARK    2  A    between atoms: O_2  and  C_3
REMARK    3  A    between atoms: C_4  and  O_49
REMARK    4  A    between atoms: C_7  and  C_9
REMARK    5  A    between atoms: C_10  and  O_22
REMARK    6  A    between atoms: C_14  and  O_21
REMARK    7  A    between atoms: C_16  and  O_20
REMARK    8  A    between atoms: O_22  and  C_23
REMARK    9  A    between atoms: C_25  and  O_36
REMARK   10  A    between atoms: C_26  and  O_35
REMARK   11  A    between atoms: C_28  and  O_34
REMARK   12  A    between atoms: C_30  and  C_32
REMARK   13  A    between atoms: C_32  and  O_33
REMARK   14  A    between atoms: O_36  and  C_37
REMARK   15  A    between atoms: C_39  and  O_48
REMARK   16  A    between atoms: C_40  and  O_47
REMARK   17  A    between atoms: C_42  and  O_46
REMARK                            x       y       z     vdW  Elec       q    Type
REMARK                         _______ _______ _______ _____ _____    ______ ____
ROOT
ATOM      1  O   UNL     1       6.868  -2.495  25.929  0.00  0.00    -0.453 OA
ENDROOT
BRANCH   1  12
ATOM      2  C   UNL     1       4.956  -2.124  27.525  0.00  0.00    +0.181 A 
ATOM      3  O   UNL     1       4.258  -1.270  28.401  0.00  0.00    -0.451 OA
ATOM      4  C   UNL     1       4.634   0.034  28.576  0.00  0.00    +0.147 A 
ATOM      5  C   UNL     1       5.787   0.533  28.020  0.00  0.00    +0.109 A 
ATOM      6  C   UNL     1       6.190   1.867  28.210  0.00  0.00    +0.135 A 
ATOM      7  C   UNL     1       5.439   2.704  29.011  0.00  0.00    +0.091 A 
ATOM      8  C   UNL     1       4.299   2.190  29.623  0.00  0.00    +0.124 A 
ATOM      9  C   UNL     1       6.665  -0.418  27.403  0.00  0.00    +0.238 A 
ATOM     10  O   UNL     1       7.856  -0.102  27.401  0.00  0.00    -0.283 OA
ATOM     11  C   UNL     1       3.878   0.873  29.398  0.00  0.00    +0.092 A 
ATOM     12  C   UNL     1       6.121  -1.739  26.893  0.00  0.00    +0.214 A 
BRANCH   2  15
ATOM     13  C   UNL     1       4.614  -5.876  28.088  0.00  0.00    +0.162 A 
ATOM     14  C   UNL     1       4.985  -4.535  28.225  0.00  0.00    +0.061 A 
ATOM     15  C   UNL     1       4.336  -3.493  27.505  0.00  0.00    +0.025 A 
ATOM     16  C   UNL     1       3.200  -3.847  26.761  0.00  0.00    +0.015 A 
ATOM     17  C   UNL     1       2.791  -5.189  26.650  0.00  0.00    +0.050 A 
ATOM     18  C   UNL     1       3.516  -6.185  27.286  0.00  0.00    +0.158 A 
BRANCH  18  19
ATOM     19  O   UNL     1       3.160  -7.491  27.080  0.00  0.00    -0.503 OA
ATOM     20  H   UNL     1       2.522  -7.474  26.339  0.00  0.00    +0.292 HD
ENDBRANCH  18  19
BRANCH  13  22
ATOM     21  C   UNL     1       6.390  -6.648  29.459  0.00  0.00    +0.277 C 
ATOM     22  O   UNL     1       5.234  -6.948  28.680  0.00  0.00    -0.491 OA
ENDBRANCH  13  22
ENDBRANCH   2  15
BRANCH   8  23
ATOM     23  O   UNL     1       3.573   2.960  30.484  0.00  0.00    -0.507 OA
ATOM     24  H   UNL     1       4.057   3.019  31.329  0.00  0.00    +0.292 HD
ENDBRANCH   8  23
BRANCH   6  25
ATOM     25  O   UNL     1       7.326   2.388  27.656  0.00  0.00    -0.506 OA
ATOM     26  H   UNL     1       7.680   3.063  28.279  0.00  0.00    +0.292 HD
ENDBRANCH   6  25
ENDBRANCH   1  12
BRANCH   1  27
ATOM     27  C   UNL     1       6.320  -2.360  24.586  0.00  0.00    +0.340 C 
ATOM     28  O   UNL     1       5.568  -3.533  24.233  0.00  0.00    -0.331 OA
ATOM     29  C   UNL     1       6.368  -4.587  23.683  0.00  0.00    +0.179 C 
ATOM     30  C   UNL     1       6.840  -4.129  22.297  0.00  0.00    +0.177 C 
ATOM     31  C   UNL     1       7.770  -2.922  22.490  0.00  0.00    +0.180 C 
ATOM     32  C   UNL     1       7.116  -1.825  23.353  0.00  0.00    +0.221 C 
BRANCH  31  33
ATOM     33  O   UNL     1       9.006  -3.417  23.027  0.00  0.00    -0.386 OA
ATOM     34  H   UNL     1       9.727  -2.829  22.735  0.00  0.00    +0.210 HD
ENDBRANCH  31  33
BRANCH  30  35
ATOM     35  O   UNL     1       7.522  -5.165  21.585  0.00  0.00    -0.386 OA
ATOM     36  H   UNL     1       7.344  -5.992  22.085  0.00  0.00    +0.210 HD
ENDBRANCH  30  35
BRANCH  32  37
ATOM     37  O   UNL     1       8.043  -0.755  23.553  0.00  0.00    -0.337 OA
BRANCH  37  38
ATOM     38  C   UNL     1       7.798   0.463  22.817  0.00  0.00    +0.282 C 
ATOM     39  O   UNL     1       8.739   0.745  21.786  0.00  0.00    -0.346 OA
ATOM     40  C   UNL     1      10.041   1.209  22.174  0.00  0.00    +0.197 C 
ATOM     41  C   UNL     1      10.142   2.163  23.387  0.00  0.00    +0.171 C 
ATOM     42  C   UNL     1       9.142   1.794  24.475  0.00  0.00    +0.178 C 
ATOM     43  C   UNL     1       7.754   1.634  23.819  0.00  0.00    +0.201 C 
BRANCH  43  44
ATOM     44  O   UNL     1       6.742   1.449  24.811  0.00  0.00    -0.384 OA
ATOM     45  H   UNL     1       6.786   2.213  25.411  0.00  0.00    +0.210 HD
ENDBRANCH  43  44
BRANCH  42  46
ATOM     46  O   UNL     1       9.619   0.628  25.158  0.00  0.00    -0.386 OA
ATOM     47  H   UNL     1       8.882   0.273  25.692  0.00  0.00    +0.210 HD
ENDBRANCH  42  46
BRANCH  41  48
ATOM     48  O   UNL     1       9.914   3.518  22.981  0.00  0.00    -0.387 OA
ATOM     49  H   UNL     1      10.668   3.771  22.415  0.00  0.00    +0.210 HD
ENDBRANCH  41  48
ENDBRANCH  37  38
ENDBRANCH  32  37
BRANCH  29  50
ATOM     50  C   UNL     1       5.513  -5.862  23.633  0.00  0.00    +0.190 C 
BRANCH  50  51
ATOM     51  O   UNL     1       4.971  -6.124  22.345  0.00  0.00    -0.392 OA
ATOM     52  H   UNL     1       5.692  -6.517  21.808  0.00  0.00    +0.210 HD
ENDBRANCH  50  51
ENDBRANCH  29  50
ENDBRANCH   1  27
TORSDOF 16
ENDMDL
MODEL 7
REMARK VINA RESULT:      -6.3      2.995      8.510
REMARK  Name = 
REMARK  17 active torsions:
REMARK  status: ('A' for Active; 'I' for Inactive)
REMARK    1  A    between atoms: C_1  and  O_2
REMARK    2  A    between atoms: O_2  and  C_3
REMARK    3  A    between atoms: C_4  and  O_49
REMARK    4  A    between atoms: C_7  and  C_9
REMARK    5  A    between atoms: C_10  and  O_22
REMARK    6  A    between atoms: C_14  and  O_21
REMARK    7  A    between atoms: C_16  and  O_20
REMARK    8  A    between atoms: O_22  and  C_23
REMARK    9  A    between atoms: C_25  and  O_36
REMARK   10  A    between atoms: C_26  and  O_35
REMARK   11  A    between atoms: C_28  and  O_34
REMARK   12  A    between atoms: C_30  and  C_32
REMARK   13  A    between atoms: C_32  and  O_33
REMARK   14  A    between atoms: O_36  and  C_37
REMARK   15  A    between atoms: C_39  and  O_48
REMARK   16  A    between atoms: C_40  and  O_47
REMARK   17  A    between atoms: C_42  and  O_46
REMARK                            x       y       z     vdW  Elec       q    Type
REMARK                         _______ _______ _______ _____ _____    ______ ____
ROOT
ATOM      1  O   UNL     1       7.114   0.179  25.310  0.00  0.00    -0.453 OA
ENDROOT
BRANCH   1  12
ATOM      2  C   UNL     1       6.055  -1.966  26.095  0.00  0.00    +0.181 A 
ATOM      3  O   UNL     1       4.958  -2.635  26.672  0.00  0.00    -0.451 OA
ATOM      4  C   UNL     1       3.811  -1.967  27.006  0.00  0.00    +0.147 A 
ATOM      5  C   UNL     1       3.725  -0.599  26.928  0.00  0.00    +0.109 A 
ATOM      6  C   UNL     1       2.556   0.097  27.287  0.00  0.00    +0.135 A 
ATOM      7  C   UNL     1       1.466  -0.597  27.773  0.00  0.00    +0.091 A 
ATOM      8  C   UNL     1       1.566  -1.979  27.907  0.00  0.00    +0.124 A 
ATOM      9  C   UNL     1       4.944   0.106  26.655  0.00  0.00    +0.238 A 
ATOM     10  O   UNL     1       4.992   1.254  27.101  0.00  0.00    -0.283 OA
ATOM     11  C   UNL     1       2.716  -2.672  27.510  0.00  0.00    +0.092 A 
ATOM     12  C   UNL     1       6.088  -0.594  25.947  0.00  0.00    +0.214 A 
BRANCH   2  15
ATOM     13  C   UNL     1       8.063  -4.649  24.282  0.00  0.00    +0.162 A 
ATOM     14  C   UNL     1       7.196  -3.585  24.552  0.00  0.00    +0.061 A 
ATOM     15  C   UNL     1       7.178  -2.925  25.813  0.00  0.00    +0.025 A 
ATOM     16  C   UNL     1       8.175  -3.284  26.732  0.00  0.00    +0.015 A 
ATOM     17  C   UNL     1       9.081  -4.326  26.455  0.00  0.00    +0.050 A 
ATOM     18  C   UNL     1       8.995  -5.011  25.254  0.00  0.00    +0.158 A 
BRANCH  18  19
ATOM     19  O   UNL     1       9.819  -6.086  25.049  0.00  0.00    -0.503 OA
ATOM     20  H   UNL     1       9.263  -6.874  25.208  0.00  0.00    +0.292 HD
ENDBRANCH  18  19
BRANCH  13  22
ATOM     21  C   UNL     1       6.824  -5.727  22.570  0.00  0.00    +0.277 C 
ATOM     22  O   UNL     1       8.093  -5.391  23.128  0.00  0.00    -0.491 OA
ENDBRANCH  13  22
ENDBRANCH   2  15
BRANCH   8  23
ATOM     23  O   UNL     1       0.541  -2.692  28.459  0.00  0.00    -0.507 OA
ATOM     24  H   UNL     1      -0.286  -2.190  28.337  0.00  0.00    +0.292 HD
ENDBRANCH   8  23
BRANCH   6  25
ATOM     25  O   UNL     1       2.443   1.457  27.204  0.00  0.00    -0.506 OA
ATOM     26  H   UNL     1       2.835   1.737  26.345  0.00  0.00    +0.292 HD
ENDBRANCH   6  25
ENDBRANCH   1  12
BRANCH   1  27
ATOM     27  C   UNL     1       6.936   0.237  23.865  0.00  0.00    +0.340 C 
ATOM     28  O   UNL     1       7.954  -0.532  23.203  0.00  0.00    -0.331 OA
ATOM     29  C   UNL     1       9.167   0.194  22.973  0.00  0.00    +0.179 C 
ATOM     30  C   UNL     1       8.872   1.250  21.901  0.00  0.00    +0.177 C 
ATOM     31  C   UNL     1       7.862   2.249  22.485  0.00  0.00    +0.180 C 
ATOM     32  C   UNL     1       6.622   1.539  23.062  0.00  0.00    +0.221 C 
BRANCH  31  33
ATOM     33  O   UNL     1       8.564   3.053  23.445  0.00  0.00    -0.386 OA
ATOM     34  H   UNL     1       8.016   3.125  24.248  0.00  0.00    +0.210 HD
ENDBRANCH  31  33
BRANCH  30  35
ATOM     35  O   UNL     1      10.053   1.938  21.476  0.00  0.00    -0.386 OA
ATOM     36  H   UNL     1      10.788   1.297  21.588  0.00  0.00    +0.210 HD
ENDBRANCH  30  35
BRANCH  32  37
ATOM     37  O   UNL     1       5.745   2.506  23.646  0.00  0.00    -0.337 OA
BRANCH  37  38
ATOM     38  C   UNL     1       5.354   3.617  22.812  0.00  0.00    +0.282 C 
ATOM     39  O   UNL     1       6.053   4.833  23.060  0.00  0.00    -0.346 OA
ATOM     40  C   UNL     1       5.718   5.570  24.246  0.00  0.00    +0.197 C 
ATOM     41  C   UNL     1       4.236   5.602  24.689  0.00  0.00    +0.171 C 
ATOM     42  C   UNL     1       3.547   4.267  24.438  0.00  0.00    +0.178 C 
ATOM     43  C   UNL     1       3.838   3.842  22.982  0.00  0.00    +0.201 C 
BRANCH  43  44
ATOM     44  O   UNL     1       3.085   2.679  22.632  0.00  0.00    -0.384 OA
ATOM     45  H   UNL     1       2.538   2.449  23.403  0.00  0.00    +0.210 HD
ENDBRANCH  43  44
BRANCH  42  46
ATOM     46  O   UNL     1       3.984   3.333  25.432  0.00  0.00    -0.386 OA
ATOM     47  H   UNL     1       3.225   3.143  26.017  0.00  0.00    +0.210 HD
ENDBRANCH  42  46
BRANCH  41  48
ATOM     48  O   UNL     1       3.525   6.634  23.994  0.00  0.00    -0.387 OA
ATOM     49  H   UNL     1       3.630   6.452  23.040  0.00  0.00    +0.210 HD
ENDBRANCH  41  48
ENDBRANCH  37  38
ENDBRANCH  32  37
BRANCH  29  50
ATOM     50  C   UNL     1      10.252  -0.806  22.547  0.00  0.00    +0.190 C 
BRANCH  50  51
ATOM     51  O   UNL     1      10.004  -1.394  21.278  0.00  0.00    -0.392 OA
ATOM     52  H   UNL     1      10.111  -0.685  20.609  0.00  0.00    +0.210 HD
ENDBRANCH  50  51
ENDBRANCH  29  50
ENDBRANCH   1  27
TORSDOF 16
ENDMDL
MODEL 8
REMARK VINA RESULT:      -6.2      2.654      6.903
REMARK  Name = 
REMARK  17 active torsions:
REMARK  status: ('A' for Active; 'I' for Inactive)
REMARK    1  A    between atoms: C_1  and  O_2
REMARK    2  A    between atoms: O_2  and  C_3
REMARK    3  A    between atoms: C_4  and  O_49
REMARK    4  A    between atoms: C_7  and  C_9
REMARK    5  A    between atoms: C_10  and  O_22
REMARK    6  A    between atoms: C_14  and  O_21
REMARK    7  A    between atoms: C_16  and  O_20
REMARK    8  A    between atoms: O_22  and  C_23
REMARK    9  A    between atoms: C_25  and  O_36
REMARK   10  A    between atoms: C_26  and  O_35
REMARK   11  A    between atoms: C_28  and  O_34
REMARK   12  A    between atoms: C_30  and  C_32
REMARK   13  A    between atoms: C_32  and  O_33
REMARK   14  A    between atoms: O_36  and  C_37
REMARK   15  A    between atoms: C_39  and  O_48
REMARK   16  A    between atoms: C_40  and  O_47
REMARK   17  A    between atoms: C_42  and  O_46
REMARK                            x       y       z     vdW  Elec       q    Type
REMARK                         _______ _______ _______ _____ _____    ______ ____
ROOT
ATOM      1  O   UNL     1       5.253   0.324  24.763  0.00  0.00    -0.453 OA
ENDROOT
BRANCH   1  12
ATOM      2  C   UNL     1       7.622  -0.076  24.011  0.00  0.00    +0.181 A 
ATOM      3  O   UNL     1       8.892   0.438  23.683  0.00  0.00    -0.451 OA
ATOM      4  C   UNL     1       9.172   1.773  23.794  0.00  0.00    +0.147 A 
ATOM      5  C   UNL     1       8.195   2.691  24.092  0.00  0.00    +0.109 A 
ATOM      6  C   UNL     1       8.469   4.068  24.190  0.00  0.00    +0.135 A 
ATOM      7  C   UNL     1       9.745   4.532  23.941  0.00  0.00    +0.091 A 
ATOM      8  C   UNL     1      10.728   3.614  23.584  0.00  0.00    +0.124 A 
ATOM      9  C   UNL     1       6.843   2.211  24.103  0.00  0.00    +0.238 A 
ATOM     10  O   UNL     1       5.988   3.056  23.834  0.00  0.00    -0.283 OA
ATOM     11  C   UNL     1      10.461   2.240  23.528  0.00  0.00    +0.092 A 
ATOM     12  C   UNL     1       6.559   0.740  24.341  0.00  0.00    +0.214 A 
BRANCH   2  15
ATOM     13  C   UNL     1       8.779  -3.704  24.119  0.00  0.00    +0.162 A 
ATOM     14  C   UNL     1       8.603  -2.350  24.421  0.00  0.00    +0.061 A 
ATOM     15  C   UNL     1       7.582  -1.566  23.815  0.00  0.00    +0.025 A 
ATOM     16  C   UNL     1       6.654  -2.244  23.010  0.00  0.00    +0.015 A 
ATOM     17  C   UNL     1       6.796  -3.616  22.732  0.00  0.00    +0.050 A 
ATOM     18  C   UNL     1       7.867  -4.319  23.261  0.00  0.00    +0.158 A 
BRANCH  18  19
ATOM     19  O   UNL     1       8.041  -5.627  22.894  0.00  0.00    -0.503 OA
ATOM     20  H   UNL     1       7.757  -5.675  21.960  0.00  0.00    +0.292 HD
ENDBRANCH  18  19
BRANCH  13  22
ATOM     21  C   UNL     1       9.649  -4.942  25.946  0.00  0.00    +0.277 C 
ATOM     22  O   UNL     1       9.782  -4.513  24.593  0.00  0.00    -0.491 OA
ENDBRANCH  13  22
ENDBRANCH   2  15
BRANCH   8  23
ATOM     23  O   UNL     1      11.981   4.040  23.252  0.00  0.00    -0.507 OA
ATOM     24  H   UNL     1      11.964   4.365  22.333  0.00  0.00    +0.292 HD
ENDBRANCH   8  23
BRANCH   6  25
ATOM     25  O   UNL     1       7.516   4.998  24.499  0.00  0.00    -0.506 OA
ATOM     26  H   UNL     1       7.233   5.425  23.659  0.00  0.00    +0.292 HD
ENDBRANCH   6  25
ENDBRANCH   1  12
BRANCH   1  27
ATOM     27  C   UNL     1       5.145   0.251  26.214  0.00  0.00    +0.340 C 
ATOM     28  O   UNL     1       5.959  -0.819  26.724  0.00  0.00    -0.331 OA
ATOM     29  C   UNL     1       5.303  -2.093  26.720  0.00  0.00    +0.179 C 
ATOM     30  C   UNL     1       4.202  -2.045  27.787  0.00  0.00    +0.177 C 
ATOM     31  C   UNL     1       3.158  -1.009  27.344  0.00  0.00    +0.180 C 
ATOM     32  C   UNL     1       3.804   0.349  27.009  0.00  0.00    +0.221 C 
BRANCH  31  33
ATOM     33  O   UNL     1       2.426  -1.583  26.251  0.00  0.00    -0.386 OA
ATOM     34  H   UNL     1       1.647  -1.024  26.073  0.00  0.00    +0.210 HD
ENDBRANCH  31  33
BRANCH  30  35
ATOM     35  O   UNL     1       3.578  -3.318  27.983  0.00  0.00    -0.386 OA
ATOM     36  H   UNL     1       3.638  -3.778  27.117  0.00  0.00    +0.210 HD
ENDBRANCH  30  35
BRANCH  32  37
ATOM     37  O   UNL     1       2.801   1.256  26.545  0.00  0.00    -0.337 OA
BRANCH  37  38
ATOM     38  C   UNL     1       3.178   2.646  26.441  0.00  0.00    +0.282 C 
ATOM     39  O   UNL     1       2.678   3.486  27.476  0.00  0.00    -0.346 OA
ATOM     40  C   UNL     1       1.285   3.833  27.443  0.00  0.00    +0.197 C 
ATOM     41  C   UNL     1       0.628   4.085  26.066  0.00  0.00    +0.171 C 
ATOM     42  C   UNL     1       1.171   3.134  25.005  0.00  0.00    +0.178 C 
ATOM     43  C   UNL     1       2.713   3.173  25.069  0.00  0.00    +0.201 C 
BRANCH  43  44
ATOM     44  O   UNL     1       3.284   2.429  23.990  0.00  0.00    -0.384 OA
ATOM     45  H   UNL     1       2.865   2.744  23.171  0.00  0.00    +0.210 HD
ENDBRANCH  43  44
BRANCH  42  46
ATOM     46  O   UNL     1       0.596   1.839  25.214  0.00  0.00    -0.386 OA
ATOM     47  H   UNL     1      -0.375   1.945  25.241  0.00  0.00    +0.210 HD
ENDBRANCH  42  46
BRANCH  41  48
ATOM     48  O   UNL     1       0.849   5.435  25.642  0.00  0.00    -0.387 OA
ATOM     49  H   UNL     1       1.420   5.850  26.317  0.00  0.00    +0.210 HD
ENDBRANCH  41  48
ENDBRANCH  37  38
ENDBRANCH  32  37
BRANCH  29  50
ATOM     50  C   UNL     1       6.357  -3.175  26.995  0.00  0.00    +0.190 C 
BRANCH  50  51
ATOM     51  O   UNL     1       6.053  -4.423  26.386  0.00  0.00    -0.392 OA
ATOM     52  H   UNL     1       6.345  -5.123  27.008  0.00  0.00    +0.210 HD
ENDBRANCH  50  51
ENDBRANCH  29  50
ENDBRANCH   1  27
TORSDOF 16
ENDMDL
MODEL 9
REMARK VINA RESULT:      -6.2      1.948      6.680
REMARK  Name = 
REMARK  17 active torsions:
REMARK  status: ('A' for Active; 'I' for Inactive)
REMARK    1  A    between atoms: C_1  and  O_2
REMARK    2  A    between atoms: O_2  and  C_3
REMARK    3  A    between atoms: C_4  and  O_49
REMARK    4  A    between atoms: C_7  and  C_9
REMARK    5  A    between atoms: C_10  and  O_22
REMARK    6  A    between atoms: C_14  and  O_21
REMARK    7  A    between atoms: C_16  and  O_20
REMARK    8  A    between atoms: O_22  and  C_23
REMARK    9  A    between atoms: C_25  and  O_36
REMARK   10  A    between atoms: C_26  and  O_35
REMARK   11  A    between atoms: C_28  and  O_34
REMARK   12  A    between atoms: C_30  and  C_32
REMARK   13  A    between atoms: C_32  and  O_33
REMARK   14  A    between atoms: O_36  and  C_37
REMARK   15  A    between atoms: C_39  and  O_48
REMARK   16  A    between atoms: C_40  and  O_47
REMARK   17  A    between atoms: C_42  and  O_46
REMARK                            x       y       z     vdW  Elec       q    Type
REMARK                         _______ _______ _______ _____ _____    ______ ____
ROOT
ATOM      1  O   UNL     1       4.969  -1.166  25.296  0.00  0.00    -0.453 OA
ENDROOT
BRANCH   1  12
ATOM      2  C   UNL     1       6.761  -1.560  23.572  0.00  0.00    +0.181 A 
ATOM      3  O   UNL     1       7.819  -1.060  22.788  0.00  0.00    -0.451 OA
ATOM      4  C   UNL     1       8.241   0.237  22.904  0.00  0.00    +0.147 A 
ATOM      5  C   UNL     1       7.567   1.148  23.680  0.00  0.00    +0.109 A 
ATOM      6  C   UNL     1       7.982   2.488  23.790  0.00  0.00    +0.135 A 
ATOM      7  C   UNL     1       9.075   2.928  23.070  0.00  0.00    +0.091 A 
ATOM      8  C   UNL     1       9.730   2.024  22.238  0.00  0.00    +0.124 A 
ATOM      9  C   UNL     1       6.305   0.725  24.216  0.00  0.00    +0.238 A 
ATOM     10  O   UNL     1       5.498   1.632  24.423  0.00  0.00    -0.283 OA
ATOM     11  C   UNL     1       9.338   0.681  22.163  0.00  0.00    +0.092 A 
ATOM     12  C   UNL     1       6.012  -0.752  24.403  0.00  0.00    +0.214 A 
BRANCH   2  15
ATOM     13  C   UNL     1       4.798  -4.755  22.898  0.00  0.00    +0.162 A 
ATOM     14  C   UNL     1       5.170  -3.409  22.978  0.00  0.00    +0.061 A 
ATOM     15  C   UNL     1       6.505  -3.009  23.263  0.00  0.00    +0.025 A 
ATOM     16  C   UNL     1       7.475  -4.022  23.311  0.00  0.00    +0.015 A 
ATOM     17  C   UNL     1       7.119  -5.378  23.190  0.00  0.00    +0.050 A 
ATOM     18  C   UNL     1       5.789  -5.728  23.016  0.00  0.00    +0.158 A 
BRANCH  18  19
ATOM     19  O   UNL     1       5.455  -7.056  23.004  0.00  0.00    -0.503 OA
ATOM     20  H   UNL     1       5.086  -7.240  23.890  0.00  0.00    +0.292 HD
ENDBRANCH  18  19
BRANCH  13  22
ATOM     21  C   UNL     1       2.611  -5.010  23.781  0.00  0.00    +0.277 C 
ATOM     22  O   UNL     1       3.523  -5.229  22.708  0.00  0.00    -0.491 OA
ENDBRANCH  13  22
ENDBRANCH   2  15
BRANCH   8  23
ATOM     23  O   UNL     1      10.764   2.439  21.450  0.00  0.00    -0.507 OA
ATOM     24  H   UNL     1      10.395   2.828  20.636  0.00  0.00    +0.292 HD
ENDBRANCH   8  23
BRANCH   6  25
ATOM     25  O   UNL     1       7.335   3.407  24.567  0.00  0.00    -0.506 OA
ATOM     26  H   UNL     1       6.525   3.689  24.084  0.00  0.00    +0.292 HD
ENDBRANCH   6  25
ENDBRANCH   1  12
BRANCH   1  27
ATOM     27  C   UNL     1       5.489  -1.557  26.599  0.00  0.00    +0.340 C 
ATOM     28  O   UNL     1       5.287  -2.963  26.818  0.00  0.00    -0.331 OA
ATOM     29  C   UNL     1       3.998  -3.283  27.357  0.00  0.00    +0.179 C 
ATOM     30  C   UNL     1       3.965  -2.768  28.801  0.00  0.00    +0.177 C 
ATOM     31  C   UNL     1       4.059  -1.235  28.758  0.00  0.00    +0.180 C 
ATOM     32  C   UNL     1       5.261  -0.757  27.921  0.00  0.00    +0.221 C 
BRANCH  31  33
ATOM     33  O   UNL     1       2.796  -0.744  28.286  0.00  0.00    -0.386 OA
ATOM     34  H   UNL     1       2.789  -0.794  27.312  0.00  0.00    +0.210 HD
ENDBRANCH  31  33
BRANCH  30  35
ATOM     35  O   UNL     1       2.779  -3.168  29.494  0.00  0.00    -0.386 OA
ATOM     36  H   UNL     1       2.925  -2.921  30.433  0.00  0.00    +0.210 HD
ENDBRANCH  30  35
BRANCH  32  37
ATOM     37  O   UNL     1       5.266   0.672  27.863  0.00  0.00    -0.337 OA
BRANCH  37  38
ATOM     38  C   UNL     1       6.557   1.315  27.795  0.00  0.00    +0.282 C 
ATOM     39  O   UNL     1       7.480   0.923  28.805  0.00  0.00    -0.346 OA
ATOM     40  C   UNL     1       7.272   1.421  30.136  0.00  0.00    +0.197 C 
ATOM     41  C   UNL     1       6.749   2.868  30.298  0.00  0.00    +0.171 C 
ATOM     42  C   UNL     1       5.737   3.222  29.216  0.00  0.00    +0.178 C 
ATOM     43  C   UNL     1       6.342   2.841  27.848  0.00  0.00    +0.201 C 
BRANCH  43  44
ATOM     44  O   UNL     1       5.510   3.299  26.779  0.00  0.00    -0.384 OA
ATOM     45  H   UNL     1       4.653   3.545  27.169  0.00  0.00    +0.210 HD
ENDBRANCH  43  44
BRANCH  42  46
ATOM     46  O   UNL     1       4.495   2.577  29.522  0.00  0.00    -0.386 OA
ATOM     47  H   UNL     1       4.173   2.147  28.706  0.00  0.00    +0.210 HD
ENDBRANCH  42  46
BRANCH  41  48
ATOM     48  O   UNL     1       7.834   3.803  30.249  0.00  0.00    -0.387 OA
ATOM     49  H   UNL     1       7.788   4.327  31.072  0.00  0.00    +0.210 HD
ENDBRANCH  41  48
ENDBRANCH  37  38
ENDBRANCH  32  37
BRANCH  29  50
ATOM     50  C   UNL     1       3.802  -4.803  27.258  0.00  0.00    +0.190 C 
BRANCH  50  51
ATOM     51  O   UNL     1       4.381  -5.514  28.344  0.00  0.00    -0.392 OA
ATOM     52  H   UNL     1       3.680  -5.618  29.023  0.00  0.00    +0.210 HD
ENDBRANCH  50  51
ENDBRANCH  29  50
ENDBRANCH   1  27
TORSDOF 16
ENDMDL
