MODEL 1
REMARK VINA RESULT:      -7.2      0.000      0.000
REMARK  Name = 
REMARK  14 active torsions:
REMARK  status: ('A' for Active; 'I' for Inactive)
REMARK    1  A    between atoms: C_3  and  O_41
REMARK    2  A    between atoms: C_4  and  O_40
REMARK    3  A    between atoms: C_6  and  C_7
REMARK    4  A    between atoms: C_8  and  O_24
REMARK    5  A    between atoms: C_12  and  O_23
REMARK    6  A    between atoms: C_14  and  O_18
REMARK    7  A    between atoms: O_18  and  S_19
REMARK    8  A    between atoms: S_19  and  O_22
REMARK    9  A    between atoms: O_24  and  C_25
REMARK   10  A    between atoms: C_27  and  O_39
REMARK   11  A    between atoms: C_28  and  O_38
REMARK   12  A    between atoms: C_29  and  O_37
REMARK   13  A    between atoms: C_31  and  C_34
REMARK   14  A    between atoms: C_34  and  O_36
REMARK                            x       y       z     vdW  Elec       q    Type
REMARK                         _______ _______ _______ _____ _____    ______ ____
ROOT
ATOM      1  C   UNL     1       6.972  -1.288  25.394  0.00  0.00    +0.181 A 
ATOM      2  O   UNL     1       7.630  -0.055  25.433  0.00  0.00    -0.451 OA
ATOM      3  C   UNL     1       8.422   0.348  24.394  0.00  0.00    +0.147 A 
ATOM      4  C   UNL     1       8.700  -0.470  23.314  0.00  0.00    +0.109 A 
ATOM      5  C   UNL     1       9.518   0.020  22.284  0.00  0.00    +0.135 A 
ATOM      6  C   UNL     1      10.046   1.317  22.331  0.00  0.00    +0.095 A 
ATOM      7  C   UNL     1       9.770   2.132  23.422  0.00  0.00    +0.166 A 
ATOM      8  C   UNL     1       8.075  -1.801  23.285  0.00  0.00    +0.238 A 
ATOM      9  O   UNL     1       8.285  -2.544  22.329  0.00  0.00    -0.283 OA
ATOM     10  C   UNL     1       8.946   1.648  24.448  0.00  0.00    +0.096 A 
ATOM     11  C   UNL     1       7.117  -2.177  24.376  0.00  0.00    +0.214 A 
ENDROOT
BRANCH   1  13
ATOM     12  C   UNL     1       5.946  -2.507  27.387  0.00  0.00    +0.015 A 
ATOM     13  C   UNL     1       5.985  -1.411  26.514  0.00  0.00    +0.025 A 
ATOM     14  C   UNL     1       4.947  -0.471  26.638  0.00  0.00    +0.060 A 
ATOM     15  C   UNL     1       3.831  -0.756  27.417  0.00  0.00    +0.159 A 
ATOM     16  C   UNL     1       3.720  -1.967  28.082  0.00  0.00    +0.158 A 
ATOM     17  C   UNL     1       4.800  -2.828  28.122  0.00  0.00    +0.050 A 
BRANCH  15  18
ATOM     18  O   UNL     1       2.809   0.147  27.473  0.00  0.00    -0.503 OA
ATOM     19  H   UNL     1       2.938   0.606  28.328  0.00  0.00    +0.292 HD
ENDBRANCH  15  18
BRANCH  16  20
ATOM     20  O   UNL     1       2.529  -2.274  28.672  0.00  0.00    -0.503 OA
ATOM     21  H   UNL     1       2.201  -3.094  28.262  0.00  0.00    +0.292 HD
ENDBRANCH  16  20
ENDBRANCH   1  13
BRANCH   5  22
ATOM     22  O   UNL     1       9.838  -0.710  21.170  0.00  0.00    -0.506 OA
ATOM     23  H   UNL     1      10.791  -0.932  21.200  0.00  0.00    +0.292 HD
ENDBRANCH   5  22
BRANCH   7  24
ATOM     24  O   UNL     1      10.188   3.435  23.563  0.00  0.00    -0.325 OA
BRANCH  24  25
ATOM     25  S   UNL     1       9.123   4.668  23.703  0.00  0.00    +0.251 S 
ATOM     26  O   UNL     1       8.968   5.015  25.102  0.00  0.00    -0.108 OA
ATOM     27  O   UNL     1       7.995   4.412  22.841  0.00  0.00    -0.108 OA
BRANCH  25  28
ATOM     28  O   UNL     1       9.912   5.889  23.003  0.00  0.00    -0.222 OA
ATOM     29  H   UNL     1      10.460   5.499  22.286  0.00  0.00    +0.248 HD
ENDBRANCH  25  28
ENDBRANCH  24  25
ENDBRANCH   7  24
BRANCH  11  30
ATOM     30  O   UNL     1       6.568  -3.459  24.346  0.00  0.00    -0.453 OA
BRANCH  30  31
ATOM     31  C   UNL     1       5.174  -3.619  24.002  0.00  0.00    +0.340 C 
ATOM     32  O   UNL     1       4.460  -4.358  25.020  0.00  0.00    -0.322 OA
ATOM     33  C   UNL     1       4.731  -5.766  25.132  0.00  0.00    +0.261 C 
ATOM     34  C   UNL     1       5.177  -6.553  23.883  0.00  0.00    +0.185 C 
ATOM     35  C   UNL     1       5.769  -5.682  22.776  0.00  0.00    +0.180 C 
ATOM     36  C   UNL     1       4.965  -4.383  22.679  0.00  0.00    +0.214 C 
BRANCH  33  37
ATOM     37  C   UNL     1       5.677  -6.039  26.292  0.00  0.00    +0.337 C 
ATOM     38  O   UNL     1       5.377  -6.652  27.301  0.00  0.00    -0.248 OA
BRANCH  37  39
ATOM     39  O   UNL     1       6.943  -5.591  26.076  0.00  0.00    -0.479 OA
ATOM     40  H   UNL     1       7.228  -4.892  26.698  0.00  0.00    +0.295 HD
ENDBRANCH  37  39
ENDBRANCH  33  37
BRANCH  34  41
ATOM     41  O   UNL     1       4.022  -7.231  23.333  0.00  0.00    -0.386 OA
ATOM     42  H   UNL     1       3.825  -6.733  22.507  0.00  0.00    +0.210 HD
ENDBRANCH  34  41
BRANCH  35  43
ATOM     43  O   UNL     1       5.701  -6.414  21.540  0.00  0.00    -0.386 OA
ATOM     44  H   UNL     1       6.024  -5.787  20.860  0.00  0.00    +0.210 HD
ENDBRANCH  35  43
BRANCH  36  45
ATOM     45  O   UNL     1       5.287  -3.670  21.488  0.00  0.00    -0.383 OA
ATOM     46  H   UNL     1       4.466  -3.359  21.068  0.00  0.00    +0.210 HD
ENDBRANCH  36  45
ENDBRANCH  30  31
ENDBRANCH  11  30
TORSDOF 14
ENDMDL
MODEL 2
REMARK VINA RESULT:      -7.1      2.925      7.863
REMARK  Name = 
REMARK  14 active torsions:
REMARK  status: ('A' for Active; 'I' for Inactive)
REMARK    1  A    between atoms: C_3  and  O_41
REMARK    2  A    between atoms: C_4  and  O_40
REMARK    3  A    between atoms: C_6  and  C_7
REMARK    4  A    between atoms: C_8  and  O_24
REMARK    5  A    between atoms: C_12  and  O_23
REMARK    6  A    between atoms: C_14  and  O_18
REMARK    7  A    between atoms: O_18  and  S_19
REMARK    8  A    between atoms: S_19  and  O_22
REMARK    9  A    between atoms: O_24  and  C_25
REMARK   10  A    between atoms: C_27  and  O_39
REMARK   11  A    between atoms: C_28  and  O_38
REMARK   12  A    between atoms: C_29  and  O_37
REMARK   13  A    between atoms: C_31  and  C_34
REMARK   14  A    between atoms: C_34  and  O_36
REMARK                            x       y       z     vdW  Elec       q    Type
REMARK                         _______ _______ _______ _____ _____    ______ ____
ROOT
ATOM      1  C   UNL     1       5.944  -1.644  25.278  0.00  0.00    +0.181 A 
ATOM      2  O   UNL     1       5.253  -2.844  25.475  0.00  0.00    -0.451 OA
ATOM      3  C   UNL     1       5.436  -3.901  24.628  0.00  0.00    +0.147 A 
ATOM      4  C   UNL     1       6.214  -3.813  23.488  0.00  0.00    +0.109 A 
ATOM      5  C   UNL     1       6.356  -4.946  22.673  0.00  0.00    +0.135 A 
ATOM      6  C   UNL     1       5.732  -6.158  22.998  0.00  0.00    +0.095 A 
ATOM      7  C   UNL     1       4.944  -6.240  24.140  0.00  0.00    +0.166 A 
ATOM      8  C   UNL     1       6.894  -2.535  23.222  0.00  0.00    +0.238 A 
ATOM      9  O   UNL     1       7.610  -2.431  22.229  0.00  0.00    -0.283 OA
ATOM     10  C   UNL     1       4.808  -5.112  24.961  0.00  0.00    +0.096 A 
ATOM     11  C   UNL     1       6.775  -1.427  24.225  0.00  0.00    +0.214 A 
ENDROOT
BRANCH   1  13
ATOM     12  C   UNL     1       4.603   0.015  26.681  0.00  0.00    +0.015 A 
ATOM     13  C   UNL     1       5.772  -0.723  26.448  0.00  0.00    +0.025 A 
ATOM     14  C   UNL     1       6.865  -0.454  27.292  0.00  0.00    +0.060 A 
ATOM     15  C   UNL     1       6.844   0.648  28.138  0.00  0.00    +0.159 A 
ATOM     16  C   UNL     1       5.751   1.502  28.165  0.00  0.00    +0.158 A 
ATOM     17  C   UNL     1       4.599   1.160  27.482  0.00  0.00    +0.050 A 
BRANCH  15  18
ATOM     18  O   UNL     1       7.940   0.923  28.903  0.00  0.00    -0.503 OA
ATOM     19  H   UNL     1       7.638   0.770  29.822  0.00  0.00    +0.292 HD
ENDBRANCH  15  18
BRANCH  16  20
ATOM     20  O   UNL     1       5.858   2.667  28.865  0.00  0.00    -0.503 OA
ATOM     21  H   UNL     1       6.804   2.817  29.042  0.00  0.00    +0.292 HD
ENDBRANCH  16  20
ENDBRANCH   1  13
BRANCH   5  22
ATOM     22  O   UNL     1       7.116  -4.958  21.533  0.00  0.00    -0.506 OA
ATOM     23  H   UNL     1       8.046  -4.763  21.771  0.00  0.00    +0.292 HD
ENDBRANCH   5  22
BRANCH   7  24
ATOM     24  O   UNL     1       4.320  -7.380  24.591  0.00  0.00    -0.325 OA
BRANCH  24  25
ATOM     25  S   UNL     1       2.708  -7.597  24.425  0.00  0.00    +0.251 S 
ATOM     26  O   UNL     1       2.004  -6.571  25.167  0.00  0.00    -0.108 OA
ATOM     27  O   UNL     1       2.406  -9.000  24.569  0.00  0.00    -0.108 OA
BRANCH  25  28
ATOM     28  O   UNL     1       2.476  -7.283  22.858  0.00  0.00    -0.222 OA
ATOM     29  H   UNL     1       2.321  -6.315  22.783  0.00  0.00    +0.248 HD
ENDBRANCH  25  28
ENDBRANCH  24  25
ENDBRANCH   7  24
BRANCH  11  30
ATOM     30  O   UNL     1       7.397  -0.214  23.930  0.00  0.00    -0.453 OA
BRANCH  30  31
ATOM     31  C   UNL     1       8.810  -0.066  24.196  0.00  0.00    +0.340 C 
ATOM     32  O   UNL     1       9.055   0.946  25.200  0.00  0.00    -0.322 OA
ATOM     33  C   UNL     1       8.847   2.318  24.825  0.00  0.00    +0.261 C 
ATOM     34  C   UNL     1       9.033   2.737  23.352  0.00  0.00    +0.185 C 
ATOM     35  C   UNL     1       8.928   1.582  22.357  0.00  0.00    +0.180 C 
ATOM     36  C   UNL     1       9.617   0.349  22.949  0.00  0.00    +0.214 C 
BRANCH  33  37
ATOM     37  C   UNL     1       7.510   2.821  25.349  0.00  0.00    +0.337 C 
ATOM     38  O   UNL     1       7.379   3.626  26.254  0.00  0.00    -0.248 OA
BRANCH  37  39
ATOM     39  O   UNL     1       6.441   2.338  24.660  0.00  0.00    -0.479 OA
ATOM     40  H   UNL     1       6.545   1.411  24.365  0.00  0.00    +0.295 HD
ENDBRANCH  37  39
ENDBRANCH  33  37
BRANCH  34  41
ATOM     41  O   UNL     1      10.351   3.320  23.205  0.00  0.00    -0.386 OA
ATOM     42  H   UNL     1      10.883   2.885  23.910  0.00  0.00    +0.210 HD
ENDBRANCH  34  41
BRANCH  35  43
ATOM     43  O   UNL     1       9.568   1.981  21.132  0.00  0.00    -0.386 OA
ATOM     44  H   UNL     1      10.190   2.691  21.395  0.00  0.00    +0.210 HD
ENDBRANCH  35  43
BRANCH  36  45
ATOM     45  O   UNL     1       9.799  -0.659  21.959  0.00  0.00    -0.383 OA
ATOM     46  H   UNL     1       9.500  -0.320  21.097  0.00  0.00    +0.210 HD
ENDBRANCH  36  45
ENDBRANCH  30  31
ENDBRANCH  11  30
TORSDOF 14
ENDMDL
MODEL 3
REMARK VINA RESULT:      -7.1      1.115      2.422
REMARK  Name = 
REMARK  14 active torsions:
REMARK  status: ('A' for Active; 'I' for Inactive)
REMARK    1  A    between atoms: C_3  and  O_41
REMARK    2  A    between atoms: C_4  and  O_40
REMARK    3  A    between atoms: C_6  and  C_7
REMARK    4  A    between atoms: C_8  and  O_24
REMARK    5  A    between atoms: C_12  and  O_23
REMARK    6  A    between atoms: C_14  and  O_18
REMARK    7  A    between atoms: O_18  and  S_19
REMARK    8  A    between atoms: S_19  and  O_22
REMARK    9  A    between atoms: O_24  and  C_25
REMARK   10  A    between atoms: C_27  and  O_39
REMARK   11  A    between atoms: C_28  and  O_38
REMARK   12  A    between atoms: C_29  and  O_37
REMARK   13  A    between atoms: C_31  and  C_34
REMARK   14  A    between atoms: C_34  and  O_36
REMARK                            x       y       z     vdW  Elec       q    Type
REMARK                         _______ _______ _______ _____ _____    ______ ____
ROOT
ATOM      1  C   UNL     1       6.706  -0.932  25.284  0.00  0.00    +0.181 A 
ATOM      2  O   UNL     1       7.480   0.228  25.376  0.00  0.00    -0.451 OA
ATOM      3  C   UNL     1       8.305   0.601  24.351  0.00  0.00    +0.147 A 
ATOM      4  C   UNL     1       8.501  -0.189  23.233  0.00  0.00    +0.109 A 
ATOM      5  C   UNL     1       9.360   0.267  22.222  0.00  0.00    +0.135 A 
ATOM      6  C   UNL     1      10.011   1.504  22.325  0.00  0.00    +0.095 A 
ATOM      7  C   UNL     1       9.817   2.290  23.454  0.00  0.00    +0.166 A 
ATOM      8  C   UNL     1       7.750  -1.451  23.147  0.00  0.00    +0.238 A 
ATOM      9  O   UNL     1       7.885  -2.165  22.156  0.00  0.00    -0.283 OA
ATOM     10  C   UNL     1       8.952   1.841  24.461  0.00  0.00    +0.096 A 
ATOM     11  C   UNL     1       6.762  -1.783  24.225  0.00  0.00    +0.214 A 
ENDROOT
BRANCH   1  13
ATOM     12  C   UNL     1       4.431  -1.557  26.258  0.00  0.00    +0.015 A 
ATOM     13  C   UNL     1       5.714  -1.012  26.404  0.00  0.00    +0.025 A 
ATOM     14  C   UNL     1       6.000  -0.395  27.636  0.00  0.00    +0.060 A 
ATOM     15  C   UNL     1       4.980  -0.137  28.545  0.00  0.00    +0.159 A 
ATOM     16  C   UNL     1       3.668  -0.481  28.256  0.00  0.00    +0.158 A 
ATOM     17  C   UNL     1       3.391  -1.245  27.139  0.00  0.00    +0.050 A 
BRANCH  15  18
ATOM     18  O   UNL     1       5.272   0.517  29.707  0.00  0.00    -0.503 OA
ATOM     19  H   UNL     1       6.080   1.029  29.500  0.00  0.00    +0.292 HD
ENDBRANCH  15  18
BRANCH  16  20
ATOM     20  O   UNL     1       2.685  -0.036  29.091  0.00  0.00    -0.503 OA
ATOM     21  H   UNL     1       1.915  -0.620  28.975  0.00  0.00    +0.292 HD
ENDBRANCH  16  20
ENDBRANCH   1  13
BRANCH   5  22
ATOM     22  O   UNL     1       9.605  -0.437  21.073  0.00  0.00    -0.506 OA
ATOM     23  H   UNL     1      10.573  -0.556  20.975  0.00  0.00    +0.292 HD
ENDBRANCH   5  22
BRANCH   7  24
ATOM     24  O   UNL     1      10.359   3.539  23.652  0.00  0.00    -0.325 OA
BRANCH  24  25
ATOM     25  S   UNL     1       9.420   4.873  23.768  0.00  0.00    +0.251 S 
ATOM     26  O   UNL     1       9.365   5.305  25.151  0.00  0.00    -0.108 OA
ATOM     27  O   UNL     1       8.234   4.683  22.970  0.00  0.00    -0.108 OA
BRANCH  25  28
ATOM     28  O   UNL     1      10.286   5.976  22.968  0.00  0.00    -0.222 OA
ATOM     29  H   UNL     1       9.750   6.247  22.190  0.00  0.00    +0.248 HD
ENDBRANCH  25  28
ENDBRANCH  24  25
ENDBRANCH   7  24
BRANCH  11  30
ATOM     30  O   UNL     1       6.093  -3.004  24.140  0.00  0.00    -0.453 OA
BRANCH  30  31
ATOM     31  C   UNL     1       6.741  -4.197  24.634  0.00  0.00    +0.340 C 
ATOM     32  O   UNL     1       7.170  -5.052  23.549  0.00  0.00    -0.322 OA
ATOM     33  C   UNL     1       6.153  -5.751  22.810  0.00  0.00    +0.261 C 
ATOM     34  C   UNL     1       4.831  -6.123  23.511  0.00  0.00    +0.185 C 
ATOM     35  C   UNL     1       4.525  -5.287  24.752  0.00  0.00    +0.180 C 
ATOM     36  C   UNL     1       5.824  -5.054  25.529  0.00  0.00    +0.214 C 
BRANCH  33  37
ATOM     37  C   UNL     1       5.869  -5.047  21.491  0.00  0.00    +0.337 C 
ATOM     38  O   UNL     1       6.014  -5.551  20.392  0.00  0.00    -0.248 OA
BRANCH  37  39
ATOM     39  O   UNL     1       5.358  -3.795  21.644  0.00  0.00    -0.479 OA
ATOM     40  H   UNL     1       4.834  -3.485  20.879  0.00  0.00    +0.295 HD
ENDBRANCH  37  39
ENDBRANCH  33  37
BRANCH  34  41
ATOM     41  O   UNL     1       4.908  -7.508  23.928  0.00  0.00    -0.386 OA
ATOM     42  H   UNL     1       4.650  -8.013  23.123  0.00  0.00    +0.210 HD
ENDBRANCH  34  41
BRANCH  35  43
ATOM     43  O   UNL     1       3.574  -6.004  25.559  0.00  0.00    -0.386 OA
ATOM     44  H   UNL     1       3.668  -6.940  25.282  0.00  0.00    +0.210 HD
ENDBRANCH  35  43
BRANCH  36  45
ATOM     45  O   UNL     1       5.556  -4.532  26.828  0.00  0.00    -0.383 OA
ATOM     46  H   UNL     1       6.004  -5.084  27.494  0.00  0.00    +0.210 HD
ENDBRANCH  36  45
ENDBRANCH  30  31
ENDBRANCH  11  30
TORSDOF 14
ENDMDL
MODEL 4
REMARK VINA RESULT:      -6.8      3.218      8.961
REMARK  Name = 
REMARK  14 active torsions:
REMARK  status: ('A' for Active; 'I' for Inactive)
REMARK    1  A    between atoms: C_3  and  O_41
REMARK    2  A    between atoms: C_4  and  O_40
REMARK    3  A    between atoms: C_6  and  C_7
REMARK    4  A    between atoms: C_8  and  O_24
REMARK    5  A    between atoms: C_12  and  O_23
REMARK    6  A    between atoms: C_14  and  O_18
REMARK    7  A    between atoms: O_18  and  S_19
REMARK    8  A    between atoms: S_19  and  O_22
REMARK    9  A    between atoms: O_24  and  C_25
REMARK   10  A    between atoms: C_27  and  O_39
REMARK   11  A    between atoms: C_28  and  O_38
REMARK   12  A    between atoms: C_29  and  O_37
REMARK   13  A    between atoms: C_31  and  C_34
REMARK   14  A    between atoms: C_34  and  O_36
REMARK                            x       y       z     vdW  Elec       q    Type
REMARK                         _______ _______ _______ _____ _____    ______ ____
ROOT
ATOM      1  C   UNL     1       6.936  -0.084  25.035  0.00  0.00    +0.181 A 
ATOM      2  O   UNL     1       7.043  -1.424  25.418  0.00  0.00    -0.451 OA
ATOM      3  C   UNL     1       5.999  -2.062  26.028  0.00  0.00    +0.147 A 
ATOM      4  C   UNL     1       4.839  -1.403  26.394  0.00  0.00    +0.109 A 
ATOM      5  C   UNL     1       3.811  -2.131  27.011  0.00  0.00    +0.135 A 
ATOM      6  C   UNL     1       3.938  -3.505  27.254  0.00  0.00    +0.095 A 
ATOM      7  C   UNL     1       5.108  -4.161  26.891  0.00  0.00    +0.166 A 
ATOM      8  C   UNL     1       4.733   0.027  26.066  0.00  0.00    +0.238 A 
ATOM      9  O   UNL     1       3.707   0.637  26.358  0.00  0.00    -0.283 OA
ATOM     10  C   UNL     1       6.133  -3.439  26.266  0.00  0.00    +0.096 A 
ATOM     11  C   UNL     1       5.840   0.678  25.291  0.00  0.00    +0.214 A 
ENDROOT
BRANCH   1  13
ATOM     12  C   UNL     1       9.301   0.815  24.706  0.00  0.00    +0.015 A 
ATOM     13  C   UNL     1       8.095   0.331  24.182  0.00  0.00    +0.025 A 
ATOM     14  C   UNL     1       7.951   0.381  22.783  0.00  0.00    +0.060 A 
ATOM     15  C   UNL     1       8.859   1.095  22.010  0.00  0.00    +0.159 A 
ATOM     16  C   UNL     1       9.918   1.769  22.599  0.00  0.00    +0.158 A 
ATOM     17  C   UNL     1      10.182   1.587  23.942  0.00  0.00    +0.050 A 
BRANCH  15  18
ATOM     18  O   UNL     1       8.664   1.180  20.662  0.00  0.00    -0.503 OA
ATOM     19  H   UNL     1       9.412   0.679  20.277  0.00  0.00    +0.292 HD
ENDBRANCH  15  18
BRANCH  16  20
ATOM     20  O   UNL     1      10.663   2.607  21.821  0.00  0.00    -0.503 OA
ATOM     21  H   UNL     1      10.589   3.501  22.200  0.00  0.00    +0.292 HD
ENDBRANCH  16  20
ENDBRANCH   1  13
BRANCH   5  22
ATOM     22  O   UNL     1       2.622  -1.568  27.397  0.00  0.00    -0.506 OA
ATOM     23  H   UNL     1       2.808  -0.806  27.983  0.00  0.00    +0.292 HD
ENDBRANCH   5  22
BRANCH   7  24
ATOM     24  O   UNL     1       5.335  -5.511  27.032  0.00  0.00    -0.325 OA
BRANCH  24  25
ATOM     25  S   UNL     1       6.107  -6.119  28.339  0.00  0.00    +0.251 S 
ATOM     26  O   UNL     1       5.728  -7.506  28.521  0.00  0.00    -0.108 OA
ATOM     27  O   UNL     1       6.046  -5.154  29.410  0.00  0.00    -0.108 OA
BRANCH  25  28
ATOM     28  O   UNL     1       7.650  -6.113  27.864  0.00  0.00    -0.222 OA
ATOM     29  H   UNL     1       8.175  -6.498  28.600  0.00  0.00    +0.248 HD
ENDBRANCH  25  28
ENDBRANCH  24  25
ENDBRANCH   7  24
BRANCH  11  30
ATOM     30  O   UNL     1       5.732   2.044  25.027  0.00  0.00    -0.453 OA
BRANCH  30  31
ATOM     31  C   UNL     1       5.072   2.475  23.816  0.00  0.00    +0.340 C 
ATOM     32  O   UNL     1       5.982   3.185  22.943  0.00  0.00    -0.322 OA
ATOM     33  C   UNL     1       6.397   4.502  23.344  0.00  0.00    +0.261 C 
ATOM     34  C   UNL     1       5.456   5.358  24.217  0.00  0.00    +0.185 C 
ATOM     35  C   UNL     1       4.408   4.551  24.981  0.00  0.00    +0.180 C 
ATOM     36  C   UNL     1       3.889   3.427  24.081  0.00  0.00    +0.214 C 
BRANCH  33  37
ATOM     37  C   UNL     1       7.790   4.463  23.955  0.00  0.00    +0.337 C 
ATOM     38  O   UNL     1       8.804   4.831  23.390  0.00  0.00    -0.248 OA
BRANCH  37  39
ATOM     39  O   UNL     1       7.804   4.038  25.247  0.00  0.00    -0.479 OA
ATOM     40  H   UNL     1       7.326   4.627  25.865  0.00  0.00    +0.295 HD
ENDBRANCH  37  39
ENDBRANCH  33  37
BRANCH  34  41
ATOM     41  O   UNL     1       4.750   6.284  23.355  0.00  0.00    -0.386 OA
ATOM     42  H   UNL     1       5.415   6.527  22.671  0.00  0.00    +0.210 HD
ENDBRANCH  34  41
BRANCH  35  43
ATOM     43  O   UNL     1       3.338   5.438  25.354  0.00  0.00    -0.386 OA
ATOM     44  H   UNL     1       2.760   4.901  25.936  0.00  0.00    +0.210 HD
ENDBRANCH  35  43
BRANCH  36  45
ATOM     45  O   UNL     1       2.719   2.829  24.633  0.00  0.00    -0.383 OA
ATOM     46  H   UNL     1       2.689   1.889  24.381  0.00  0.00    +0.210 HD
ENDBRANCH  36  45
ENDBRANCH  30  31
ENDBRANCH  11  30
TORSDOF 14
ENDMDL
MODEL 5
REMARK VINA RESULT:      -6.8      3.130      8.013
REMARK  Name = 
REMARK  14 active torsions:
REMARK  status: ('A' for Active; 'I' for Inactive)
REMARK    1  A    between atoms: C_3  and  O_41
REMARK    2  A    between atoms: C_4  and  O_40
REMARK    3  A    between atoms: C_6  and  C_7
REMARK    4  A    between atoms: C_8  and  O_24
REMARK    5  A    between atoms: C_12  and  O_23
REMARK    6  A    between atoms: C_14  and  O_18
REMARK    7  A    between atoms: O_18  and  S_19
REMARK    8  A    between atoms: S_19  and  O_22
REMARK    9  A    between atoms: O_24  and  C_25
REMARK   10  A    between atoms: C_27  and  O_39
REMARK   11  A    between atoms: C_28  and  O_38
REMARK   12  A    between atoms: C_29  and  O_37
REMARK   13  A    between atoms: C_31  and  C_34
REMARK   14  A    between atoms: C_34  and  O_36
REMARK                            x       y       z     vdW  Elec       q    Type
REMARK                         _______ _______ _______ _____ _____    ______ ____
ROOT
ATOM      1  C   UNL     1       5.965  -0.443  26.361  0.00  0.00    +0.181 A 
ATOM      2  O   UNL     1       5.301  -1.415  27.116  0.00  0.00    -0.451 OA
ATOM      3  C   UNL     1       5.307  -2.726  26.726  0.00  0.00    +0.147 A 
ATOM      4  C   UNL     1       5.864  -3.141  25.531  0.00  0.00    +0.109 A 
ATOM      5  C   UNL     1       5.835  -4.506  25.206  0.00  0.00    +0.135 A 
ATOM      6  C   UNL     1       5.260  -5.447  26.071  0.00  0.00    +0.095 A 
ATOM      7  C   UNL     1       4.694  -5.023  27.268  0.00  0.00    +0.166 A 
ATOM      8  C   UNL     1       6.506  -2.123  24.685  0.00  0.00    +0.238 A 
ATOM      9  O   UNL     1       7.030  -2.463  23.627  0.00  0.00    -0.283 OA
ATOM     10  C   UNL     1       4.731  -3.662  27.599  0.00  0.00    +0.096 A 
ATOM     11  C   UNL     1       6.593  -0.713  25.187  0.00  0.00    +0.214 A 
ENDROOT
BRANCH   1  13
ATOM     12  C   UNL     1       5.431   2.039  26.620  0.00  0.00    +0.015 A 
ATOM     13  C   UNL     1       6.026   0.862  27.094  0.00  0.00    +0.025 A 
ATOM     14  C   UNL     1       6.829   0.981  28.243  0.00  0.00    +0.060 A 
ATOM     15  C   UNL     1       7.193   2.236  28.719  0.00  0.00    +0.159 A 
ATOM     16  C   UNL     1       6.774   3.389  28.072  0.00  0.00    +0.158 A 
ATOM     17  C   UNL     1       5.843   3.303  27.054  0.00  0.00    +0.050 A 
BRANCH  15  18
ATOM     18  O   UNL     1       8.021   2.326  29.799  0.00  0.00    -0.503 OA
ATOM     19  H   UNL     1       8.768   1.732  29.582  0.00  0.00    +0.292 HD
ENDBRANCH  15  18
BRANCH  16  20
ATOM     20  O   UNL     1       7.312   4.580  28.462  0.00  0.00    -0.503 OA
ATOM     21  H   UNL     1       7.656   4.465  29.365  0.00  0.00    +0.292 HD
ENDBRANCH  16  20
ENDBRANCH   1  13
BRANCH   5  22
ATOM     22  O   UNL     1       6.373  -5.013  24.053  0.00  0.00    -0.506 OA
ATOM     23  H   UNL     1       5.645  -5.280  23.454  0.00  0.00    +0.292 HD
ENDBRANCH   5  22
BRANCH   7  24
ATOM     24  O   UNL     1       4.143  -5.850  28.220  0.00  0.00    -0.325 OA
BRANCH  24  25
ATOM     25  S   UNL     1       5.066  -6.596  29.345  0.00  0.00    +0.251 S 
ATOM     26  O   UNL     1       4.213  -7.147  30.379  0.00  0.00    -0.108 OA
ATOM     27  O   UNL     1       6.204  -5.763  29.645  0.00  0.00    -0.108 OA
BRANCH  25  28
ATOM     28  O   UNL     1       5.672  -7.846  28.523  0.00  0.00    -0.222 OA
ATOM     29  H   UNL     1       5.062  -8.013  27.770  0.00  0.00    +0.248 HD
ENDBRANCH  25  28
ENDBRANCH  24  25
ENDBRANCH   7  24
BRANCH  11  30
ATOM     30  O   UNL     1       7.171   0.241  24.348  0.00  0.00    -0.453 OA
BRANCH  30  31
ATOM     31  C   UNL     1       8.545   0.631  24.571  0.00  0.00    +0.340 C 
ATOM     32  O   UNL     1       8.705   2.067  24.493  0.00  0.00    -0.322 OA
ATOM     33  C   UNL     1       8.602   2.678  23.196  0.00  0.00    +0.261 C 
ATOM     34  C   UNL     1       8.987   1.865  21.943  0.00  0.00    +0.185 C 
ATOM     35  C   UNL     1       8.959   0.351  22.150  0.00  0.00    +0.180 C 
ATOM     36  C   UNL     1       9.517   0.026  23.538  0.00  0.00    +0.214 C 
BRANCH  33  37
ATOM     37  C   UNL     1       7.232   3.313  23.009  0.00  0.00    +0.337 C 
ATOM     38  O   UNL     1       6.711   4.080  23.799  0.00  0.00    -0.248 OA
BRANCH  37  39
ATOM     39  O   UNL     1       6.648   3.002  21.821  0.00  0.00    -0.479 OA
ATOM     40  H   UNL     1       7.116   2.305  21.319  0.00  0.00    +0.295 HD
ENDBRANCH  37  39
ENDBRANCH  33  37
BRANCH  34  41
ATOM     41  O   UNL     1      10.336   2.227  21.560  0.00  0.00    -0.386 OA
ATOM     42  H   UNL     1      10.903   1.591  22.054  0.00  0.00    +0.210 HD
ENDBRANCH  34  41
BRANCH  35  43
ATOM     43  O   UNL     1       9.763  -0.260  21.125  0.00  0.00    -0.386 OA
ATOM     44  H   UNL     1       9.608  -1.223  21.227  0.00  0.00    +0.210 HD
ENDBRANCH  35  43
BRANCH  36  45
ATOM     45  O   UNL     1       9.779  -1.368  23.671  0.00  0.00    -0.383 OA
ATOM     46  H   UNL     1       9.752  -1.612  24.613  0.00  0.00    +0.210 HD
ENDBRANCH  36  45
ENDBRANCH  30  31
ENDBRANCH  11  30
TORSDOF 14
ENDMDL
MODEL 6
REMARK VINA RESULT:      -6.6      2.991      8.005
REMARK  Name = 
REMARK  14 active torsions:
REMARK  status: ('A' for Active; 'I' for Inactive)
REMARK    1  A    between atoms: C_3  and  O_41
REMARK    2  A    between atoms: C_4  and  O_40
REMARK    3  A    between atoms: C_6  and  C_7
REMARK    4  A    between atoms: C_8  and  O_24
REMARK    5  A    between atoms: C_12  and  O_23
REMARK    6  A    between atoms: C_14  and  O_18
REMARK    7  A    between atoms: O_18  and  S_19
REMARK    8  A    between atoms: S_19  and  O_22
REMARK    9  A    between atoms: O_24  and  C_25
REMARK   10  A    between atoms: C_27  and  O_39
REMARK   11  A    between atoms: C_28  and  O_38
REMARK   12  A    between atoms: C_29  and  O_37
REMARK   13  A    between atoms: C_31  and  C_34
REMARK   14  A    between atoms: C_34  and  O_36
REMARK                            x       y       z     vdW  Elec       q    Type
REMARK                         _______ _______ _______ _____ _____    ______ ____
ROOT
ATOM      1  C   UNL     1       5.311  -1.269  25.309  0.00  0.00    +0.181 A 
ATOM      2  O   UNL     1       4.347  -2.278  25.398  0.00  0.00    -0.451 OA
ATOM      3  C   UNL     1       4.332  -3.310  24.502  0.00  0.00    +0.147 A 
ATOM      4  C   UNL     1       5.182  -3.360  23.413  0.00  0.00    +0.109 A 
ATOM      5  C   UNL     1       5.108  -4.457  22.542  0.00  0.00    +0.135 A 
ATOM      6  C   UNL     1       4.196  -5.499  22.763  0.00  0.00    +0.095 A 
ATOM      7  C   UNL     1       3.338  -5.441  23.854  0.00  0.00    +0.166 A 
ATOM      8  C   UNL     1       6.159  -2.270  23.258  0.00  0.00    +0.238 A 
ATOM      9  O   UNL     1       6.943  -2.296  22.312  0.00  0.00    -0.283 OA
ATOM     10  C   UNL     1       3.417  -4.350  24.731  0.00  0.00    +0.096 A 
ATOM     11  C   UNL     1       6.238  -1.211  24.316  0.00  0.00    +0.214 A 
ENDROOT
BRANCH   1  13
ATOM     12  C   UNL     1       4.174   0.388  26.881  0.00  0.00    +0.015 A 
ATOM     13  C   UNL     1       5.285  -0.385  26.518  0.00  0.00    +0.025 A 
ATOM     14  C   UNL     1       6.459  -0.191  27.268  0.00  0.00    +0.060 A 
ATOM     15  C   UNL     1       6.560   0.880  28.148  0.00  0.00    +0.159 A 
ATOM     16  C   UNL     1       5.512   1.773  28.303  0.00  0.00    +0.158 A 
ATOM     17  C   UNL     1       4.290   1.503  27.717  0.00  0.00    +0.050 A 
BRANCH  15  18
ATOM     18  O   UNL     1       7.731   1.083  28.819  0.00  0.00    -0.503 OA
ATOM     19  H   UNL     1       7.506   0.911  29.756  0.00  0.00    +0.292 HD
ENDBRANCH  15  18
BRANCH  16  20
ATOM     20  O   UNL     1       5.731   2.908  29.029  0.00  0.00    -0.503 OA
ATOM     21  H   UNL     1       5.878   3.635  28.399  0.00  0.00    +0.292 HD
ENDBRANCH  16  20
ENDBRANCH   1  13
BRANCH   5  22
ATOM     22  O   UNL     1       5.917  -4.600  21.446  0.00  0.00    -0.506 OA
ATOM     23  H   UNL     1       6.292  -5.506  21.445  0.00  0.00    +0.292 HD
ENDBRANCH   5  22
BRANCH   7  24
ATOM     24  O   UNL     1       2.435  -6.418  24.205  0.00  0.00    -0.325 OA
BRANCH  24  25
ATOM     25  S   UNL     1       2.800  -7.566  25.310  0.00  0.00    +0.251 S 
ATOM     26  O   UNL     1       1.958  -7.396  26.477  0.00  0.00    -0.108 OA
ATOM     27  O   UNL     1       4.235  -7.689  25.403  0.00  0.00    -0.108 OA
BRANCH  25  28
ATOM     28  O   UNL     1       2.315  -8.920  24.577  0.00  0.00    -0.222 OA
ATOM     29  H   UNL     1       2.288  -8.727  23.614  0.00  0.00    +0.248 HD
ENDBRANCH  25  28
ENDBRANCH  24  25
ENDBRANCH   7  24
BRANCH  11  30
ATOM     30  O   UNL     1       7.146  -0.169  24.125  0.00  0.00    -0.453 OA
BRANCH  30  31
ATOM     31  C   UNL     1       6.781   0.931  23.262  0.00  0.00    +0.340 C 
ATOM     32  O   UNL     1       7.550   0.918  22.037  0.00  0.00    -0.322 OA
ATOM     33  C   UNL     1       8.942   1.272  22.122  0.00  0.00    +0.261 C 
ATOM     34  C   UNL     1       9.411   2.236  23.230  0.00  0.00    +0.185 C 
ATOM     35  C   UNL     1       8.460   2.327  24.422  0.00  0.00    +0.180 C 
ATOM     36  C   UNL     1       7.016   2.310  23.911  0.00  0.00    +0.214 C 
BRANCH  33  37
ATOM     37  C   UNL     1       9.814   0.025  22.106  0.00  0.00    +0.337 C 
ATOM     38  O   UNL     1      10.652  -0.244  22.948  0.00  0.00    -0.248 OA
BRANCH  37  39
ATOM     39  O   UNL     1       9.527  -0.824  21.083  0.00  0.00    -0.479 OA
ATOM     40  H   UNL     1       8.826  -0.501  20.483  0.00  0.00    +0.295 HD
ENDBRANCH  37  39
ENDBRANCH  33  37
BRANCH  34  41
ATOM     41  O   UNL     1       9.525   3.564  22.662  0.00  0.00    -0.386 OA
ATOM     42  H   UNL     1       8.689   4.009  22.929  0.00  0.00    +0.210 HD
ENDBRANCH  34  41
BRANCH  35  43
ATOM     43  O   UNL     1       8.734   3.551  25.127  0.00  0.00    -0.386 OA
ATOM     44  H   UNL     1       9.654   3.453  25.449  0.00  0.00    +0.210 HD
ENDBRANCH  35  43
BRANCH  36  45
ATOM     45  O   UNL     1       6.105   2.677  24.943  0.00  0.00    -0.383 OA
ATOM     46  H   UNL     1       6.395   2.280  25.784  0.00  0.00    +0.210 HD
ENDBRANCH  36  45
ENDBRANCH  30  31
ENDBRANCH  11  30
TORSDOF 14
ENDMDL
MODEL 7
REMARK VINA RESULT:      -6.6      2.047      4.297
REMARK  Name = 
REMARK  14 active torsions:
REMARK  status: ('A' for Active; 'I' for Inactive)
REMARK    1  A    between atoms: C_3  and  O_41
REMARK    2  A    between atoms: C_4  and  O_40
REMARK    3  A    between atoms: C_6  and  C_7
REMARK    4  A    between atoms: C_8  and  O_24
REMARK    5  A    between atoms: C_12  and  O_23
REMARK    6  A    between atoms: C_14  and  O_18
REMARK    7  A    between atoms: O_18  and  S_19
REMARK    8  A    between atoms: S_19  and  O_22
REMARK    9  A    between atoms: O_24  and  C_25
REMARK   10  A    between atoms: C_27  and  O_39
REMARK   11  A    between atoms: C_28  and  O_38
REMARK   12  A    between atoms: C_29  and  O_37
REMARK   13  A    between atoms: C_31  and  C_34
REMARK   14  A    between atoms: C_34  and  O_36
REMARK                            x       y       z     vdW  Elec       q    Type
REMARK                         _______ _______ _______ _____ _____    ______ ____
ROOT
ATOM      1  C   UNL     1       6.849  -1.716  24.101  0.00  0.00    +0.181 A 
ATOM      2  O   UNL     1       7.048  -0.537  23.377  0.00  0.00    -0.451 OA
ATOM      3  C   UNL     1       7.273   0.648  24.021  0.00  0.00    +0.147 A 
ATOM      4  C   UNL     1       7.210   0.768  25.397  0.00  0.00    +0.109 A 
ATOM      5  C   UNL     1       7.459   2.018  25.982  0.00  0.00    +0.135 A 
ATOM      6  C   UNL     1       7.776   3.136  25.199  0.00  0.00    +0.095 A 
ATOM      7  C   UNL     1       7.831   3.013  23.816  0.00  0.00    +0.166 A 
ATOM      8  C   UNL     1       6.930  -0.448  26.177  0.00  0.00    +0.238 A 
ATOM      9  O   UNL     1       6.888  -0.380  27.403  0.00  0.00    -0.283 OA
ATOM     10  C   UNL     1       7.591   1.763  23.230  0.00  0.00    +0.096 A 
ATOM     11  C   UNL     1       6.804  -1.758  25.459  0.00  0.00    +0.214 A 
ENDROOT
BRANCH   1  13
ATOM     12  C   UNL     1       5.900  -3.136  22.204  0.00  0.00    +0.015 A 
ATOM     13  C   UNL     1       6.861  -2.914  23.200  0.00  0.00    +0.025 A 
ATOM     14  C   UNL     1       7.783  -3.951  23.429  0.00  0.00    +0.060 A 
ATOM     15  C   UNL     1       7.583  -5.205  22.862  0.00  0.00    +0.159 A 
ATOM     16  C   UNL     1       6.476  -5.456  22.066  0.00  0.00    +0.158 A 
ATOM     17  C   UNL     1       5.658  -4.411  21.682  0.00  0.00    +0.050 A 
BRANCH  15  18
ATOM     18  O   UNL     1       8.458  -6.213  23.148  0.00  0.00    -0.503 OA
ATOM     19  H   UNL     1       8.067  -6.660  23.926  0.00  0.00    +0.292 HD
ENDBRANCH  15  18
BRANCH  16  20
ATOM     20  O   UNL     1       6.226  -6.745  21.694  0.00  0.00    -0.503 OA
ATOM     21  H   UNL     1       6.981  -7.285  21.985  0.00  0.00    +0.292 HD
ENDBRANCH  16  20
ENDBRANCH   1  13
BRANCH   5  22
ATOM     22  O   UNL     1       7.433   2.231  27.335  0.00  0.00    -0.506 OA
ATOM     23  H   UNL     1       8.283   2.634  27.609  0.00  0.00    +0.292 HD
ENDBRANCH   5  22
BRANCH   7  24
ATOM     24  O   UNL     1       8.175   4.020  22.944  0.00  0.00    -0.325 OA
BRANCH  24  25
ATOM     25  S   UNL     1       7.360   5.437  22.905  0.00  0.00    +0.251 S 
ATOM     26  O   UNL     1       8.031   6.403  23.751  0.00  0.00    -0.108 OA
ATOM     27  O   UNL     1       5.946   5.167  23.010  0.00  0.00    -0.108 OA
BRANCH  25  28
ATOM     28  O   UNL     1       7.577   5.920  21.380  0.00  0.00    -0.222 OA
ATOM     29  H   UNL     1       8.542   5.862  21.199  0.00  0.00    +0.248 HD
ENDBRANCH  25  28
ENDBRANCH  24  25
ENDBRANCH   7  24
BRANCH  11  30
ATOM     30  O   UNL     1       6.500  -2.889  26.217  0.00  0.00    -0.453 OA
BRANCH  30  31
ATOM     31  C   UNL     1       5.244  -2.939  26.931  0.00  0.00    +0.340 C 
ATOM     32  O   UNL     1       5.295  -3.888  28.022  0.00  0.00    -0.322 OA
ATOM     33  C   UNL     1       5.313  -5.286  27.687  0.00  0.00    +0.261 C 
ATOM     34  C   UNL     1       4.644  -5.760  26.381  0.00  0.00    +0.185 C 
ATOM     35  C   UNL     1       4.470  -4.661  25.334  0.00  0.00    +0.180 C 
ATOM     36  C   UNL     1       4.062  -3.363  26.037  0.00  0.00    +0.214 C 
BRANCH  33  37
ATOM     37  C   UNL     1       6.726  -5.843  27.785  0.00  0.00    +0.337 C 
ATOM     38  O   UNL     1       7.135  -6.535  28.700  0.00  0.00    -0.248 OA
BRANCH  37  39
ATOM     39  O   UNL     1       7.499  -5.556  26.704  0.00  0.00    -0.479 OA
ATOM     40  H   UNL     1       7.459  -6.231  25.997  0.00  0.00    +0.295 HD
ENDBRANCH  37  39
ENDBRANCH  33  37
BRANCH  34  41
ATOM     41  O   UNL     1       3.326  -6.269  26.700  0.00  0.00    -0.386 OA
ATOM     42  H   UNL     1       2.900  -6.396  25.821  0.00  0.00    +0.210 HD
ENDBRANCH  34  41
BRANCH  35  43
ATOM     43  O   UNL     1       3.452  -5.076  24.406  0.00  0.00    -0.386 OA
ATOM     44  H   UNL     1       3.920  -5.647  23.761  0.00  0.00    +0.210 HD
ENDBRANCH  35  43
BRANCH  36  45
ATOM     45  O   UNL     1       3.611  -2.392  25.096  0.00  0.00    -0.383 OA
ATOM     46  H   UNL     1       2.663  -2.532  24.920  0.00  0.00    +0.210 HD
ENDBRANCH  36  45
ENDBRANCH  30  31
ENDBRANCH  11  30
TORSDOF 14
ENDMDL
MODEL 8
REMARK VINA RESULT:      -6.5      3.176      8.143
REMARK  Name = 
REMARK  14 active torsions:
REMARK  status: ('A' for Active; 'I' for Inactive)
REMARK    1  A    between atoms: C_3  and  O_41
REMARK    2  A    between atoms: C_4  and  O_40
REMARK    3  A    between atoms: C_6  and  C_7
REMARK    4  A    between atoms: C_8  and  O_24
REMARK    5  A    between atoms: C_12  and  O_23
REMARK    6  A    between atoms: C_14  and  O_18
REMARK    7  A    between atoms: O_18  and  S_19
REMARK    8  A    between atoms: S_19  and  O_22
REMARK    9  A    between atoms: O_24  and  C_25
REMARK   10  A    between atoms: C_27  and  O_39
REMARK   11  A    between atoms: C_28  and  O_38
REMARK   12  A    between atoms: C_29  and  O_37
REMARK   13  A    between atoms: C_31  and  C_34
REMARK   14  A    between atoms: C_34  and  O_36
REMARK                            x       y       z     vdW  Elec       q    Type
REMARK                         _______ _______ _______ _____ _____    ______ ____
ROOT
ATOM      1  C   UNL     1       6.641   0.737  24.748  0.00  0.00    +0.181 A 
ATOM      2  O   UNL     1       6.051  -0.526  24.644  0.00  0.00    -0.451 OA
ATOM      3  C   UNL     1       6.814  -1.635  24.406  0.00  0.00    +0.147 A 
ATOM      4  C   UNL     1       8.170  -1.561  24.149  0.00  0.00    +0.109 A 
ATOM      5  C   UNL     1       8.884  -2.747  23.920  0.00  0.00    +0.135 A 
ATOM      6  C   UNL     1       8.249  -3.996  23.954  0.00  0.00    +0.095 A 
ATOM      7  C   UNL     1       6.884  -4.065  24.204  0.00  0.00    +0.166 A 
ATOM      8  C   UNL     1       8.801  -0.232  24.182  0.00  0.00    +0.238 A 
ATOM      9  O   UNL     1      10.009  -0.134  23.979  0.00  0.00    -0.283 OA
ATOM     10  C   UNL     1       6.170  -2.882  24.443  0.00  0.00    +0.096 A 
ATOM     11  C   UNL     1       7.969   0.956  24.562  0.00  0.00    +0.214 A 
ENDROOT
BRANCH   1  13
ATOM     12  C   UNL     1       4.648   2.302  24.441  0.00  0.00    +0.015 A 
ATOM     13  C   UNL     1       5.659   1.755  25.243  0.00  0.00    +0.025 A 
ATOM     14  C   UNL     1       5.816   2.312  26.525  0.00  0.00    +0.060 A 
ATOM     15  C   UNL     1       5.164   3.492  26.862  0.00  0.00    +0.159 A 
ATOM     16  C   UNL     1       4.349   4.140  25.945  0.00  0.00    +0.158 A 
ATOM     17  C   UNL     1       4.038   3.522  24.750  0.00  0.00    +0.050 A 
BRANCH  15  18
ATOM     18  O   UNL     1       5.379   4.047  28.090  0.00  0.00    -0.503 OA
ATOM     19  H   UNL     1       5.854   4.881  27.899  0.00  0.00    +0.292 HD
ENDBRANCH  15  18
BRANCH  16  20
ATOM     20  O   UNL     1       3.889   5.386  26.257  0.00  0.00    -0.503 OA
ATOM     21  H   UNL     1       4.608   5.860  26.709  0.00  0.00    +0.292 HD
ENDBRANCH  16  20
ENDBRANCH   1  13
BRANCH   5  22
ATOM     22  O   UNL     1      10.231  -2.775  23.671  0.00  0.00    -0.506 OA
ATOM     23  H   UNL     1      10.684  -2.193  24.317  0.00  0.00    +0.292 HD
ENDBRANCH   5  22
BRANCH   7  24
ATOM     24  O   UNL     1       6.155  -5.227  24.310  0.00  0.00    -0.325 OA
BRANCH  24  25
ATOM     25  S   UNL     1       5.493  -5.946  22.999  0.00  0.00    +0.251 S 
ATOM     26  O   UNL     1       6.547  -6.447  22.139  0.00  0.00    -0.108 OA
ATOM     27  O   UNL     1       4.419  -5.120  22.503  0.00  0.00    -0.108 OA
BRANCH  25  28
ATOM     28  O   UNL     1       4.763  -7.234  23.642  0.00  0.00    -0.222 OA
ATOM     29  H   UNL     1       5.441  -7.711  24.169  0.00  0.00    +0.248 HD
ENDBRANCH  25  28
ENDBRANCH  24  25
ENDBRANCH   7  24
BRANCH  11  30
ATOM     30  O   UNL     1       8.582   2.210  24.547  0.00  0.00    -0.453 OA
BRANCH  30  31
ATOM     31  C   UNL     1       9.259   2.646  23.347  0.00  0.00    +0.340 C 
ATOM     32  O   UNL     1      10.007   3.863  23.576  0.00  0.00    -0.322 OA
ATOM     33  C   UNL     1       9.261   5.078  23.757  0.00  0.00    +0.261 C 
ATOM     34  C   UNL     1       7.879   5.225  23.087  0.00  0.00    +0.185 C 
ATOM     35  C   UNL     1       7.221   3.896  22.718  0.00  0.00    +0.180 C 
ATOM     36  C   UNL     1       8.291   2.940  22.184  0.00  0.00    +0.214 C 
BRANCH  33  37
ATOM     37  C   UNL     1       9.169   5.438  25.233  0.00  0.00    +0.337 C 
ATOM     38  O   UNL     1       8.416   4.907  26.029  0.00  0.00    -0.248 OA
BRANCH  37  39
ATOM     39  O   UNL     1      10.071   6.380  25.618  0.00  0.00    -0.479 OA
ATOM     40  H   UNL     1      10.357   6.298  26.550  0.00  0.00    +0.295 HD
ENDBRANCH  37  39
ENDBRANCH  33  37
BRANCH  34  41
ATOM     41  O   UNL     1       8.042   5.984  21.864  0.00  0.00    -0.386 OA
ATOM     42  H   UNL     1       7.419   6.740  21.969  0.00  0.00    +0.210 HD
ENDBRANCH  34  41
BRANCH  35  43
ATOM     43  O   UNL     1       6.221   4.150  21.715  0.00  0.00    -0.386 OA
ATOM     44  H   UNL     1       5.997   5.098  21.820  0.00  0.00    +0.210 HD
ENDBRANCH  35  43
BRANCH  36  45
ATOM     45  O   UNL     1       7.697   1.803  21.563  0.00  0.00    -0.383 OA
ATOM     46  H   UNL     1       8.155   1.621  20.723  0.00  0.00    +0.210 HD
ENDBRANCH  36  45
ENDBRANCH  30  31
ENDBRANCH  11  30
TORSDOF 14
ENDMDL
MODEL 9
REMARK VINA RESULT:      -6.5      3.362      7.890
REMARK  Name = 
REMARK  14 active torsions:
REMARK  status: ('A' for Active; 'I' for Inactive)
REMARK    1  A    between atoms: C_3  and  O_41
REMARK    2  A    between atoms: C_4  and  O_40
REMARK    3  A    between atoms: C_6  and  C_7
REMARK    4  A    between atoms: C_8  and  O_24
REMARK    5  A    between atoms: C_12  and  O_23
REMARK    6  A    between atoms: C_14  and  O_18
REMARK    7  A    between atoms: O_18  and  S_19
REMARK    8  A    between atoms: S_19  and  O_22
REMARK    9  A    between atoms: O_24  and  C_25
REMARK   10  A    between atoms: C_27  and  O_39
REMARK   11  A    between atoms: C_28  and  O_38
REMARK   12  A    between atoms: C_29  and  O_37
REMARK   13  A    between atoms: C_31  and  C_34
REMARK   14  A    between atoms: C_34  and  O_36
REMARK                            x       y       z     vdW  Elec       q    Type
REMARK                         _______ _______ _______ _____ _____    ______ ____
ROOT
ATOM      1  C   UNL     1       6.789  -0.931  26.637  0.00  0.00    +0.181 A 
ATOM      2  O   UNL     1       6.028  -1.942  27.232  0.00  0.00    -0.451 OA
ATOM      3  C   UNL     1       6.435  -3.246  27.180  0.00  0.00    +0.147 A 
ATOM      4  C   UNL     1       7.542  -3.648  26.456  0.00  0.00    +0.109 A 
ATOM      5  C   UNL     1       7.898  -5.005  26.457  0.00  0.00    +0.135 A 
ATOM      6  C   UNL     1       7.158  -5.950  27.180  0.00  0.00    +0.095 A 
ATOM      7  C   UNL     1       6.041  -5.542  27.899  0.00  0.00    +0.166 A 
ATOM      8  C   UNL     1       8.319  -2.609  25.761  0.00  0.00    +0.238 A 
ATOM      9  O   UNL     1       9.321  -2.931  25.127  0.00  0.00    -0.283 OA
ATOM     10  C   UNL     1       5.689  -4.185  27.908  0.00  0.00    +0.096 A 
ATOM     11  C   UNL     1       7.924  -1.173  25.930  0.00  0.00    +0.214 A 
ENDROOT
BRANCH   1  13
ATOM     12  C   UNL     1       5.213   1.059  26.375  0.00  0.00    +0.015 A 
ATOM     13  C   UNL     1       6.283   0.426  27.022  0.00  0.00    +0.025 A 
ATOM     14  C   UNL     1       6.980   1.186  27.978  0.00  0.00    +0.060 A 
ATOM     15  C   UNL     1       6.760   2.555  28.083  0.00  0.00    +0.159 A 
ATOM     16  C   UNL     1       5.854   3.194  27.250  0.00  0.00    +0.158 A 
ATOM     17  C   UNL     1       5.031   2.445  26.431  0.00  0.00    +0.050 A 
BRANCH  15  18
ATOM     18  O   UNL     1       7.492   3.282  28.976  0.00  0.00    -0.503 OA
ATOM     19  H   UNL     1       6.866   3.470  29.705  0.00  0.00    +0.292 HD
ENDBRANCH  15  18
BRANCH  16  20
ATOM     20  O   UNL     1       5.815   4.557  27.261  0.00  0.00    -0.503 OA
ATOM     21  H   UNL     1       6.652   4.871  27.648  0.00  0.00    +0.292 HD
ENDBRANCH  16  20
ENDBRANCH   1  13
BRANCH   5  22
ATOM     22  O   UNL     1       8.985  -5.495  25.782  0.00  0.00    -0.506 OA
ATOM     23  H   UNL     1       9.695  -4.820  25.792  0.00  0.00    +0.292 HD
ENDBRANCH   5  22
BRANCH   7  24
ATOM     24  O   UNL     1       5.261  -6.361  28.684  0.00  0.00    -0.325 OA
BRANCH  24  25
ATOM     25  S   UNL     1       3.655  -6.523  28.424  0.00  0.00    +0.251 S 
ATOM     26  O   UNL     1       3.420  -6.798  27.021  0.00  0.00    -0.108 OA
ATOM     27  O   UNL     1       2.958  -5.479  29.135  0.00  0.00    -0.108 OA
BRANCH  25  28
ATOM     28  O   UNL     1       3.308  -7.877  29.231  0.00  0.00    -0.222 OA
ATOM     29  H   UNL     1       4.124  -8.426  29.228  0.00  0.00    +0.248 HD
ENDBRANCH  25  28
ENDBRANCH  24  25
ENDBRANCH   7  24
BRANCH  11  30
ATOM     30  O   UNL     1       8.653  -0.212  25.229  0.00  0.00    -0.453 OA
BRANCH  30  31
ATOM     31  C   UNL     1       7.951   0.713  24.368  0.00  0.00    +0.340 C 
ATOM     32  O   UNL     1       7.776   0.168  23.040  0.00  0.00    -0.322 OA
ATOM     33  C   UNL     1       8.942   0.068  22.203  0.00  0.00    +0.261 C 
ATOM     34  C   UNL     1      10.104   1.062  22.402  0.00  0.00    +0.185 C 
ATOM     35  C   UNL     1      10.126   1.728  23.777  0.00  0.00    +0.180 C 
ATOM     36  C   UNL     1       8.691   2.055  24.197  0.00  0.00    +0.214 C 
BRANCH  33  37
ATOM     37  C   UNL     1       9.469  -1.360  22.187  0.00  0.00    +0.337 C 
ATOM     38  O   UNL     1       9.026  -2.253  21.488  0.00  0.00    -0.248 OA
BRANCH  37  39
ATOM     39  O   UNL     1      10.551  -1.547  22.988  0.00  0.00    -0.479 OA
ATOM     40  H   UNL     1      11.407  -1.496  22.517  0.00  0.00    +0.295 HD
ENDBRANCH  37  39
ENDBRANCH  33  37
BRANCH  34  41
ATOM     41  O   UNL     1       9.982   2.112  21.412  0.00  0.00    -0.386 OA
ATOM     42  H   UNL     1       9.141   2.566  21.649  0.00  0.00    +0.210 HD
ENDBRANCH  34  41
BRANCH  35  43
ATOM     43  O   UNL     1      10.913   2.929  23.685  0.00  0.00    -0.386 OA
ATOM     44  H   UNL     1      11.223   2.954  22.755  0.00  0.00    +0.210 HD
ENDBRANCH  35  43
BRANCH  36  45
ATOM     45  O   UNL     1       8.673   2.925  25.325  0.00  0.00    -0.383 OA
ATOM     46  H   UNL     1       8.034   3.643  25.167  0.00  0.00    +0.210 HD
ENDBRANCH  36  45
ENDBRANCH  30  31
ENDBRANCH  11  30
TORSDOF 14
ENDMDL
