MODEL 1
REMARK VINA RESULT:      -7.9      0.000      0.000
REMARK  Name = 
REMARK  11 active torsions:
REMARK  status: ('A' for Active; 'I' for Inactive)
REMARK    1  A    between atoms: C_1  and  C_2
REMARK    2  A    between atoms: C_2  and  C_3
REMARK    3  A    between atoms: C_2  and  O_28
REMARK    4  A    between atoms: C_3  and  O_5
REMARK    5  A    between atoms: O_5  and  C_6
REMARK    6  A    between atoms: C_7  and  O_27
REMARK    7  A    between atoms: C_11  and  O_12
REMARK    8  A    between atoms: C_14  and  C_19
REMARK    9  A    between atoms: C_15  and  O_18
REMARK   10  A    between atoms: C_21  and  O_26
REMARK   11  A    between atoms: C_22  and  O_25
REMARK                            x       y       z     vdW  Elec       q    Type
REMARK                         _______ _______ _______ _____ _____    ______ ____
ROOT
ATOM      1  C   UNL     1       8.229  -2.221  23.368  0.00  0.00    +0.215 A 
ATOM      2  C   UNL     1       9.530  -2.118  23.869  0.00  0.00    +0.166 A 
ATOM      3  C   UNL     1      10.111  -0.869  24.057  0.00  0.00    +0.096 A 
ATOM      4  C   UNL     1       9.399   0.283  23.699  0.00  0.00    +0.147 A 
ATOM      5  O   UNL     1      10.049   1.480  23.902  0.00  0.00    -0.451 OA
ATOM      6  C   UNL     1       9.487   2.642  23.391  0.00  0.00    +0.181 A 
ATOM      7  C   UNL     1       8.296   2.673  22.755  0.00  0.00    +0.208 A 
ATOM      8  C   UNL     1       7.469   1.432  22.691  0.00  0.00    +0.238 A 
ATOM      9  O   UNL     1       6.334   1.470  22.235  0.00  0.00    -0.283 OA
ATOM     10  C   UNL     1       8.117   0.187  23.150  0.00  0.00    +0.113 A 
ATOM     11  C   UNL     1       7.523  -1.076  22.994  0.00  0.00    +0.178 A 
ENDROOT
BRANCH   6  12
ATOM     12  C   UNL     1      10.338   3.855  23.566  0.00  0.00    +0.025 A 
ATOM     13  C   UNL     1       9.810   5.039  24.111  0.00  0.00    +0.015 A 
ATOM     14  C   UNL     1      10.637   6.135  24.391  0.00  0.00    +0.050 A 
ATOM     15  C   UNL     1      11.998   6.044  24.144  0.00  0.00    +0.158 A 
ATOM     16  C   UNL     1      12.530   4.905  23.555  0.00  0.00    +0.159 A 
ATOM     17  C   UNL     1      11.705   3.839  23.217  0.00  0.00    +0.060 A 
BRANCH  15  18
ATOM     18  O   UNL     1      12.818   7.073  24.502  0.00  0.00    -0.503 OA
ATOM     19  H   UNL     1      12.942   6.968  25.466  0.00  0.00    +0.292 HD
ENDBRANCH  15  18
BRANCH  16  20
ATOM     20  O   UNL     1      13.883   4.858  23.360  0.00  0.00    -0.503 OA
ATOM     21  H   UNL     1      14.060   4.388  22.526  0.00  0.00    +0.292 HD
ENDBRANCH  16  20
ENDBRANCH   6  12
BRANCH   2  22
ATOM     22  O   UNL     1      10.249  -3.254  24.110  0.00  0.00    -0.503 OA
ATOM     23  H   UNL     1      10.102  -3.548  25.025  0.00  0.00    +0.292 HD
ENDBRANCH   2  22
BRANCH   7  24
ATOM     24  O   UNL     1       7.768   3.789  22.121  0.00  0.00    -0.501 OA
ATOM     25  H   UNL     1       6.933   3.525  21.702  0.00  0.00    +0.292 HD
ENDBRANCH   7  24
BRANCH  11  26
ATOM     26  O   UNL     1       6.283  -1.213  22.437  0.00  0.00    -0.503 OA
ATOM     27  H   UNL     1       6.307  -1.931  21.783  0.00  0.00    +0.292 HD
ENDBRANCH  11  26
BRANCH   1  28
ATOM     28  O   UNL     1       7.668  -3.468  23.050  0.00  0.00    -0.417 OA
BRANCH  28  29
ATOM     29  C   UNL     1       6.836  -4.006  24.029  0.00  0.00    +0.341 C 
ATOM     30  O   UNL     1       5.739  -3.578  24.357  0.00  0.00    -0.247 OA
BRANCH  29  32
ATOM     31  C   UNL     1       7.915  -4.998  26.084  0.00  0.00    +0.050 C 
ATOM     32  C   UNL     1       7.530  -5.239  24.638  0.00  0.00    +0.220 C 
BRANCH  32  33
ATOM     33  O   UNL     1       8.693  -5.642  23.919  0.00  0.00    -0.381 OA
ATOM     34  H   UNL     1       8.655  -6.612  23.827  0.00  0.00    +0.210 HD
ENDBRANCH  32  33
ENDBRANCH  29  32
ENDBRANCH  28  29
ENDBRANCH   1  28
TORSDOF 10
ENDMDL
MODEL 2
REMARK VINA RESULT:      -7.5      2.139      9.188
REMARK  Name = 
REMARK  11 active torsions:
REMARK  status: ('A' for Active; 'I' for Inactive)
REMARK    1  A    between atoms: C_1  and  C_2
REMARK    2  A    between atoms: C_2  and  C_3
REMARK    3  A    between atoms: C_2  and  O_28
REMARK    4  A    between atoms: C_3  and  O_5
REMARK    5  A    between atoms: O_5  and  C_6
REMARK    6  A    between atoms: C_7  and  O_27
REMARK    7  A    between atoms: C_11  and  O_12
REMARK    8  A    between atoms: C_14  and  C_19
REMARK    9  A    between atoms: C_15  and  O_18
REMARK   10  A    between atoms: C_21  and  O_26
REMARK   11  A    between atoms: C_22  and  O_25
REMARK                            x       y       z     vdW  Elec       q    Type
REMARK                         _______ _______ _______ _____ _____    ______ ____
ROOT
ATOM      1  C   UNL     1       8.570   0.677  23.016  0.00  0.00    +0.215 A 
ATOM      2  C   UNL     1       7.178   0.758  23.112  0.00  0.00    +0.166 A 
ATOM      3  C   UNL     1       6.440  -0.342  23.535  0.00  0.00    +0.096 A 
ATOM      4  C   UNL     1       7.099  -1.544  23.823  0.00  0.00    +0.147 A 
ATOM      5  O   UNL     1       6.297  -2.590  24.220  0.00  0.00    -0.451 OA
ATOM      6  C   UNL     1       6.853  -3.857  24.331  0.00  0.00    +0.181 A 
ATOM      7  C   UNL     1       8.164  -4.112  24.127  0.00  0.00    +0.208 A 
ATOM      8  C   UNL     1       9.102  -2.974  23.890  0.00  0.00    +0.238 A 
ATOM      9  O   UNL     1      10.309  -3.171  23.834  0.00  0.00    -0.283 OA
ATOM     10  C   UNL     1       8.486  -1.649  23.681  0.00  0.00    +0.113 A 
ATOM     11  C   UNL     1       9.229  -0.525  23.285  0.00  0.00    +0.178 A 
ENDROOT
BRANCH   6  12
ATOM     12  C   UNL     1       5.865  -4.928  24.649  0.00  0.00    +0.025 A 
ATOM     13  C   UNL     1       4.974  -5.407  23.672  0.00  0.00    +0.015 A 
ATOM     14  C   UNL     1       4.134  -6.497  23.936  0.00  0.00    +0.050 A 
ATOM     15  C   UNL     1       4.194  -7.123  25.170  0.00  0.00    +0.158 A 
ATOM     16  C   UNL     1       5.026  -6.632  26.166  0.00  0.00    +0.159 A 
ATOM     17  C   UNL     1       5.816  -5.513  25.933  0.00  0.00    +0.060 A 
BRANCH  15  18
ATOM     18  O   UNL     1       3.446  -8.240  25.397  0.00  0.00    -0.503 OA
ATOM     19  H   UNL     1       3.807  -8.619  26.223  0.00  0.00    +0.292 HD
ENDBRANCH  15  18
BRANCH  16  20
ATOM     20  O   UNL     1       5.068  -7.306  27.356  0.00  0.00    -0.503 OA
ATOM     21  H   UNL     1       5.387  -6.697  28.046  0.00  0.00    +0.292 HD
ENDBRANCH  16  20
ENDBRANCH   6  12
BRANCH   2  22
ATOM     22  O   UNL     1       6.543   1.903  22.724  0.00  0.00    -0.503 OA
ATOM     23  H   UNL     1       6.844   2.648  23.273  0.00  0.00    +0.292 HD
ENDBRANCH   2  22
BRANCH   7  24
ATOM     24  O   UNL     1       8.728  -5.380  24.102  0.00  0.00    -0.501 OA
ATOM     25  H   UNL     1       9.680  -5.279  23.939  0.00  0.00    +0.292 HD
ENDBRANCH   7  24
BRANCH  11  26
ATOM     26  O   UNL     1      10.582  -0.594  23.110  0.00  0.00    -0.503 OA
ATOM     27  H   UNL     1      10.774  -0.697  22.163  0.00  0.00    +0.292 HD
ENDBRANCH  11  26
BRANCH   1  28
ATOM     28  O   UNL     1       9.325   1.729  22.472  0.00  0.00    -0.417 OA
BRANCH  28  29
ATOM     29  C   UNL     1      10.021   2.496  23.403  0.00  0.00    +0.341 C 
ATOM     30  O   UNL     1      11.041   2.165  23.991  0.00  0.00    -0.247 OA
BRANCH  29  32
ATOM     31  C   UNL     1       8.537   3.899  24.884  0.00  0.00    +0.050 C 
ATOM     32  C   UNL     1       9.292   3.842  23.571  0.00  0.00    +0.220 C 
BRANCH  32  33
ATOM     33  O   UNL     1       8.383   4.126  22.511  0.00  0.00    -0.381 OA
ATOM     34  H   UNL     1       7.658   3.475  22.569  0.00  0.00    +0.210 HD
ENDBRANCH  32  33
ENDBRANCH  29  32
ENDBRANCH  28  29
ENDBRANCH   1  28
TORSDOF 10
ENDMDL
MODEL 3
REMARK VINA RESULT:      -7.2      3.216      6.137
REMARK  Name = 
REMARK  11 active torsions:
REMARK  status: ('A' for Active; 'I' for Inactive)
REMARK    1  A    between atoms: C_1  and  C_2
REMARK    2  A    between atoms: C_2  and  C_3
REMARK    3  A    between atoms: C_2  and  O_28
REMARK    4  A    between atoms: C_3  and  O_5
REMARK    5  A    between atoms: O_5  and  C_6
REMARK    6  A    between atoms: C_7  and  O_27
REMARK    7  A    between atoms: C_11  and  O_12
REMARK    8  A    between atoms: C_14  and  C_19
REMARK    9  A    between atoms: C_15  and  O_18
REMARK   10  A    between atoms: C_21  and  O_26
REMARK   11  A    between atoms: C_22  and  O_25
REMARK                            x       y       z     vdW  Elec       q    Type
REMARK                         _______ _______ _______ _____ _____    ______ ____
ROOT
ATOM      1  C   UNL     1       5.040  -6.450  24.488  0.00  0.00    +0.215 A 
ATOM      2  C   UNL     1       4.849  -5.891  23.222  0.00  0.00    +0.166 A 
ATOM      3  C   UNL     1       5.569  -4.765  22.838  0.00  0.00    +0.096 A 
ATOM      4  C   UNL     1       6.455  -4.171  23.746  0.00  0.00    +0.147 A 
ATOM      5  O   UNL     1       7.119  -3.052  23.296  0.00  0.00    -0.451 OA
ATOM      6  C   UNL     1       7.857  -2.301  24.200  0.00  0.00    +0.181 A 
ATOM      7  C   UNL     1       8.014  -2.646  25.497  0.00  0.00    +0.208 A 
ATOM      8  C   UNL     1       7.477  -3.954  25.976  0.00  0.00    +0.238 A 
ATOM      9  O   UNL     1       7.721  -4.343  27.110  0.00  0.00    -0.283 OA
ATOM     10  C   UNL     1       6.614  -4.694  25.033  0.00  0.00    +0.113 A 
ATOM     11  C   UNL     1       5.909  -5.851  25.403  0.00  0.00    +0.178 A 
ENDROOT
BRANCH   6  12
ATOM     12  C   UNL     1       8.429  -1.050  23.626  0.00  0.00    +0.025 A 
ATOM     13  C   UNL     1       9.820  -0.853  23.556  0.00  0.00    +0.015 A 
ATOM     14  C   UNL     1      10.358   0.265  22.904  0.00  0.00    +0.050 A 
ATOM     15  C   UNL     1       9.508   1.180  22.303  0.00  0.00    +0.158 A 
ATOM     16  C   UNL     1       8.132   1.033  22.409  0.00  0.00    +0.159 A 
ATOM     17  C   UNL     1       7.592  -0.039  23.108  0.00  0.00    +0.060 A 
BRANCH  15  18
ATOM     18  O   UNL     1      10.031   2.217  21.589  0.00  0.00    -0.503 OA
ATOM     19  H   UNL     1       9.258   2.639  21.162  0.00  0.00    +0.292 HD
ENDBRANCH  15  18
BRANCH  16  20
ATOM     20  O   UNL     1       7.340   1.950  21.772  0.00  0.00    -0.503 OA
ATOM     21  H   UNL     1       7.091   1.593  20.901  0.00  0.00    +0.292 HD
ENDBRANCH  16  20
ENDBRANCH   6  12
BRANCH   2  22
ATOM     22  O   UNL     1       3.903  -6.418  22.390  0.00  0.00    -0.503 OA
ATOM     23  H   UNL     1       3.102  -5.865  22.410  0.00  0.00    +0.292 HD
ENDBRANCH   2  22
BRANCH   7  24
ATOM     24  O   UNL     1       8.634  -1.856  26.455  0.00  0.00    -0.501 OA
ATOM     25  H   UNL     1       8.268  -2.097  27.321  0.00  0.00    +0.292 HD
ENDBRANCH   7  24
BRANCH  11  26
ATOM     26  O   UNL     1       6.018  -6.377  26.659  0.00  0.00    -0.503 OA
ATOM     27  H   UNL     1       6.914  -6.738  26.775  0.00  0.00    +0.292 HD
ENDBRANCH  11  26
BRANCH   1  28
ATOM     28  O   UNL     1       4.236  -7.507  24.946  0.00  0.00    -0.417 OA
BRANCH  28  29
ATOM     29  C   UNL     1       3.031  -7.120  25.528  0.00  0.00    +0.341 C 
ATOM     30  O   UNL     1       2.900  -6.362  26.479  0.00  0.00    -0.247 OA
BRANCH  29  32
ATOM     31  C   UNL     1       1.128  -8.770  25.669  0.00  0.00    +0.050 C 
ATOM     32  C   UNL     1       1.879  -7.808  24.772  0.00  0.00    +0.220 C 
BRANCH  32  33
ATOM     33  O   UNL     1       2.310  -8.511  23.610  0.00  0.00    -0.381 OA
ATOM     34  H   UNL     1       3.196  -8.872  23.802  0.00  0.00    +0.210 HD
ENDBRANCH  32  33
ENDBRANCH  29  32
ENDBRANCH  28  29
ENDBRANCH   1  28
TORSDOF 10
ENDMDL
MODEL 4
REMARK VINA RESULT:      -7.1      2.623      4.635
REMARK  Name = 
REMARK  11 active torsions:
REMARK  status: ('A' for Active; 'I' for Inactive)
REMARK    1  A    between atoms: C_1  and  C_2
REMARK    2  A    between atoms: C_2  and  C_3
REMARK    3  A    between atoms: C_2  and  O_28
REMARK    4  A    between atoms: C_3  and  O_5
REMARK    5  A    between atoms: O_5  and  C_6
REMARK    6  A    between atoms: C_7  and  O_27
REMARK    7  A    between atoms: C_11  and  O_12
REMARK    8  A    between atoms: C_14  and  C_19
REMARK    9  A    between atoms: C_15  and  O_18
REMARK   10  A    between atoms: C_21  and  O_26
REMARK   11  A    between atoms: C_22  and  O_25
REMARK                            x       y       z     vdW  Elec       q    Type
REMARK                         _______ _______ _______ _____ _____    ______ ____
ROOT
ATOM      1  C   UNL     1       6.294  -5.242  25.850  0.00  0.00    +0.215 A 
ATOM      2  C   UNL     1       6.595  -4.366  26.896  0.00  0.00    +0.166 A 
ATOM      3  C   UNL     1       7.118  -3.106  26.625  0.00  0.00    +0.096 A 
ATOM      4  C   UNL     1       7.380  -2.739  25.299  0.00  0.00    +0.147 A 
ATOM      5  O   UNL     1       7.911  -1.482  25.116  0.00  0.00    -0.451 OA
ATOM      6  C   UNL     1       8.377  -1.129  23.857  0.00  0.00    +0.181 A 
ATOM      7  C   UNL     1       8.280  -1.934  22.777  0.00  0.00    +0.208 A 
ATOM      8  C   UNL     1       7.534  -3.222  22.890  0.00  0.00    +0.238 A 
ATOM      9  O   UNL     1       7.323  -3.903  21.895  0.00  0.00    -0.283 OA
ATOM     10  C   UNL     1       7.129  -3.629  24.251  0.00  0.00    +0.113 A 
ATOM     11  C   UNL     1       6.570  -4.887  24.528  0.00  0.00    +0.178 A 
ENDROOT
BRANCH   6  12
ATOM     12  C   UNL     1       9.038   0.207  23.808  0.00  0.00    +0.025 A 
ATOM     13  C   UNL     1      10.363   0.377  24.250  0.00  0.00    +0.015 A 
ATOM     14  C   UNL     1      11.025   1.601  24.088  0.00  0.00    +0.050 A 
ATOM     15  C   UNL     1      10.372   2.654  23.467  0.00  0.00    +0.158 A 
ATOM     16  C   UNL     1       9.047   2.524  23.074  0.00  0.00    +0.159 A 
ATOM     17  C   UNL     1       8.365   1.333  23.289  0.00  0.00    +0.060 A 
BRANCH  15  18
ATOM     18  O   UNL     1      11.044   3.815  23.224  0.00  0.00    -0.503 OA
ATOM     19  H   UNL     1      11.517   3.657  22.383  0.00  0.00    +0.292 HD
ENDBRANCH  15  18
BRANCH  16  20
ATOM     20  O   UNL     1       8.460   3.585  22.440  0.00  0.00    -0.503 OA
ATOM     21  H   UNL     1       8.978   4.387  22.634  0.00  0.00    +0.292 HD
ENDBRANCH  16  20
ENDBRANCH   6  12
BRANCH   2  22
ATOM     22  O   UNL     1       6.435  -4.780  28.187  0.00  0.00    -0.503 OA
ATOM     23  H   UNL     1       6.781  -5.683  28.289  0.00  0.00    +0.292 HD
ENDBRANCH   2  22
BRANCH   7  24
ATOM     24  O   UNL     1       8.849  -1.667  21.539  0.00  0.00    -0.501 OA
ATOM     25  H   UNL     1       8.760  -2.466  20.993  0.00  0.00    +0.292 HD
ENDBRANCH   7  24
BRANCH  11  26
ATOM     26  O   UNL     1       6.334  -5.793  23.533  0.00  0.00    -0.503 OA
ATOM     27  H   UNL     1       5.576  -5.493  23.004  0.00  0.00    +0.292 HD
ENDBRANCH  11  26
BRANCH   1  28
ATOM     28  O   UNL     1       5.886  -6.562  26.101  0.00  0.00    -0.417 OA
BRANCH  28  29
ATOM     29  C   UNL     1       4.565  -6.700  26.521  0.00  0.00    +0.341 C 
ATOM     30  O   UNL     1       4.169  -6.663  27.678  0.00  0.00    -0.247 OA
BRANCH  29  32
ATOM     31  C   UNL     1       2.343  -7.525  25.656  0.00  0.00    +0.050 C 
ATOM     32  C   UNL     1       3.675  -6.909  25.281  0.00  0.00    +0.220 C 
BRANCH  32  33
ATOM     33  O   UNL     1       4.287  -7.721  24.281  0.00  0.00    -0.381 OA
ATOM     34  H   UNL     1       4.823  -8.392  24.742  0.00  0.00    +0.210 HD
ENDBRANCH  32  33
ENDBRANCH  29  32
ENDBRANCH  28  29
ENDBRANCH   1  28
TORSDOF 10
ENDMDL
MODEL 5
REMARK VINA RESULT:      -7.1      2.017      8.554
REMARK  Name = 
REMARK  11 active torsions:
REMARK  status: ('A' for Active; 'I' for Inactive)
REMARK    1  A    between atoms: C_1  and  C_2
REMARK    2  A    between atoms: C_2  and  C_3
REMARK    3  A    between atoms: C_2  and  O_28
REMARK    4  A    between atoms: C_3  and  O_5
REMARK    5  A    between atoms: O_5  and  C_6
REMARK    6  A    between atoms: C_7  and  O_27
REMARK    7  A    between atoms: C_11  and  O_12
REMARK    8  A    between atoms: C_14  and  C_19
REMARK    9  A    between atoms: C_15  and  O_18
REMARK   10  A    between atoms: C_21  and  O_26
REMARK   11  A    between atoms: C_22  and  O_25
REMARK                            x       y       z     vdW  Elec       q    Type
REMARK                         _______ _______ _______ _____ _____    ______ ____
ROOT
ATOM      1  C   UNL     1       9.194   3.100  23.838  0.00  0.00    +0.215 A 
ATOM      2  C   UNL     1       8.506   2.965  25.047  0.00  0.00    +0.166 A 
ATOM      3  C   UNL     1       8.085   1.710  25.475  0.00  0.00    +0.096 A 
ATOM      4  C   UNL     1       8.317   0.591  24.665  0.00  0.00    +0.147 A 
ATOM      5  O   UNL     1       7.857  -0.611  25.152  0.00  0.00    -0.451 OA
ATOM      6  C   UNL     1       7.875  -1.722  24.320  0.00  0.00    +0.181 A 
ATOM      7  C   UNL     1       8.383  -1.704  23.068  0.00  0.00    +0.208 A 
ATOM      8  C   UNL     1       9.071  -0.473  22.577  0.00  0.00    +0.238 A 
ATOM      9  O   UNL     1       9.650  -0.479  21.498  0.00  0.00    -0.283 OA
ATOM     10  C   UNL     1       8.960   0.727  23.430  0.00  0.00    +0.113 A 
ATOM     11  C   UNL     1       9.412   1.990  23.019  0.00  0.00    +0.178 A 
ENDROOT
BRANCH   6  12
ATOM     12  C   UNL     1       7.242  -2.935  24.913  0.00  0.00    +0.025 A 
ATOM     13  C   UNL     1       5.935  -3.316  24.561  0.00  0.00    +0.015 A 
ATOM     14  C   UNL     1       5.386  -4.521  25.021  0.00  0.00    +0.050 A 
ATOM     15  C   UNL     1       6.150  -5.357  25.820  0.00  0.00    +0.158 A 
ATOM     16  C   UNL     1       7.421  -4.974  26.224  0.00  0.00    +0.159 A 
ATOM     17  C   UNL     1       7.946  -3.752  25.823  0.00  0.00    +0.060 A 
BRANCH  15  18
ATOM     18  O   UNL     1       5.653  -6.572  26.192  0.00  0.00    -0.503 OA
ATOM     19  H   UNL     1       5.476  -7.036  25.349  0.00  0.00    +0.292 HD
ENDBRANCH  15  18
BRANCH  16  20
ATOM     20  O   UNL     1       8.141  -5.851  26.989  0.00  0.00    -0.503 OA
ATOM     21  H   UNL     1       8.968  -5.415  27.263  0.00  0.00    +0.292 HD
ENDBRANCH  16  20
ENDBRANCH   6  12
BRANCH   2  22
ATOM     22  O   UNL     1       8.193   4.078  25.772  0.00  0.00    -0.503 OA
ATOM     23  H   UNL     1       8.651   4.052  26.630  0.00  0.00    +0.292 HD
ENDBRANCH   2  22
BRANCH   7  24
ATOM     24  O   UNL     1       8.301  -2.756  22.167  0.00  0.00    -0.501 OA
ATOM     25  H   UNL     1       9.067  -2.699  21.573  0.00  0.00    +0.292 HD
ENDBRANCH   7  24
BRANCH  11  26
ATOM     26  O   UNL     1      10.021   2.168  21.809  0.00  0.00    -0.503 OA
ATOM     27  H   UNL     1      10.832   2.688  21.935  0.00  0.00    +0.292 HD
ENDBRANCH  11  26
BRANCH   1  28
ATOM     28  O   UNL     1       9.517   4.367  23.323  0.00  0.00    -0.417 OA
BRANCH  28  29
ATOM     29  C   UNL     1      10.822   4.787  23.571  0.00  0.00    +0.341 C 
ATOM     30  O   UNL     1      11.841   4.157  23.327  0.00  0.00    -0.247 OA
BRANCH  29  32
ATOM     31  C   UNL     1      12.115   6.577  24.792  0.00  0.00    +0.050 C 
ATOM     32  C   UNL     1      10.771   6.189  24.209  0.00  0.00    +0.220 C 
BRANCH  32  33
ATOM     33  O   UNL     1       9.781   6.307  25.227  0.00  0.00    -0.381 OA
ATOM     34  H   UNL     1       9.059   6.855  24.867  0.00  0.00    +0.210 HD
ENDBRANCH  32  33
ENDBRANCH  29  32
ENDBRANCH  28  29
ENDBRANCH   1  28
TORSDOF 10
ENDMDL
MODEL 6
REMARK VINA RESULT:      -7.1      2.581      3.729
REMARK  Name = 
REMARK  11 active torsions:
REMARK  status: ('A' for Active; 'I' for Inactive)
REMARK    1  A    between atoms: C_1  and  C_2
REMARK    2  A    between atoms: C_2  and  C_3
REMARK    3  A    between atoms: C_2  and  O_28
REMARK    4  A    between atoms: C_3  and  O_5
REMARK    5  A    between atoms: O_5  and  C_6
REMARK    6  A    between atoms: C_7  and  O_27
REMARK    7  A    between atoms: C_11  and  O_12
REMARK    8  A    between atoms: C_14  and  C_19
REMARK    9  A    between atoms: C_15  and  O_18
REMARK   10  A    between atoms: C_21  and  O_26
REMARK   11  A    between atoms: C_22  and  O_25
REMARK                            x       y       z     vdW  Elec       q    Type
REMARK                         _______ _______ _______ _____ _____    ______ ____
ROOT
ATOM      1  C   UNL     1       7.970  -3.350  23.149  0.00  0.00    +0.215 A 
ATOM      2  C   UNL     1       6.660  -2.960  22.858  0.00  0.00    +0.166 A 
ATOM      3  C   UNL     1       6.337  -1.610  22.761  0.00  0.00    +0.096 A 
ATOM      4  C   UNL     1       7.325  -0.647  23.000  0.00  0.00    +0.147 A 
ATOM      5  O   UNL     1       6.922   0.666  22.900  0.00  0.00    -0.451 OA
ATOM      6  C   UNL     1       7.790   1.667  23.315  0.00  0.00    +0.181 A 
ATOM      7  C   UNL     1       9.044   1.425  23.757  0.00  0.00    +0.208 A 
ATOM      8  C   UNL     1       9.587   0.036  23.693  0.00  0.00    +0.238 A 
ATOM      9  O   UNL     1      10.760  -0.181  23.965  0.00  0.00    -0.283 OA
ATOM     10  C   UNL     1       8.626  -1.029  23.343  0.00  0.00    +0.113 A 
ATOM     11  C   UNL     1       8.953  -2.393  23.406  0.00  0.00    +0.178 A 
ENDROOT
BRANCH   6  12
ATOM     12  C   UNL     1       7.201   3.036  23.274  0.00  0.00    +0.025 A 
ATOM     13  C   UNL     1       6.365   3.497  24.305  0.00  0.00    +0.015 A 
ATOM     14  C   UNL     1       5.914   4.824  24.329  0.00  0.00    +0.050 A 
ATOM     15  C   UNL     1       6.313   5.699  23.332  0.00  0.00    +0.158 A 
ATOM     16  C   UNL     1       7.093   5.250  22.275  0.00  0.00    +0.159 A 
ATOM     17  C   UNL     1       7.491   3.920  22.212  0.00  0.00    +0.060 A 
BRANCH  15  18
ATOM     18  O   UNL     1       5.953   7.012  23.403  0.00  0.00    -0.503 OA
ATOM     19  H   UNL     1       5.009   6.997  23.662  0.00  0.00    +0.292 HD
ENDBRANCH  15  18
BRANCH  16  20
ATOM     20  O   UNL     1       7.482   6.163  21.333  0.00  0.00    -0.503 OA
ATOM     21  H   UNL     1       7.856   5.683  20.573  0.00  0.00    +0.292 HD
ENDBRANCH  16  20
ENDBRANCH   6  12
BRANCH   2  22
ATOM     22  O   UNL     1       5.687  -3.910  22.734  0.00  0.00    -0.503 OA
ATOM     23  H   UNL     1       4.881  -3.617  23.194  0.00  0.00    +0.292 HD
ENDBRANCH   2  22
BRANCH   7  24
ATOM     24  O   UNL     1       9.889   2.384  24.298  0.00  0.00    -0.501 OA
ATOM     25  H   UNL     1      10.092   3.029  23.601  0.00  0.00    +0.292 HD
ENDBRANCH   7  24
BRANCH  11  26
ATOM     26  O   UNL     1      10.206  -2.806  23.761  0.00  0.00    -0.503 OA
ATOM     27  H   UNL     1      10.379  -2.539  24.680  0.00  0.00    +0.292 HD
ENDBRANCH  11  26
BRANCH   1  28
ATOM     28  O   UNL     1       8.294  -4.698  23.377  0.00  0.00    -0.417 OA
BRANCH  28  29
ATOM     29  C   UNL     1       7.814  -5.224  24.574  0.00  0.00    +0.341 C 
ATOM     30  O   UNL     1       6.646  -5.481  24.832  0.00  0.00    -0.247 OA
BRANCH  29  32
ATOM     31  C   UNL     1       9.000  -4.408  26.646  0.00  0.00    +0.050 C 
ATOM     32  C   UNL     1       9.004  -5.432  25.530  0.00  0.00    +0.220 C 
BRANCH  32  33
ATOM     33  O   UNL     1      10.268  -5.384  24.872  0.00  0.00    -0.381 OA
ATOM     34  H   UNL     1      10.514  -6.301  24.650  0.00  0.00    +0.210 HD
ENDBRANCH  32  33
ENDBRANCH  29  32
ENDBRANCH  28  29
ENDBRANCH   1  28
TORSDOF 10
ENDMDL
MODEL 7
REMARK VINA RESULT:      -7.0      2.128      8.971
REMARK  Name = 
REMARK  11 active torsions:
REMARK  status: ('A' for Active; 'I' for Inactive)
REMARK    1  A    between atoms: C_1  and  C_2
REMARK    2  A    between atoms: C_2  and  C_3
REMARK    3  A    between atoms: C_2  and  O_28
REMARK    4  A    between atoms: C_3  and  O_5
REMARK    5  A    between atoms: O_5  and  C_6
REMARK    6  A    between atoms: C_7  and  O_27
REMARK    7  A    between atoms: C_11  and  O_12
REMARK    8  A    between atoms: C_14  and  C_19
REMARK    9  A    between atoms: C_15  and  O_18
REMARK   10  A    between atoms: C_21  and  O_26
REMARK   11  A    between atoms: C_22  and  O_25
REMARK                            x       y       z     vdW  Elec       q    Type
REMARK                         _______ _______ _______ _____ _____    ______ ____
ROOT
ATOM      1  C   UNL     1       7.793   0.593  22.801  0.00  0.00    +0.215 A 
ATOM      2  C   UNL     1       6.528   0.560  23.393  0.00  0.00    +0.166 A 
ATOM      3  C   UNL     1       6.169  -0.503  24.216  0.00  0.00    +0.096 A 
ATOM      4  C   UNL     1       7.068  -1.559  24.410  0.00  0.00    +0.147 A 
ATOM      5  O   UNL     1       6.632  -2.579  25.224  0.00  0.00    -0.451 OA
ATOM      6  C   UNL     1       7.386  -3.742  25.303  0.00  0.00    +0.181 A 
ATOM      7  C   UNL     1       8.566  -3.906  24.667  0.00  0.00    +0.208 A 
ATOM      8  C   UNL     1       9.168  -2.753  23.935  0.00  0.00    +0.238 A 
ATOM      9  O   UNL     1      10.295  -2.841  23.464  0.00  0.00    -0.283 OA
ATOM     10  C   UNL     1       8.316  -1.557  23.779  0.00  0.00    +0.113 A 
ATOM     11  C   UNL     1       8.686  -0.465  22.977  0.00  0.00    +0.178 A 
ENDROOT
BRANCH   6  12
ATOM     12  C   UNL     1       6.754  -4.820  26.118  0.00  0.00    +0.025 A 
ATOM     13  C   UNL     1       7.050  -4.963  27.486  0.00  0.00    +0.015 A 
ATOM     14  C   UNL     1       6.364  -5.893  28.278  0.00  0.00    +0.050 A 
ATOM     15  C   UNL     1       5.368  -6.671  27.710  0.00  0.00    +0.158 A 
ATOM     16  C   UNL     1       5.100  -6.585  26.351  0.00  0.00    +0.159 A 
ATOM     17  C   UNL     1       5.819  -5.710  25.548  0.00  0.00    +0.060 A 
BRANCH  15  18
ATOM     18  O   UNL     1       4.637  -7.510  28.498  0.00  0.00    -0.503 OA
ATOM     19  H   UNL     1       4.972  -7.355  29.404  0.00  0.00    +0.292 HD
ENDBRANCH  15  18
BRANCH  16  20
ATOM     20  O   UNL     1       4.087  -7.356  25.849  0.00  0.00    -0.503 OA
ATOM     21  H   UNL     1       4.314  -8.293  25.984  0.00  0.00    +0.292 HD
ENDBRANCH  16  20
ENDBRANCH   6  12
BRANCH   2  22
ATOM     22  O   UNL     1       5.624   1.543  23.107  0.00  0.00    -0.503 OA
ATOM     23  H   UNL     1       6.078   2.296  22.691  0.00  0.00    +0.292 HD
ENDBRANCH   2  22
BRANCH   7  24
ATOM     24  O   UNL     1       9.279  -5.096  24.619  0.00  0.00    -0.501 OA
ATOM     25  H   UNL     1       9.747  -5.128  23.768  0.00  0.00    +0.292 HD
ENDBRANCH   7  24
BRANCH  11  26
ATOM     26  O   UNL     1       9.885  -0.439  22.324  0.00  0.00    -0.503 OA
ATOM     27  H   UNL     1      10.221   0.474  22.315  0.00  0.00    +0.292 HD
ENDBRANCH  11  26
BRANCH   1  28
ATOM     28  O   UNL     1       8.133   1.587  21.868  0.00  0.00    -0.417 OA
BRANCH  28  29
ATOM     29  C   UNL     1       8.189   2.881  22.381  0.00  0.00    +0.341 C 
ATOM     30  O   UNL     1       7.383   3.776  22.169  0.00  0.00    -0.247 OA
BRANCH  29  32
ATOM     31  C   UNL     1       9.566   4.391  23.861  0.00  0.00    +0.050 C 
ATOM     32  C   UNL     1       9.443   3.002  23.267  0.00  0.00    +0.220 C 
BRANCH  32  33
ATOM     33  O   UNL     1      10.651   2.694  22.576  0.00  0.00    -0.381 OA
ATOM     34  H   UNL     1      11.010   1.878  22.971  0.00  0.00    +0.210 HD
ENDBRANCH  32  33
ENDBRANCH  29  32
ENDBRANCH  28  29
ENDBRANCH   1  28
TORSDOF 10
ENDMDL
MODEL 8
REMARK VINA RESULT:      -7.0      2.147      8.766
REMARK  Name = 
REMARK  11 active torsions:
REMARK  status: ('A' for Active; 'I' for Inactive)
REMARK    1  A    between atoms: C_1  and  C_2
REMARK    2  A    between atoms: C_2  and  C_3
REMARK    3  A    between atoms: C_2  and  O_28
REMARK    4  A    between atoms: C_3  and  O_5
REMARK    5  A    between atoms: O_5  and  C_6
REMARK    6  A    between atoms: C_7  and  O_27
REMARK    7  A    between atoms: C_11  and  O_12
REMARK    8  A    between atoms: C_14  and  C_19
REMARK    9  A    between atoms: C_15  and  O_18
REMARK   10  A    between atoms: C_21  and  O_26
REMARK   11  A    between atoms: C_22  and  O_25
REMARK                            x       y       z     vdW  Elec       q    Type
REMARK                         _______ _______ _______ _____ _____    ______ ____
ROOT
ATOM      1  C   UNL     1       8.485   2.989  22.920  0.00  0.00    +0.215 A 
ATOM      2  C   UNL     1       7.217   2.659  22.436  0.00  0.00    +0.166 A 
ATOM      3  C   UNL     1       6.755   1.349  22.517  0.00  0.00    +0.096 A 
ATOM      4  C   UNL     1       7.589   0.357  23.048  0.00  0.00    +0.147 A 
ATOM      5  O   UNL     1       7.065  -0.916  23.080  0.00  0.00    -0.451 OA
ATOM      6  C   UNL     1       7.900  -1.976  23.406  0.00  0.00    +0.181 A 
ATOM      7  C   UNL     1       9.195  -1.820  23.759  0.00  0.00    +0.208 A 
ATOM      8  C   UNL     1       9.744  -0.442  23.929  0.00  0.00    +0.238 A 
ATOM      9  O   UNL     1      10.873  -0.279  24.373  0.00  0.00    -0.283 OA
ATOM     10  C   UNL     1       8.879   0.669  23.488  0.00  0.00    +0.113 A 
ATOM     11  C   UNL     1       9.326   1.999  23.434  0.00  0.00    +0.178 A 
ENDROOT
BRANCH   6  12
ATOM     12  C   UNL     1       7.253  -3.315  23.290  0.00  0.00    +0.025 A 
ATOM     13  C   UNL     1       6.813  -4.010  24.430  0.00  0.00    +0.015 A 
ATOM     14  C   UNL     1       6.095  -5.208  24.312  0.00  0.00    +0.050 A 
ATOM     15  C   UNL     1       5.799  -5.705  23.053  0.00  0.00    +0.158 A 
ATOM     16  C   UNL     1       6.272  -5.065  21.917  0.00  0.00    +0.159 A 
ATOM     17  C   UNL     1       7.038  -3.911  22.028  0.00  0.00    +0.060 A 
BRANCH  15  18
ATOM     18  O   UNL     1       5.021  -6.819  22.935  0.00  0.00    -0.503 OA
ATOM     19  H   UNL     1       4.107  -6.499  23.071  0.00  0.00    +0.292 HD
ENDBRANCH  15  18
BRANCH  16  20
ATOM     20  O   UNL     1       5.926  -5.583  20.699  0.00  0.00    -0.503 OA
ATOM     21  H   UNL     1       5.390  -4.923  20.222  0.00  0.00    +0.292 HD
ENDBRANCH  16  20
ENDBRANCH   6  12
BRANCH   2  22
ATOM     22  O   UNL     1       6.460   3.617  21.824  0.00  0.00    -0.503 OA
ATOM     23  H   UNL     1       5.515   3.418  21.947  0.00  0.00    +0.292 HD
ENDBRANCH   2  22
BRANCH   7  24
ATOM     24  O   UNL     1      10.088  -2.862  23.965  0.00  0.00    -0.501 OA
ATOM     25  H   UNL     1      10.891  -2.489  24.364  0.00  0.00    +0.292 HD
ENDBRANCH   7  24
BRANCH  11  26
ATOM     26  O   UNL     1      10.588   2.340  23.830  0.00  0.00    -0.503 OA
ATOM     27  H   UNL     1      11.051   1.542  24.137  0.00  0.00    +0.292 HD
ENDBRANCH  11  26
BRANCH   1  28
ATOM     28  O   UNL     1       9.023   4.273  22.735  0.00  0.00    -0.417 OA
BRANCH  28  29
ATOM     29  C   UNL     1       8.742   5.181  23.754  0.00  0.00    +0.341 C 
ATOM     30  O   UNL     1       8.975   5.024  24.944  0.00  0.00    -0.247 OA
BRANCH  29  32
ATOM     31  C   UNL     1       6.781   6.767  23.826  0.00  0.00    +0.050 C 
ATOM     32  C   UNL     1       8.084   6.427  23.131  0.00  0.00    +0.220 C 
BRANCH  32  33
ATOM     33  O   UNL     1       7.832   6.291  21.734  0.00  0.00    -0.381 OA
ATOM     34  H   UNL     1       7.464   5.399  21.592  0.00  0.00    +0.210 HD
ENDBRANCH  32  33
ENDBRANCH  29  32
ENDBRANCH  28  29
ENDBRANCH   1  28
TORSDOF 10
ENDMDL
MODEL 9
REMARK VINA RESULT:      -6.9      2.174      8.836
REMARK  Name = 
REMARK  11 active torsions:
REMARK  status: ('A' for Active; 'I' for Inactive)
REMARK    1  A    between atoms: C_1  and  C_2
REMARK    2  A    between atoms: C_2  and  C_3
REMARK    3  A    between atoms: C_2  and  O_28
REMARK    4  A    between atoms: C_3  and  O_5
REMARK    5  A    between atoms: O_5  and  C_6
REMARK    6  A    between atoms: C_7  and  O_27
REMARK    7  A    between atoms: C_11  and  O_12
REMARK    8  A    between atoms: C_14  and  C_19
REMARK    9  A    between atoms: C_15  and  O_18
REMARK   10  A    between atoms: C_21  and  O_26
REMARK   11  A    between atoms: C_22  and  O_25
REMARK                            x       y       z     vdW  Elec       q    Type
REMARK                         _______ _______ _______ _____ _____    ______ ____
ROOT
ATOM      1  C   UNL     1       9.953   1.391  23.458  0.00  0.00    +0.215 A 
ATOM      2  C   UNL     1       9.226   1.196  22.281  0.00  0.00    +0.166 A 
ATOM      3  C   UNL     1       8.260   0.197  22.212  0.00  0.00    +0.096 A 
ATOM      4  C   UNL     1       8.052  -0.637  23.318  0.00  0.00    +0.147 A 
ATOM      5  O   UNL     1       7.089  -1.609  23.166  0.00  0.00    -0.451 OA
ATOM      6  C   UNL     1       6.968  -2.590  24.140  0.00  0.00    +0.181 A 
ATOM      7  C   UNL     1       7.707  -2.609  25.271  0.00  0.00    +0.208 A 
ATOM      8  C   UNL     1       8.619  -1.464  25.566  0.00  0.00    +0.238 A 
ATOM      9  O   UNL     1       9.197  -1.398  26.643  0.00  0.00    -0.283 OA
ATOM     10  C   UNL     1       8.810  -0.480  24.482  0.00  0.00    +0.113 A 
ATOM     11  C   UNL     1       9.760   0.551  24.556  0.00  0.00    +0.178 A 
ENDROOT
BRANCH   6  12
ATOM     12  C   UNL     1       5.978  -3.655  23.808  0.00  0.00    +0.025 A 
ATOM     13  C   UNL     1       4.682  -3.636  24.353  0.00  0.00    +0.015 A 
ATOM     14  C   UNL     1       3.714  -4.564  23.946  0.00  0.00    +0.050 A 
ATOM     15  C   UNL     1       4.033  -5.502  22.977  0.00  0.00    +0.158 A 
ATOM     16  C   UNL     1       5.322  -5.574  22.468  0.00  0.00    +0.159 A 
ATOM     17  C   UNL     1       6.303  -4.697  22.914  0.00  0.00    +0.060 A 
BRANCH  15  18
ATOM     18  O   UNL     1       3.068  -6.345  22.512  0.00  0.00    -0.503 OA
ATOM     19  H   UNL     1       3.552  -7.008  21.979  0.00  0.00    +0.292 HD
ENDBRANCH  15  18
BRANCH  16  20
ATOM     20  O   UNL     1       5.575  -6.501  21.493  0.00  0.00    -0.503 OA
ATOM     21  H   UNL     1       5.470  -7.390  21.876  0.00  0.00    +0.292 HD
ENDBRANCH  16  20
ENDBRANCH   6  12
BRANCH   2  22
ATOM     22  O   UNL     1       9.517   1.947  21.178  0.00  0.00    -0.503 OA
ATOM     23  H   UNL     1       9.492   2.892  21.407  0.00  0.00    +0.292 HD
ENDBRANCH   2  22
BRANCH   7  24
ATOM     24  O   UNL     1       7.703  -3.639  26.200  0.00  0.00    -0.501 OA
ATOM     25  H   UNL     1       8.175  -4.393  25.810  0.00  0.00    +0.292 HD
ENDBRANCH   7  24
BRANCH  11  26
ATOM     26  O   UNL     1      10.539   0.720  25.667  0.00  0.00    -0.503 OA
ATOM     27  H   UNL     1      11.141  -0.039  25.749  0.00  0.00    +0.292 HD
ENDBRANCH  11  26
BRANCH   1  28
ATOM     28  O   UNL     1      11.018   2.305  23.512  0.00  0.00    -0.417 OA
BRANCH  28  29
ATOM     29  C   UNL     1      10.643   3.646  23.550  0.00  0.00    +0.341 C 
ATOM     30  O   UNL     1       9.502   4.072  23.664  0.00  0.00    -0.247 OA
BRANCH  29  32
ATOM     31  C   UNL     1      11.767   5.813  24.189  0.00  0.00    +0.050 C 
ATOM     32  C   UNL     1      11.910   4.513  23.422  0.00  0.00    +0.220 C 
BRANCH  32  33
ATOM     33  O   UNL     1      12.250   4.815  22.072  0.00  0.00    -0.381 OA
ATOM     34  H   UNL     1      12.660   4.017  21.691  0.00  0.00    +0.210 HD
ENDBRANCH  32  33
ENDBRANCH  29  32
ENDBRANCH  28  29
ENDBRANCH   1  28
TORSDOF 10
ENDMDL
