MODEL 1
REMARK VINA RESULT:      -7.0      0.000      0.000
REMARK  Name = 
REMARK  22 active torsions:
REMARK  status: ('A' for Active; 'I' for Inactive)
REMARK    1  A    between atoms: C_1  and  C_2
REMARK    2  A    between atoms: C_4  and  O_68
REMARK    3  A    between atoms: C_6  and  O_67
REMARK    4  A    between atoms: C_8  and  O_66
REMARK    5  A    between atoms: C_10  and  O_13
REMARK    6  A    between atoms: O_13  and  C_14
REMARK    7  A    between atoms: C_16  and  O_65
REMARK    8  A    between atoms: C_18  and  O_64
REMARK    9  A    between atoms: C_20  and  C_62
REMARK   10  A    between atoms: C_23  and  O_25
REMARK   11  A    between atoms: O_25  and  C_26
REMARK   12  A    between atoms: C_27  and  C_54
REMARK   13  A    between atoms: C_31  and  O_38
REMARK   14  A    between atoms: C_33  and  O_37
REMARK   15  A    between atoms: O_38  and  C_39
REMARK   16  A    between atoms: C_41  and  O_53
REMARK   17  A    between atoms: C_43  and  O_52
REMARK   18  A    between atoms: C_45  and  O_51
REMARK   19  A    between atoms: C_47  and  C_50
REMARK   20  A    between atoms: C_56  and  O_61
REMARK   21  A    between atoms: C_57  and  O_60
REMARK   22  A    between atoms: C_62  and  O_63
REMARK                            x       y       z     vdW  Elec       q    Type
REMARK                         _______ _______ _______ _____ _____    ______ ____
ROOT
ATOM      1  C   UNL     1       6.744  -2.355  26.369  0.00  0.00    +0.214 A 
ATOM      2  C   UNL     1       8.087  -1.794  25.947  0.00  0.00    +0.238 A 
ATOM      3  O   UNL     1       9.135  -2.345  26.266  0.00  0.00    -0.283 OA
ATOM      4  C   UNL     1       8.075  -0.546  25.147  0.00  0.00    +0.109 A 
ATOM      5  C   UNL     1       6.918   0.215  25.205  0.00  0.00    +0.147 A 
ATOM      6  C   UNL     1       6.789   1.381  24.425  0.00  0.00    +0.093 A 
ATOM      7  C   UNL     1       7.820   1.805  23.571  0.00  0.00    +0.131 A 
ATOM      8  C   UNL     1       9.008   1.071  23.553  0.00  0.00    +0.092 A 
ATOM      9  O   UNL     1       5.897  -0.097  26.069  0.00  0.00    -0.451 OA
ATOM     10  C   UNL     1       9.135  -0.082  24.354  0.00  0.00    +0.135 A 
ATOM     11  C   UNL     1       5.779  -1.411  26.531  0.00  0.00    +0.181 A 
ENDROOT
BRANCH  11  12
ATOM     12  C   UNL     1       4.443  -1.594  27.158  0.00  0.00    +0.025 A 
ATOM     13  C   UNL     1       3.451  -2.291  26.453  0.00  0.00    +0.015 A 
ATOM     14  C   UNL     1       2.110  -2.270  26.874  0.00  0.00    +0.050 A 
ATOM     15  C   UNL     1       1.757  -1.556  28.006  0.00  0.00    +0.158 A 
ATOM     16  C   UNL     1       2.725  -0.893  28.749  0.00  0.00    +0.159 A 
ATOM     17  C   UNL     1       4.068  -0.896  28.325  0.00  0.00    +0.060 A 
BRANCH  16  18
ATOM     18  O   UNL     1       2.306  -0.226  29.868  0.00  0.00    -0.503 OA
ATOM     19  H   UNL     1       1.654  -0.785  30.323  0.00  0.00    +0.292 HD
ENDBRANCH  16  18
BRANCH  15  20
ATOM     20  O   UNL     1       0.443  -1.493  28.370  0.00  0.00    -0.503 OA
ATOM     21  H   UNL     1       0.395  -1.943  29.237  0.00  0.00    +0.292 HD
ENDBRANCH  15  20
ENDBRANCH  11  12
BRANCH  10  22
ATOM     22  O   UNL     1      10.344  -0.725  24.378  0.00  0.00    -0.506 OA
ATOM     23  H   UNL     1      10.602  -0.900  25.300  0.00  0.00    +0.292 HD
ENDBRANCH  10  22
BRANCH   7  24
ATOM     24  O   UNL     1       7.609   2.985  22.897  0.00  0.00    -0.461 OA
BRANCH  24  25
ATOM     25  C   UNL     1       8.075   4.207  23.509  0.00  0.00    +0.339 C 
ATOM     26  O   UNL     1       7.240   4.669  24.585  0.00  0.00    -0.334 OA
ATOM     27  C   UNL     1       5.919   5.043  24.189  0.00  0.00    +0.150 C 
ATOM     28  C   UNL     1       5.172   5.509  25.440  0.00  0.00    +0.041 C 
ATOM     29  C   UNL     1       5.903   6.163  23.137  0.00  0.00    +0.174 C 
ATOM     30  C   UNL     1       6.832   5.834  21.960  0.00  0.00    +0.180 C 
ATOM     31  C   UNL     1       8.207   5.320  22.434  0.00  0.00    +0.214 C 
BRANCH  31  32
ATOM     32  O   UNL     1       9.013   6.402  22.937  0.00  0.00    -0.383 OA
ATOM     33  H   UNL     1       8.428   7.063  23.348  0.00  0.00    +0.210 HD
ENDBRANCH  31  32
BRANCH  30  34
ATOM     34  O   UNL     1       6.987   7.022  21.165  0.00  0.00    -0.386 OA
ATOM     35  H   UNL     1       6.528   7.755  21.609  0.00  0.00    +0.210 HD
ENDBRANCH  30  34
BRANCH  29  36
ATOM     36  O   UNL     1       4.562   6.400  22.682  0.00  0.00    -0.387 OA
ATOM     37  H   UNL     1       3.991   6.574  23.448  0.00  0.00    +0.210 HD
ENDBRANCH  29  36
ENDBRANCH  24  25
ENDBRANCH   7  24
BRANCH   1  38
ATOM     38  O   UNL     1       6.538  -3.724  26.614  0.00  0.00    -0.453 OA
BRANCH  38  40
ATOM     39  C   UNL     1       5.429  -5.727  25.499  0.00  0.00    +0.221 C 
ATOM     40  C   UNL     1       6.531  -4.602  25.442  0.00  0.00    +0.340 C 
ATOM     41  O   UNL     1       6.315  -3.852  24.223  0.00  0.00    -0.331 OA
ATOM     42  C   UNL     1       6.588  -4.655  23.058  0.00  0.00    +0.179 C 
ATOM     43  C   UNL     1       5.499  -5.718  22.937  0.00  0.00    +0.177 C 
ATOM     44  C   UNL     1       5.520  -6.563  24.201  0.00  0.00    +0.180 C 
BRANCH  44  45
ATOM     45  O   UNL     1       4.450  -7.524  24.129  0.00  0.00    -0.386 OA
ATOM     46  H   UNL     1       4.513  -7.899  23.226  0.00  0.00    +0.210 HD
ENDBRANCH  44  45
BRANCH  43  47
ATOM     47  O   UNL     1       5.716  -6.567  21.809  0.00  0.00    -0.386 OA
ATOM     48  H   UNL     1       4.820  -6.837  21.516  0.00  0.00    +0.210 HD
ENDBRANCH  43  47
BRANCH  42  49
ATOM     49  C   UNL     1       6.651  -3.799  21.786  0.00  0.00    +0.190 C 
BRANCH  49  50
ATOM     50  O   UNL     1       5.367  -3.561  21.216  0.00  0.00    -0.392 OA
ATOM     51  H   UNL     1       4.700  -3.564  21.935  0.00  0.00    +0.210 HD
ENDBRANCH  49  50
ENDBRANCH  42  49
BRANCH  39  52
ATOM     52  O   UNL     1       5.532  -6.753  26.499  0.00  0.00    -0.337 OA
BRANCH  52  56
ATOM     53  C   UNL     1       1.745  -6.430  28.296  0.00  0.00    +0.041 C 
ATOM     54  C   UNL     1       2.827  -5.360  28.404  0.00  0.00    +0.149 C 
ATOM     55  O   UNL     1       3.842  -5.561  27.415  0.00  0.00    -0.343 OA
ATOM     56  C   UNL     1       4.725  -6.667  27.656  0.00  0.00    +0.282 C 
ATOM     57  C   UNL     1       5.508  -6.412  28.964  0.00  0.00    +0.201 C 
ATOM     58  C   UNL     1       4.507  -6.249  30.121  0.00  0.00    +0.179 C 
ATOM     59  C   UNL     1       3.450  -5.185  29.803  0.00  0.00    +0.174 C 
BRANCH  59  60
ATOM     60  O   UNL     1       4.075  -3.893  29.871  0.00  0.00    -0.387 OA
ATOM     61  H   UNL     1       5.023  -4.021  30.063  0.00  0.00    +0.210 HD
ENDBRANCH  59  60
BRANCH  58  62
ATOM     62  O   UNL     1       3.876  -7.494  30.448  0.00  0.00    -0.386 OA
ATOM     63  H   UNL     1       4.399  -8.249  30.137  0.00  0.00    +0.210 HD
ENDBRANCH  58  62
BRANCH  57  64
ATOM     64  O   UNL     1       6.436  -7.456  29.272  0.00  0.00    -0.384 OA
ATOM     65  H   UNL     1       6.083  -7.970  30.022  0.00  0.00    +0.210 HD
ENDBRANCH  57  64
ENDBRANCH  52  56
ENDBRANCH  39  52
ENDBRANCH  38  40
ENDBRANCH   1  38
TORSDOF 20
ENDMDL
MODEL 2
REMARK VINA RESULT:      -6.6      2.272      9.763
REMARK  Name = 
REMARK  22 active torsions:
REMARK  status: ('A' for Active; 'I' for Inactive)
REMARK    1  A    between atoms: C_1  and  C_2
REMARK    2  A    between atoms: C_4  and  O_68
REMARK    3  A    between atoms: C_6  and  O_67
REMARK    4  A    between atoms: C_8  and  O_66
REMARK    5  A    between atoms: C_10  and  O_13
REMARK    6  A    between atoms: O_13  and  C_14
REMARK    7  A    between atoms: C_16  and  O_65
REMARK    8  A    between atoms: C_18  and  O_64
REMARK    9  A    between atoms: C_20  and  C_62
REMARK   10  A    between atoms: C_23  and  O_25
REMARK   11  A    between atoms: O_25  and  C_26
REMARK   12  A    between atoms: C_27  and  C_54
REMARK   13  A    between atoms: C_31  and  O_38
REMARK   14  A    between atoms: C_33  and  O_37
REMARK   15  A    between atoms: O_38  and  C_39
REMARK   16  A    between atoms: C_41  and  O_53
REMARK   17  A    between atoms: C_43  and  O_52
REMARK   18  A    between atoms: C_45  and  O_51
REMARK   19  A    between atoms: C_47  and  C_50
REMARK   20  A    between atoms: C_56  and  O_61
REMARK   21  A    between atoms: C_57  and  O_60
REMARK   22  A    between atoms: C_62  and  O_63
REMARK                            x       y       z     vdW  Elec       q    Type
REMARK                         _______ _______ _______ _____ _____    ______ ____
ROOT
ATOM      1  C   UNL     1       7.007   1.698  26.628  0.00  0.00    +0.214 A 
ATOM      2  C   UNL     1       6.335   1.101  27.848  0.00  0.00    +0.238 A 
ATOM      3  O   UNL     1       6.322   1.694  28.922  0.00  0.00    -0.283 OA
ATOM      4  C   UNL     1       5.710  -0.233  27.687  0.00  0.00    +0.109 A 
ATOM      5  C   UNL     1       6.135  -0.991  26.607  0.00  0.00    +0.147 A 
ATOM      6  C   UNL     1       5.549  -2.242  26.336  0.00  0.00    +0.093 A 
ATOM      7  C   UNL     1       4.521  -2.756  27.144  0.00  0.00    +0.131 A 
ATOM      8  C   UNL     1       4.129  -2.022  28.264  0.00  0.00    +0.092 A 
ATOM      9  O   UNL     1       7.182  -0.585  25.816  0.00  0.00    -0.451 OA
ATOM     10  C   UNL     1       4.738  -0.781  28.540  0.00  0.00    +0.135 A 
ATOM     11  C   UNL     1       7.507   0.773  25.767  0.00  0.00    +0.181 A 
ENDROOT
BRANCH  11  12
ATOM     12  C   UNL     1       8.418   1.019  24.616  0.00  0.00    +0.025 A 
ATOM     13  C   UNL     1       9.731   1.444  24.868  0.00  0.00    +0.015 A 
ATOM     14  C   UNL     1      10.546   1.936  23.834  0.00  0.00    +0.050 A 
ATOM     15  C   UNL     1      10.051   2.001  22.543  0.00  0.00    +0.158 A 
ATOM     16  C   UNL     1       8.770   1.546  22.256  0.00  0.00    +0.159 A 
ATOM     17  C   UNL     1       7.943   1.066  23.290  0.00  0.00    +0.060 A 
BRANCH  16  18
ATOM     18  O   UNL     1       8.358   1.621  20.954  0.00  0.00    -0.503 OA
ATOM     19  H   UNL     1       8.169   0.719  20.647  0.00  0.00    +0.292 HD
ENDBRANCH  16  18
BRANCH  15  20
ATOM     20  O   UNL     1      10.830   2.538  21.559  0.00  0.00    -0.503 OA
ATOM     21  H   UNL     1      11.670   2.037  21.594  0.00  0.00    +0.292 HD
ENDBRANCH  15  20
ENDBRANCH  11  12
BRANCH  10  22
ATOM     22  O   UNL     1       4.392  -0.130  29.694  0.00  0.00    -0.506 OA
ATOM     23  H   UNL     1       5.112  -0.214  30.344  0.00  0.00    +0.292 HD
ENDBRANCH  10  22
BRANCH   7  24
ATOM     24  O   UNL     1       4.058  -4.010  26.818  0.00  0.00    -0.461 OA
BRANCH  24  25
ATOM     25  C   UNL     1       4.976  -5.120  26.923  0.00  0.00    +0.339 C 
ATOM     26  O   UNL     1       5.951  -5.166  25.868  0.00  0.00    -0.334 OA
ATOM     27  C   UNL     1       5.402  -5.382  24.566  0.00  0.00    +0.150 C 
ATOM     28  C   UNL     1       6.563  -5.407  23.570  0.00  0.00    +0.041 C 
ATOM     29  C   UNL     1       4.609  -6.695  24.460  0.00  0.00    +0.174 C 
ATOM     30  C   UNL     1       3.580  -6.816  25.593  0.00  0.00    +0.180 C 
ATOM     31  C   UNL     1       4.186  -6.457  26.966  0.00  0.00    +0.214 C 
BRANCH  31  32
ATOM     32  O   UNL     1       5.034  -7.518  27.446  0.00  0.00    -0.383 OA
ATOM     33  H   UNL     1       4.473  -8.223  27.816  0.00  0.00    +0.210 HD
ENDBRANCH  31  32
BRANCH  30  34
ATOM     34  O   UNL     1       3.081  -8.163  25.603  0.00  0.00    -0.386 OA
ATOM     35  H   UNL     1       3.661  -8.714  25.051  0.00  0.00    +0.210 HD
ENDBRANCH  30  34
BRANCH  29  36
ATOM     36  O   UNL     1       3.973  -6.790  23.177  0.00  0.00    -0.387 OA
ATOM     37  H   UNL     1       4.394  -6.165  22.565  0.00  0.00    +0.210 HD
ENDBRANCH  29  36
ENDBRANCH  24  25
ENDBRANCH   7  24
BRANCH   1  38
ATOM     38  O   UNL     1       7.138   3.085  26.438  0.00  0.00    -0.453 OA
BRANCH  38  40
ATOM     39  C   UNL     1       5.760   4.038  24.520  0.00  0.00    +0.221 C 
ATOM     40  C   UNL     1       7.163   3.554  25.051  0.00  0.00    +0.340 C 
ATOM     41  O   UNL     1       8.087   4.655  24.883  0.00  0.00    -0.331 OA
ATOM     42  C   UNL     1       8.327   4.929  23.489  0.00  0.00    +0.179 C 
ATOM     43  C   UNL     1       7.058   5.527  22.889  0.00  0.00    +0.177 C 
ATOM     44  C   UNL     1       5.932   4.520  23.061  0.00  0.00    +0.180 C 
BRANCH  44  45
ATOM     45  O   UNL     1       4.713   5.103  22.562  0.00  0.00    -0.386 OA
ATOM     46  H   UNL     1       4.265   4.373  22.087  0.00  0.00    +0.210 HD
ENDBRANCH  44  45
BRANCH  43  47
ATOM     47  O   UNL     1       7.217   5.810  21.497  0.00  0.00    -0.386 OA
ATOM     48  H   UNL     1       7.857   6.551  21.457  0.00  0.00    +0.210 HD
ENDBRANCH  43  47
BRANCH  42  49
ATOM     49  C   UNL     1       9.515   5.882  23.299  0.00  0.00    +0.190 C 
BRANCH  49  50
ATOM     50  O   UNL     1      10.727   5.200  22.990  0.00  0.00    -0.392 OA
ATOM     51  H   UNL     1      10.505   4.323  22.612  0.00  0.00    +0.210 HD
ENDBRANCH  49  50
ENDBRANCH  42  49
BRANCH  39  52
ATOM     52  O   UNL     1       4.702   3.078  24.374  0.00  0.00    -0.337 OA
BRANCH  52  56
ATOM     53  C   UNL     1       2.894   2.550  28.132  0.00  0.00    +0.041 C 
ATOM     54  C   UNL     1       2.477   1.788  26.878  0.00  0.00    +0.149 C 
ATOM     55  O   UNL     1       3.480   1.892  25.863  0.00  0.00    -0.343 OA
ATOM     56  C   UNL     1       3.571   3.170  25.216  0.00  0.00    +0.282 C 
ATOM     57  C   UNL     1       2.244   3.457  24.477  0.00  0.00    +0.201 C 
ATOM     58  C   UNL     1       1.091   3.439  25.495  0.00  0.00    +0.179 C 
ATOM     59  C   UNL     1       1.087   2.144  26.316  0.00  0.00    +0.174 C 
BRANCH  59  60
ATOM     60  O   UNL     1       0.645   1.073  25.467  0.00  0.00    -0.387 OA
ATOM     61  H   UNL     1       0.885   0.227  25.889  0.00  0.00    +0.210 HD
ENDBRANCH  59  60
BRANCH  58  62
ATOM     62  O   UNL     1       1.141   4.577  26.365  0.00  0.00    -0.386 OA
ATOM     63  H   UNL     1       0.412   4.567  27.004  0.00  0.00    +0.210 HD
ENDBRANCH  58  62
BRANCH  57  64
ATOM     64  O   UNL     1       2.252   4.706  23.779  0.00  0.00    -0.384 OA
ATOM     65  H   UNL     1       2.239   4.523  22.821  0.00  0.00    +0.210 HD
ENDBRANCH  57  64
ENDBRANCH  52  56
ENDBRANCH  39  52
ENDBRANCH  38  40
ENDBRANCH   1  38
TORSDOF 20
ENDMDL
MODEL 3
REMARK VINA RESULT:      -6.6      2.949      9.614
REMARK  Name = 
REMARK  22 active torsions:
REMARK  status: ('A' for Active; 'I' for Inactive)
REMARK    1  A    between atoms: C_1  and  C_2
REMARK    2  A    between atoms: C_4  and  O_68
REMARK    3  A    between atoms: C_6  and  O_67
REMARK    4  A    between atoms: C_8  and  O_66
REMARK    5  A    between atoms: C_10  and  O_13
REMARK    6  A    between atoms: O_13  and  C_14
REMARK    7  A    between atoms: C_16  and  O_65
REMARK    8  A    between atoms: C_18  and  O_64
REMARK    9  A    between atoms: C_20  and  C_62
REMARK   10  A    between atoms: C_23  and  O_25
REMARK   11  A    between atoms: O_25  and  C_26
REMARK   12  A    between atoms: C_27  and  C_54
REMARK   13  A    between atoms: C_31  and  O_38
REMARK   14  A    between atoms: C_33  and  O_37
REMARK   15  A    between atoms: O_38  and  C_39
REMARK   16  A    between atoms: C_41  and  O_53
REMARK   17  A    between atoms: C_43  and  O_52
REMARK   18  A    between atoms: C_45  and  O_51
REMARK   19  A    between atoms: C_47  and  C_50
REMARK   20  A    between atoms: C_56  and  O_61
REMARK   21  A    between atoms: C_57  and  O_60
REMARK   22  A    between atoms: C_62  and  O_63
REMARK                            x       y       z     vdW  Elec       q    Type
REMARK                         _______ _______ _______ _____ _____    ______ ____
ROOT
ATOM      1  C   UNL     1       8.020   3.784  23.027  0.00  0.00    +0.214 A 
ATOM      2  C   UNL     1       9.241   2.896  23.157  0.00  0.00    +0.238 A 
ATOM      3  O   UNL     1      10.329   3.238  22.707  0.00  0.00    -0.283 OA
ATOM      4  C   UNL     1       9.055   1.592  23.838  0.00  0.00    +0.109 A 
ATOM      5  C   UNL     1       7.756   1.116  23.921  0.00  0.00    +0.147 A 
ATOM      6  C   UNL     1       7.475  -0.080  24.609  0.00  0.00    +0.093 A 
ATOM      7  C   UNL     1       8.494  -0.821  25.230  0.00  0.00    +0.131 A 
ATOM      8  C   UNL     1       9.810  -0.374  25.101  0.00  0.00    +0.092 A 
ATOM      9  O   UNL     1       6.719   1.748  23.279  0.00  0.00    -0.451 OA
ATOM     10  C   UNL     1      10.084   0.813  24.391  0.00  0.00    +0.135 A 
ATOM     11  C   UNL     1       6.847   3.102  22.958  0.00  0.00    +0.181 A 
ENDROOT
BRANCH  11  12
ATOM     12  C   UNL     1       5.512   3.649  22.593  0.00  0.00    +0.025 A 
ATOM     13  C   UNL     1       5.333   5.039  22.561  0.00  0.00    +0.015 A 
ATOM     14  C   UNL     1       4.049   5.605  22.481  0.00  0.00    +0.050 A 
ATOM     15  C   UNL     1       2.939   4.780  22.426  0.00  0.00    +0.158 A 
ATOM     16  C   UNL     1       3.088   3.399  22.411  0.00  0.00    +0.159 A 
ATOM     17  C   UNL     1       4.371   2.826  22.507  0.00  0.00    +0.060 A 
BRANCH  16  18
ATOM     18  O   UNL     1       1.947   2.648  22.334  0.00  0.00    -0.503 OA
ATOM     19  H   UNL     1       1.882   2.118  23.146  0.00  0.00    +0.292 HD
ENDBRANCH  16  18
BRANCH  15  20
ATOM     20  O   UNL     1       1.694   5.340  22.411  0.00  0.00    -0.503 OA
ATOM     21  H   UNL     1       1.464   5.427  21.463  0.00  0.00    +0.292 HD
ENDBRANCH  15  20
ENDBRANCH  11  12
BRANCH  10  22
ATOM     22  O   UNL     1      11.392   1.174  24.209  0.00  0.00    -0.506 OA
ATOM     23  H   UNL     1      11.661   1.790  24.914  0.00  0.00    +0.292 HD
ENDBRANCH  10  22
BRANCH   7  24
ATOM     24  O   UNL     1       8.115  -2.001  25.828  0.00  0.00    -0.461 OA
BRANCH  24  25
ATOM     25  C   UNL     1       8.786  -3.212  25.423  0.00  0.00    +0.339 C 
ATOM     26  O   UNL     1       8.197  -3.844  24.273  0.00  0.00    -0.334 OA
ATOM     27  C   UNL     1       6.865  -4.320  24.478  0.00  0.00    +0.150 C 
ATOM     28  C   UNL     1       6.393  -4.960  23.172  0.00  0.00    +0.041 C 
ATOM     29  C   UNL     1       6.765  -5.348  25.617  0.00  0.00    +0.174 C 
ATOM     30  C   UNL     1       7.441  -4.830  26.894  0.00  0.00    +0.180 C 
ATOM     31  C   UNL     1       8.827  -4.216  26.608  0.00  0.00    +0.214 C 
BRANCH  31  32
ATOM     32  O   UNL     1       9.802  -5.245  26.352  0.00  0.00    -0.383 OA
ATOM     33  H   UNL     1      10.631  -4.824  26.063  0.00  0.00    +0.210 HD
ENDBRANCH  31  32
BRANCH  30  34
ATOM     34  O   UNL     1       7.560  -5.928  27.815  0.00  0.00    -0.386 OA
ATOM     35  H   UNL     1       7.739  -5.573  28.702  0.00  0.00    +0.210 HD
ENDBRANCH  30  34
BRANCH  29  36
ATOM     36  O   UNL     1       5.392  -5.686  25.864  0.00  0.00    -0.387 OA
ATOM     37  H   UNL     1       5.355  -6.438  26.478  0.00  0.00    +0.210 HD
ENDBRANCH  29  36
ENDBRANCH  24  25
ENDBRANCH   7  24
BRANCH   1  38
ATOM     38  O   UNL     1       8.109   5.185  22.939  0.00  0.00    -0.453 OA
BRANCH  38  40
ATOM     39  C   UNL     1       7.831   5.332  25.466  0.00  0.00    +0.221 C 
ATOM     40  C   UNL     1       8.510   5.891  24.158  0.00  0.00    +0.340 C 
ATOM     41  O   UNL     1       9.942   5.826  24.358  0.00  0.00    -0.331 OA
ATOM     42  C   UNL     1      10.370   6.745  25.382  0.00  0.00    +0.179 C 
ATOM     43  C   UNL     1       9.870   6.233  26.730  0.00  0.00    +0.177 C 
ATOM     44  C   UNL     1       8.353   6.149  26.671  0.00  0.00    +0.180 C 
BRANCH  44  45
ATOM     45  O   UNL     1       7.875   5.599  27.914  0.00  0.00    -0.386 OA
ATOM     46  H   UNL     1       6.994   5.229  27.700  0.00  0.00    +0.210 HD
ENDBRANCH  44  45
BRANCH  43  47
ATOM     47  O   UNL     1      10.243   7.108  27.797  0.00  0.00    -0.386 OA
ATOM     48  H   UNL     1      11.223   7.132  27.777  0.00  0.00    +0.210 HD
ENDBRANCH  43  47
BRANCH  42  49
ATOM     49  C   UNL     1      11.896   6.901  25.396  0.00  0.00    +0.190 C 
BRANCH  49  50
ATOM     50  O   UNL     1      12.524   6.311  24.262  0.00  0.00    -0.392 OA
ATOM     51  H   UNL     1      13.171   6.949  23.895  0.00  0.00    +0.210 HD
ENDBRANCH  49  50
ENDBRANCH  42  49
BRANCH  39  52
ATOM     52  O   UNL     1       6.411   5.472  25.628  0.00  0.00    -0.337 OA
BRANCH  52  56
ATOM     53  C   UNL     1       6.376   2.444  28.545  0.00  0.00    +0.041 C 
ATOM     54  C   UNL     1       6.024   2.211  27.079  0.00  0.00    +0.149 C 
ATOM     55  O   UNL     1       6.470   3.303  26.269  0.00  0.00    -0.343 OA
ATOM     56  C   UNL     1       5.711   4.514  26.396  0.00  0.00    +0.282 C 
ATOM     57  C   UNL     1       4.262   4.253  25.925  0.00  0.00    +0.201 C 
ATOM     58  C   UNL     1       3.652   3.132  26.784  0.00  0.00    +0.179 C 
ATOM     59  C   UNL     1       4.545   1.885  26.796  0.00  0.00    +0.174 C 
BRANCH  59  60
ATOM     60  O   UNL     1       4.451   1.251  25.510  0.00  0.00    -0.387 OA
ATOM     61  H   UNL     1       4.717   1.897  24.828  0.00  0.00    +0.210 HD
ENDBRANCH  59  60
BRANCH  58  62
ATOM     62  O   UNL     1       3.401   3.575  28.124  0.00  0.00    -0.386 OA
ATOM     63  H   UNL     1       3.350   4.542  28.174  0.00  0.00    +0.210 HD
ENDBRANCH  58  62
BRANCH  57  64
ATOM     64  O   UNL     1       3.433   5.417  25.993  0.00  0.00    -0.384 OA
ATOM     65  H   UNL     1       2.620   5.188  26.479  0.00  0.00    +0.210 HD
ENDBRANCH  57  64
ENDBRANCH  52  56
ENDBRANCH  39  52
ENDBRANCH  38  40
ENDBRANCH   1  38
TORSDOF 20
ENDMDL
MODEL 4
REMARK VINA RESULT:      -6.5      1.359      1.911
REMARK  Name = 
REMARK  22 active torsions:
REMARK  status: ('A' for Active; 'I' for Inactive)
REMARK    1  A    between atoms: C_1  and  C_2
REMARK    2  A    between atoms: C_4  and  O_68
REMARK    3  A    between atoms: C_6  and  O_67
REMARK    4  A    between atoms: C_8  and  O_66
REMARK    5  A    between atoms: C_10  and  O_13
REMARK    6  A    between atoms: O_13  and  C_14
REMARK    7  A    between atoms: C_16  and  O_65
REMARK    8  A    between atoms: C_18  and  O_64
REMARK    9  A    between atoms: C_20  and  C_62
REMARK   10  A    between atoms: C_23  and  O_25
REMARK   11  A    between atoms: O_25  and  C_26
REMARK   12  A    between atoms: C_27  and  C_54
REMARK   13  A    between atoms: C_31  and  O_38
REMARK   14  A    between atoms: C_33  and  O_37
REMARK   15  A    between atoms: O_38  and  C_39
REMARK   16  A    between atoms: C_41  and  O_53
REMARK   17  A    between atoms: C_43  and  O_52
REMARK   18  A    between atoms: C_45  and  O_51
REMARK   19  A    between atoms: C_47  and  C_50
REMARK   20  A    between atoms: C_56  and  O_61
REMARK   21  A    between atoms: C_57  and  O_60
REMARK   22  A    between atoms: C_62  and  O_63
REMARK                            x       y       z     vdW  Elec       q    Type
REMARK                         _______ _______ _______ _____ _____    ______ ____
ROOT
ATOM      1  C   UNL     1       5.828  -2.568  26.921  0.00  0.00    +0.214 A 
ATOM      2  C   UNL     1       7.297  -2.506  26.556  0.00  0.00    +0.238 A 
ATOM      3  O   UNL     1       8.010  -3.502  26.614  0.00  0.00    -0.283 OA
ATOM      4  C   UNL     1       7.833  -1.187  26.143  0.00  0.00    +0.109 A 
ATOM      5  C   UNL     1       7.094  -0.074  26.513  0.00  0.00    +0.147 A 
ATOM      6  C   UNL     1       7.489   1.215  26.106  0.00  0.00    +0.093 A 
ATOM      7  C   UNL     1       8.634   1.411  25.318  0.00  0.00    +0.131 A 
ATOM      8  C   UNL     1       9.411   0.299  24.990  0.00  0.00    +0.092 A 
ATOM      9  O   UNL     1       6.004  -0.182  27.342  0.00  0.00    -0.451 OA
ATOM     10  C   UNL     1       9.019  -0.985  25.421  0.00  0.00    +0.135 A 
ATOM     11  C   UNL     1       5.335  -1.406  27.426  0.00  0.00    +0.181 A 
ENDROOT
BRANCH  11  12
ATOM     12  C   UNL     1       4.021  -1.204  28.092  0.00  0.00    +0.025 A 
ATOM     13  C   UNL     1       3.993  -0.729  29.412  0.00  0.00    +0.015 A 
ATOM     14  C   UNL     1       2.812  -0.766  30.173  0.00  0.00    +0.050 A 
ATOM     15  C   UNL     1       1.652  -1.272  29.614  0.00  0.00    +0.158 A 
ATOM     16  C   UNL     1       1.638  -1.707  28.295  0.00  0.00    +0.159 A 
ATOM     17  C   UNL     1       2.821  -1.689  27.532  0.00  0.00    +0.060 A 
BRANCH  16  18
ATOM     18  O   UNL     1       0.450  -2.174  27.804  0.00  0.00    -0.503 OA
ATOM     19  H   UNL     1      -0.243  -1.975  28.456  0.00  0.00    +0.292 HD
ENDBRANCH  16  18
BRANCH  15  20
ATOM     20  O   UNL     1       0.527  -1.359  30.382  0.00  0.00    -0.503 OA
ATOM     21  H   UNL     1      -0.119  -1.852  29.837  0.00  0.00    +0.292 HD
ENDBRANCH  15  20
ENDBRANCH  11  12
BRANCH  10  22
ATOM     22  O   UNL     1       9.851  -2.040  25.157  0.00  0.00    -0.506 OA
ATOM     23  H   UNL     1       9.459  -2.860  25.507  0.00  0.00    +0.292 HD
ENDBRANCH  10  22
BRANCH   7  24
ATOM     24  O   UNL     1       8.957   2.716  25.023  0.00  0.00    -0.461 OA
BRANCH  24  25
ATOM     25  C   UNL     1       9.330   3.031  23.665  0.00  0.00    +0.339 C 
ATOM     26  O   UNL     1       9.685   4.410  23.468  0.00  0.00    -0.334 OA
ATOM     27  C   UNL     1       8.615   5.333  23.683  0.00  0.00    +0.150 C 
ATOM     28  C   UNL     1       9.157   6.741  23.431  0.00  0.00    +0.041 C 
ATOM     29  C   UNL     1       7.410   5.077  22.764  0.00  0.00    +0.174 C 
ATOM     30  C   UNL     1       6.977   3.605  22.812  0.00  0.00    +0.180 C 
ATOM     31  C   UNL     1       8.178   2.644  22.697  0.00  0.00    +0.214 C 
BRANCH  31  32
ATOM     32  O   UNL     1       8.666   2.593  21.342  0.00  0.00    -0.383 OA
ATOM     33  H   UNL     1       9.062   3.454  21.120  0.00  0.00    +0.210 HD
ENDBRANCH  31  32
BRANCH  30  34
ATOM     34  O   UNL     1       6.047   3.376  21.740  0.00  0.00    -0.386 OA
ATOM     35  H   UNL     1       6.412   3.759  20.925  0.00  0.00    +0.210 HD
ENDBRANCH  30  34
BRANCH  29  36
ATOM     36  O   UNL     1       6.321   5.944  23.117  0.00  0.00    -0.387 OA
ATOM     37  H   UNL     1       6.501   6.344  23.984  0.00  0.00    +0.210 HD
ENDBRANCH  29  36
ENDBRANCH  24  25
ENDBRANCH   7  24
BRANCH   1  38
ATOM     38  O   UNL     1       5.064  -3.742  26.790  0.00  0.00    -0.453 OA
BRANCH  38  40
ATOM     39  C   UNL     1       4.348  -5.795  25.464  0.00  0.00    +0.221 C 
ATOM     40  C   UNL     1       5.248  -4.505  25.553  0.00  0.00    +0.340 C 
ATOM     41  O   UNL     1       4.957  -3.697  24.388  0.00  0.00    -0.331 OA
ATOM     42  C   UNL     1       5.405  -4.341  23.179  0.00  0.00    +0.179 C 
ATOM     43  C   UNL     1       4.514  -5.553  22.918  0.00  0.00    +0.177 C 
ATOM     44  C   UNL     1       4.628  -6.490  24.111  0.00  0.00    +0.180 C 
BRANCH  44  45
ATOM     45  O   UNL     1       3.737  -7.603  23.908  0.00  0.00    -0.386 OA
ATOM     46  H   UNL     1       3.784  -7.787  22.947  0.00  0.00    +0.210 HD
ENDBRANCH  44  45
BRANCH  43  47
ATOM     47  O   UNL     1       4.912  -6.255  21.739  0.00  0.00    -0.386 OA
ATOM     48  H   UNL     1       5.391  -7.047  22.061  0.00  0.00    +0.210 HD
ENDBRANCH  43  47
BRANCH  42  49
ATOM     49  C   UNL     1       5.372  -3.380  21.983  0.00  0.00    +0.190 C 
BRANCH  49  50
ATOM     50  O   UNL     1       5.924  -3.950  20.800  0.00  0.00    -0.392 OA
ATOM     51  H   UNL     1       6.900  -3.881  20.847  0.00  0.00    +0.210 HD
ENDBRANCH  49  50
ENDBRANCH  42  49
BRANCH  39  52
ATOM     52  O   UNL     1       4.583  -6.873  26.384  0.00  0.00    -0.337 OA
BRANCH  52  56
ATOM     53  C   UNL     1       1.033  -6.860  28.636  0.00  0.00    +0.041 C 
ATOM     54  C   UNL     1       2.042  -5.715  28.640  0.00  0.00    +0.149 C 
ATOM     55  O   UNL     1       2.939  -5.824  27.529  0.00  0.00    -0.343 OA
ATOM     56  C   UNL     1       3.921  -6.866  27.632  0.00  0.00    +0.282 C 
ATOM     57  C   UNL     1       4.839  -6.577  28.841  0.00  0.00    +0.201 C 
ATOM     58  C   UNL     1       3.979  -6.507  30.116  0.00  0.00    +0.179 C 
ATOM     59  C   UNL     1       2.818  -5.519  29.956  0.00  0.00    +0.174 C 
BRANCH  59  60
ATOM     60  O   UNL     1       3.353  -4.186  29.981  0.00  0.00    -0.387 OA
ATOM     61  H   UNL     1       3.370  -3.879  30.908  0.00  0.00    +0.210 HD
ENDBRANCH  59  60
BRANCH  58  62
ATOM     62  O   UNL     1       3.483  -7.800  30.485  0.00  0.00    -0.386 OA
ATOM     63  H   UNL     1       3.455  -7.907  31.449  0.00  0.00    +0.210 HD
ENDBRANCH  58  62
BRANCH  57  64
ATOM     64  O   UNL     1       5.870  -7.554  29.008  0.00  0.00    -0.384 OA
ATOM     65  H   UNL     1       5.808  -7.916  29.912  0.00  0.00    +0.210 HD
ENDBRANCH  57  64
ENDBRANCH  52  56
ENDBRANCH  39  52
ENDBRANCH  38  40
ENDBRANCH   1  38
TORSDOF 20
ENDMDL
MODEL 5
REMARK VINA RESULT:      -6.4      2.313      5.276
REMARK  Name = 
REMARK  22 active torsions:
REMARK  status: ('A' for Active; 'I' for Inactive)
REMARK    1  A    between atoms: C_1  and  C_2
REMARK    2  A    between atoms: C_4  and  O_68
REMARK    3  A    between atoms: C_6  and  O_67
REMARK    4  A    between atoms: C_8  and  O_66
REMARK    5  A    between atoms: C_10  and  O_13
REMARK    6  A    between atoms: O_13  and  C_14
REMARK    7  A    between atoms: C_16  and  O_65
REMARK    8  A    between atoms: C_18  and  O_64
REMARK    9  A    between atoms: C_20  and  C_62
REMARK   10  A    between atoms: C_23  and  O_25
REMARK   11  A    between atoms: O_25  and  C_26
REMARK   12  A    between atoms: C_27  and  C_54
REMARK   13  A    between atoms: C_31  and  O_38
REMARK   14  A    between atoms: C_33  and  O_37
REMARK   15  A    between atoms: O_38  and  C_39
REMARK   16  A    between atoms: C_41  and  O_53
REMARK   17  A    between atoms: C_43  and  O_52
REMARK   18  A    between atoms: C_45  and  O_51
REMARK   19  A    between atoms: C_47  and  C_50
REMARK   20  A    between atoms: C_56  and  O_61
REMARK   21  A    between atoms: C_57  and  O_60
REMARK   22  A    between atoms: C_62  and  O_63
REMARK                            x       y       z     vdW  Elec       q    Type
REMARK                         _______ _______ _______ _____ _____    ______ ____
ROOT
ATOM      1  C   UNL     1       5.741  -1.737  26.911  0.00  0.00    +0.214 A 
ATOM      2  C   UNL     1       6.710  -0.572  26.914  0.00  0.00    +0.238 A 
ATOM      3  O   UNL     1       7.894  -0.729  27.188  0.00  0.00    -0.283 OA
ATOM      4  C   UNL     1       6.156   0.764  26.586  0.00  0.00    +0.109 A 
ATOM      5  C   UNL     1       4.785   0.915  26.715  0.00  0.00    +0.147 A 
ATOM      6  C   UNL     1       4.162   2.127  26.361  0.00  0.00    +0.093 A 
ATOM      7  C   UNL     1       4.906   3.212  25.867  0.00  0.00    +0.131 A 
ATOM      8  C   UNL     1       6.293   3.082  25.789  0.00  0.00    +0.092 A 
ATOM      9  O   UNL     1       4.003  -0.076  27.256  0.00  0.00    -0.451 OA
ATOM     10  C   UNL     1       6.909   1.872  26.168  0.00  0.00    +0.135 A 
ATOM     11  C   UNL     1       4.465  -1.394  27.229  0.00  0.00    +0.181 A 
ENDROOT
BRANCH  11  12
ATOM     12  C   UNL     1       3.341  -2.316  27.544  0.00  0.00    +0.025 A 
ATOM     13  C   UNL     1       3.402  -3.089  28.713  0.00  0.00    +0.015 A 
ATOM     14  C   UNL     1       2.510  -4.152  28.929  0.00  0.00    +0.050 A 
ATOM     15  C   UNL     1       1.548  -4.445  27.978  0.00  0.00    +0.158 A 
ATOM     16  C   UNL     1       1.435  -3.669  26.831  0.00  0.00    +0.159 A 
ATOM     17  C   UNL     1       2.336  -2.611  26.601  0.00  0.00    +0.060 A 
BRANCH  16  18
ATOM     18  O   UNL     1       0.447  -4.004  25.946  0.00  0.00    -0.503 OA
ATOM     19  H   UNL     1       0.847  -4.075  25.063  0.00  0.00    +0.292 HD
ENDBRANCH  16  18
BRANCH  15  20
ATOM     20  O   UNL     1       0.727  -5.518  28.170  0.00  0.00    -0.503 OA
ATOM     21  H   UNL     1       0.525  -5.518  29.128  0.00  0.00    +0.292 HD
ENDBRANCH  15  20
ENDBRANCH  11  12
BRANCH  10  22
ATOM     22  O   UNL     1       8.277   1.810  26.162  0.00  0.00    -0.506 OA
ATOM     23  H   UNL     1       8.568   1.083  25.583  0.00  0.00    +0.292 HD
ENDBRANCH  10  22
BRANCH   7  24
ATOM     24  O   UNL     1       4.203   4.365  25.603  0.00  0.00    -0.461 OA
BRANCH  24  25
ATOM     25  C   UNL     1       4.406   5.004  24.325  0.00  0.00    +0.339 C 
ATOM     26  O   UNL     1       3.543   6.132  24.098  0.00  0.00    -0.334 OA
ATOM     27  C   UNL     1       2.153   5.808  24.029  0.00  0.00    +0.150 C 
ATOM     28  C   UNL     1       1.384   7.107  23.783  0.00  0.00    +0.041 C 
ATOM     29  C   UNL     1       1.827   4.802  22.913  0.00  0.00    +0.174 C 
ATOM     30  C   UNL     1       2.746   3.574  22.986  0.00  0.00    +0.180 C 
ATOM     31  C   UNL     1       4.225   3.968  23.181  0.00  0.00    +0.214 C 
BRANCH  31  32
ATOM     32  O   UNL     1       4.786   4.479  21.957  0.00  0.00    -0.383 OA
ATOM     33  H   UNL     1       4.219   5.201  21.631  0.00  0.00    +0.210 HD
ENDBRANCH  31  32
BRANCH  30  34
ATOM     34  O   UNL     1       2.584   2.821  21.772  0.00  0.00    -0.386 OA
ATOM     35  H   UNL     1       1.864   2.179  21.898  0.00  0.00    +0.210 HD
ENDBRANCH  30  34
BRANCH  29  36
ATOM     36  O   UNL     1       0.447   4.414  22.980  0.00  0.00    -0.387 OA
ATOM     37  H   UNL     1       0.259   3.784  22.265  0.00  0.00    +0.210 HD
ENDBRANCH  29  36
ENDBRANCH  24  25
ENDBRANCH   7  24
BRANCH   1  38
ATOM     38  O   UNL     1       6.147  -3.058  26.649  0.00  0.00    -0.453 OA
BRANCH  38  40
ATOM     39  C   UNL     1       6.352  -3.363  24.129  0.00  0.00    +0.221 C 
ATOM     40  C   UNL     1       5.574  -3.692  25.460  0.00  0.00    +0.340 C 
ATOM     41  O   UNL     1       5.545  -5.133  25.594  0.00  0.00    -0.331 OA
ATOM     42  C   UNL     1       4.734  -5.738  24.567  0.00  0.00    +0.179 C 
ATOM     43  C   UNL     1       5.455  -5.589  23.231  0.00  0.00    +0.177 C 
ATOM     44  C   UNL     1       5.657  -4.105  22.964  0.00  0.00    +0.180 C 
BRANCH  44  45
ATOM     45  O   UNL     1       6.400  -3.956  21.740  0.00  0.00    -0.386 OA
ATOM     46  H   UNL     1       5.857  -3.353  21.191  0.00  0.00    +0.210 HD
ENDBRANCH  44  45
BRANCH  43  47
ATOM     47  O   UNL     1       4.698  -6.153  22.158  0.00  0.00    -0.386 OA
ATOM     48  H   UNL     1       5.271  -6.851  21.779  0.00  0.00    +0.210 HD
ENDBRANCH  43  47
BRANCH  42  49
ATOM     49  C   UNL     1       4.455  -7.217  24.869  0.00  0.00    +0.190 C 
BRANCH  49  50
ATOM     50  O   UNL     1       3.431  -7.766  24.044  0.00  0.00    -0.392 OA
ATOM     51  H   UNL     1       2.635  -7.199  24.116  0.00  0.00    +0.210 HD
ENDBRANCH  49  50
ENDBRANCH  42  49
BRANCH  39  52
ATOM     52  O   UNL     1       6.352  -2.013  23.638  0.00  0.00    -0.337 OA
BRANCH  52  56
ATOM     53  C   UNL     1       8.512   1.480  22.743  0.00  0.00    +0.041 C 
ATOM     54  C   UNL     1       8.796   0.124  22.107  0.00  0.00    +0.149 C 
ATOM     55  O   UNL     1       7.700  -0.773  22.311  0.00  0.00    -0.343 OA
ATOM     56  C   UNL     1       7.560  -1.281  23.646  0.00  0.00    +0.282 C 
ATOM     57  C   UNL     1       8.811  -2.115  24.002  0.00  0.00    +0.201 C 
ATOM     58  C   UNL     1      10.058  -1.221  23.884  0.00  0.00    +0.179 C 
ATOM     59  C   UNL     1      10.128  -0.534  22.514  0.00  0.00    +0.174 C 
BRANCH  59  60
ATOM     60  O   UNL     1      10.474  -1.523  21.531  0.00  0.00    -0.387 OA
ATOM     61  H   UNL     1      11.412  -1.764  21.654  0.00  0.00    +0.210 HD
ENDBRANCH  59  60
BRANCH  58  62
ATOM     62  O   UNL     1      10.105  -0.245  24.932  0.00  0.00    -0.386 OA
ATOM     63  H   UNL     1      10.002  -0.656  25.804  0.00  0.00    +0.210 HD
ENDBRANCH  58  62
BRANCH  57  64
ATOM     64  O   UNL     1       8.750  -2.685  25.313  0.00  0.00    -0.384 OA
ATOM     65  H   UNL     1       9.222  -3.538  25.300  0.00  0.00    +0.210 HD
ENDBRANCH  57  64
ENDBRANCH  52  56
ENDBRANCH  39  52
ENDBRANCH  38  40
ENDBRANCH   1  38
TORSDOF 20
ENDMDL
MODEL 6
REMARK VINA RESULT:      -6.4      2.384      8.828
REMARK  Name = 
REMARK  22 active torsions:
REMARK  status: ('A' for Active; 'I' for Inactive)
REMARK    1  A    between atoms: C_1  and  C_2
REMARK    2  A    between atoms: C_4  and  O_68
REMARK    3  A    between atoms: C_6  and  O_67
REMARK    4  A    between atoms: C_8  and  O_66
REMARK    5  A    between atoms: C_10  and  O_13
REMARK    6  A    between atoms: O_13  and  C_14
REMARK    7  A    between atoms: C_16  and  O_65
REMARK    8  A    between atoms: C_18  and  O_64
REMARK    9  A    between atoms: C_20  and  C_62
REMARK   10  A    between atoms: C_23  and  O_25
REMARK   11  A    between atoms: O_25  and  C_26
REMARK   12  A    between atoms: C_27  and  C_54
REMARK   13  A    between atoms: C_31  and  O_38
REMARK   14  A    between atoms: C_33  and  O_37
REMARK   15  A    between atoms: O_38  and  C_39
REMARK   16  A    between atoms: C_41  and  O_53
REMARK   17  A    between atoms: C_43  and  O_52
REMARK   18  A    between atoms: C_45  and  O_51
REMARK   19  A    between atoms: C_47  and  C_50
REMARK   20  A    between atoms: C_56  and  O_61
REMARK   21  A    between atoms: C_57  and  O_60
REMARK   22  A    between atoms: C_62  and  O_63
REMARK                            x       y       z     vdW  Elec       q    Type
REMARK                         _______ _______ _______ _____ _____    ______ ____
ROOT
ATOM      1  C   UNL     1       8.122  -0.852  24.443  0.00  0.00    +0.214 A 
ATOM      2  C   UNL     1       8.376  -2.333  24.643  0.00  0.00    +0.238 A 
ATOM      3  O   UNL     1       9.413  -2.737  25.158  0.00  0.00    -0.283 OA
ATOM      4  C   UNL     1       7.324  -3.266  24.175  0.00  0.00    +0.109 A 
ATOM      5  C   UNL     1       6.422  -2.768  23.247  0.00  0.00    +0.147 A 
ATOM      6  C   UNL     1       5.348  -3.560  22.797  0.00  0.00    +0.093 A 
ATOM      7  C   UNL     1       5.158  -4.869  23.271  0.00  0.00    +0.131 A 
ATOM      8  C   UNL     1       6.095  -5.392  24.164  0.00  0.00    +0.092 A 
ATOM      9  O   UNL     1       6.585  -1.526  22.686  0.00  0.00    -0.451 OA
ATOM     10  C   UNL     1       7.179  -4.599  24.591  0.00  0.00    +0.135 A 
ATOM     11  C   UNL     1       7.340  -0.568  23.368  0.00  0.00    +0.181 A 
ENDROOT
BRANCH  11  12
ATOM     12  C   UNL     1       7.101   0.770  22.763  0.00  0.00    +0.025 A 
ATOM     13  C   UNL     1       8.175   1.451  22.172  0.00  0.00    +0.015 A 
ATOM     14  C   UNL     1       8.071   2.808  21.822  0.00  0.00    +0.050 A 
ATOM     15  C   UNL     1       6.888   3.488  22.056  0.00  0.00    +0.158 A 
ATOM     16  C   UNL     1       5.793   2.828  22.598  0.00  0.00    +0.159 A 
ATOM     17  C   UNL     1       5.895   1.472  22.966  0.00  0.00    +0.060 A 
BRANCH  16  18
ATOM     18  O   UNL     1       4.651   3.558  22.781  0.00  0.00    -0.503 OA
ATOM     19  H   UNL     1       4.347   3.863  21.910  0.00  0.00    +0.292 HD
ENDBRANCH  16  18
BRANCH  15  20
ATOM     20  O   UNL     1       6.819   4.820  21.768  0.00  0.00    -0.503 OA
ATOM     21  H   UNL     1       6.008   5.138  22.215  0.00  0.00    +0.292 HD
ENDBRANCH  15  20
ENDBRANCH  11  12
BRANCH  10  22
ATOM     22  O   UNL     1       8.127  -5.173  25.396  0.00  0.00    -0.506 OA
ATOM     23  H   UNL     1       8.243  -4.634  26.198  0.00  0.00    +0.292 HD
ENDBRANCH  10  22
BRANCH   7  24
ATOM     24  O   UNL     1       4.109  -5.570  22.724  0.00  0.00    -0.461 OA
BRANCH  24  25
ATOM     25  C   UNL     1       2.793  -5.367  23.283  0.00  0.00    +0.339 C 
ATOM     26  O   UNL     1       2.759  -5.433  24.719  0.00  0.00    -0.334 OA
ATOM     27  C   UNL     1       3.096  -6.712  25.261  0.00  0.00    +0.150 C 
ATOM     28  C   UNL     1       3.008  -6.610  26.784  0.00  0.00    +0.041 C 
ATOM     29  C   UNL     1       2.169  -7.834  24.769  0.00  0.00    +0.174 C 
ATOM     30  C   UNL     1       2.045  -7.823  23.239  0.00  0.00    +0.180 C 
ATOM     31  C   UNL     1       1.800  -6.403  22.688  0.00  0.00    +0.214 C 
BRANCH  31  32
ATOM     32  O   UNL     1       0.443  -5.985  22.931  0.00  0.00    -0.383 OA
ATOM     33  H   UNL     1       0.137  -5.461  22.170  0.00  0.00    +0.210 HD
ENDBRANCH  31  32
BRANCH  30  34
ATOM     34  O   UNL     1       0.965  -8.697  22.870  0.00  0.00    -0.386 OA
ATOM     35  H   UNL     1       0.542  -8.348  22.068  0.00  0.00    +0.210 HD
ENDBRANCH  30  34
BRANCH  29  36
ATOM     36  O   UNL     1       2.637  -9.108  25.237  0.00  0.00    -0.387 OA
ATOM     37  H   UNL     1       2.952  -9.629  24.479  0.00  0.00    +0.210 HD
ENDBRANCH  29  36
ENDBRANCH  24  25
ENDBRANCH   7  24
BRANCH   1  38
ATOM     38  O   UNL     1       8.688   0.132  25.273  0.00  0.00    -0.453 OA
BRANCH  38  40
ATOM     39  C   UNL     1       7.456   1.014  27.320  0.00  0.00    +0.221 C 
ATOM     40  C   UNL     1       7.775   1.158  25.783  0.00  0.00    +0.340 C 
ATOM     41  O   UNL     1       8.310   2.487  25.579  0.00  0.00    -0.331 OA
ATOM     42  C   UNL     1       7.308   3.496  25.814  0.00  0.00    +0.179 C 
ATOM     43  C   UNL     1       7.004   3.536  27.309  0.00  0.00    +0.177 C 
ATOM     44  C   UNL     1       6.504   2.162  27.727  0.00  0.00    +0.180 C 
BRANCH  44  45
ATOM     45  O   UNL     1       6.280   2.168  29.150  0.00  0.00    -0.386 OA
ATOM     46  H   UNL     1       5.430   1.697  29.271  0.00  0.00    +0.210 HD
ENDBRANCH  44  45
BRANCH  43  47
ATOM     47  O   UNL     1       6.001   4.507  27.616  0.00  0.00    -0.386 OA
ATOM     48  H   UNL     1       5.208   3.987  27.863  0.00  0.00    +0.210 HD
ENDBRANCH  43  47
BRANCH  42  49
ATOM     49  C   UNL     1       7.771   4.874  25.320  0.00  0.00    +0.190 C 
BRANCH  49  50
ATOM     50  O   UNL     1       6.710   5.647  24.765  0.00  0.00    -0.392 OA
ATOM     51  H   UNL     1       6.692   6.518  25.214  0.00  0.00    +0.210 HD
ENDBRANCH  49  50
ENDBRANCH  42  49
BRANCH  39  52
ATOM     52  O   UNL     1       6.719  -0.133  27.773  0.00  0.00    -0.337 OA
BRANCH  52  56
ATOM     53  C   UNL     1       3.178   1.158  29.636  0.00  0.00    +0.041 C 
ATOM     54  C   UNL     1       3.570  -0.308  29.488  0.00  0.00    +0.149 C 
ATOM     55  O   UNL     1       4.957  -0.434  29.161  0.00  0.00    -0.343 OA
ATOM     56  C   UNL     1       5.308  -0.068  27.818  0.00  0.00    +0.282 C 
ATOM     57  C   UNL     1       4.593  -1.019  26.832  0.00  0.00    +0.201 C 
ATOM     58  C   UNL     1       3.073  -0.913  27.049  0.00  0.00    +0.179 C 
ATOM     59  C   UNL     1       2.700  -1.134  28.520  0.00  0.00    +0.174 C 
BRANCH  59  60
ATOM     60  O   UNL     1       2.867  -2.528  28.824  0.00  0.00    -0.387 OA
ATOM     61  H   UNL     1       3.225  -2.974  28.033  0.00  0.00    +0.210 HD
ENDBRANCH  59  60
BRANCH  58  62
ATOM     62  O   UNL     1       2.564   0.346  26.591  0.00  0.00    -0.386 OA
ATOM     63  H   UNL     1       1.595   0.365  26.612  0.00  0.00    +0.210 HD
ENDBRANCH  58  62
BRANCH  57  64
ATOM     64  O   UNL     1       4.904  -0.744  25.463  0.00  0.00    -0.384 OA
ATOM     65  H   UNL     1       4.818  -1.572  24.955  0.00  0.00    +0.210 HD
ENDBRANCH  57  64
ENDBRANCH  52  56
ENDBRANCH  39  52
ENDBRANCH  38  40
ENDBRANCH   1  38
TORSDOF 20
ENDMDL
MODEL 7
REMARK VINA RESULT:      -6.4      2.285     10.452
REMARK  Name = 
REMARK  22 active torsions:
REMARK  status: ('A' for Active; 'I' for Inactive)
REMARK    1  A    between atoms: C_1  and  C_2
REMARK    2  A    between atoms: C_4  and  O_68
REMARK    3  A    between atoms: C_6  and  O_67
REMARK    4  A    between atoms: C_8  and  O_66
REMARK    5  A    between atoms: C_10  and  O_13
REMARK    6  A    between atoms: O_13  and  C_14
REMARK    7  A    between atoms: C_16  and  O_65
REMARK    8  A    between atoms: C_18  and  O_64
REMARK    9  A    between atoms: C_20  and  C_62
REMARK   10  A    between atoms: C_23  and  O_25
REMARK   11  A    between atoms: O_25  and  C_26
REMARK   12  A    between atoms: C_27  and  C_54
REMARK   13  A    between atoms: C_31  and  O_38
REMARK   14  A    between atoms: C_33  and  O_37
REMARK   15  A    between atoms: O_38  and  C_39
REMARK   16  A    between atoms: C_41  and  O_53
REMARK   17  A    between atoms: C_43  and  O_52
REMARK   18  A    between atoms: C_45  and  O_51
REMARK   19  A    between atoms: C_47  and  C_50
REMARK   20  A    between atoms: C_56  and  O_61
REMARK   21  A    between atoms: C_57  and  O_60
REMARK   22  A    between atoms: C_62  and  O_63
REMARK                            x       y       z     vdW  Elec       q    Type
REMARK                         _______ _______ _______ _____ _____    ______ ____
ROOT
ATOM      1  C   UNL     1       5.665  -0.032  26.078  0.00  0.00    +0.214 A 
ATOM      2  C   UNL     1       4.693  -0.500  27.142  0.00  0.00    +0.238 A 
ATOM      3  O   UNL     1       4.681   0.005  28.260  0.00  0.00    -0.283 OA
ATOM      4  C   UNL     1       3.771  -1.601  26.775  0.00  0.00    +0.109 A 
ATOM      5  C   UNL     1       4.134  -2.376  25.685  0.00  0.00    +0.147 A 
ATOM      6  C   UNL     1       3.287  -3.401  25.221  0.00  0.00    +0.093 A 
ATOM      7  C   UNL     1       2.056  -3.667  25.843  0.00  0.00    +0.131 A 
ATOM      8  C   UNL     1       1.713  -2.925  26.975  0.00  0.00    +0.092 A 
ATOM      9  O   UNL     1       5.353  -2.221  25.070  0.00  0.00    -0.451 OA
ATOM     10  C   UNL     1       2.579  -1.916  27.445  0.00  0.00    +0.135 A 
ATOM     11  C   UNL     1       6.025  -1.002  25.196  0.00  0.00    +0.181 A 
ENDROOT
BRANCH  11  12
ATOM     12  C   UNL     1       7.123  -0.940  24.195  0.00  0.00    +0.025 A 
ATOM     13  C   UNL     1       7.010  -1.691  23.015  0.00  0.00    +0.015 A 
ATOM     14  C   UNL     1       8.113  -1.877  22.164  0.00  0.00    +0.050 A 
ATOM     15  C   UNL     1       9.333  -1.308  22.488  0.00  0.00    +0.158 A 
ATOM     16  C   UNL     1       9.463  -0.522  23.626  0.00  0.00    +0.159 A 
ATOM     17  C   UNL     1       8.366  -0.345  24.491  0.00  0.00    +0.060 A 
BRANCH  16  18
ATOM     18  O   UNL     1      10.692   0.025  23.869  0.00  0.00    -0.503 OA
ATOM     19  H   UNL     1      11.322  -0.702  24.010  0.00  0.00    +0.292 HD
ENDBRANCH  16  18
BRANCH  15  20
ATOM     20  O   UNL     1      10.411  -1.546  21.686  0.00  0.00    -0.503 OA
ATOM     21  H   UNL     1      10.528  -2.518  21.695  0.00  0.00    +0.292 HD
ENDBRANCH  15  20
ENDBRANCH  11  12
BRANCH  10  22
ATOM     22  O   UNL     1       2.252  -1.271  28.607  0.00  0.00    -0.506 OA
ATOM     23  H   UNL     1       2.304  -0.308  28.471  0.00  0.00    +0.292 HD
ENDBRANCH  10  22
BRANCH   7  24
ATOM     24  O   UNL     1       1.334  -4.724  25.342  0.00  0.00    -0.461 OA
BRANCH  24  25
ATOM     25  C   UNL     1       1.361  -5.970  26.071  0.00  0.00    +0.339 C 
ATOM     26  O   UNL     1       2.604  -6.214  26.752  0.00  0.00    -0.334 OA
ATOM     27  C   UNL     1       3.730  -6.375  25.887  0.00  0.00    +0.150 C 
ATOM     28  C   UNL     1       4.957  -6.628  26.764  0.00  0.00    +0.041 C 
ATOM     29  C   UNL     1       3.562  -7.536  24.894  0.00  0.00    +0.174 C 
ATOM     30  C   UNL     1       2.221  -7.444  24.152  0.00  0.00    +0.180 C 
ATOM     31  C   UNL     1       1.049  -7.151  25.112  0.00  0.00    +0.214 C 
BRANCH  31  32
ATOM     32  O   UNL     1       0.699  -8.325  25.869  0.00  0.00    -0.383 OA
ATOM     33  H   UNL     1       0.332  -8.991  25.261  0.00  0.00    +0.210 HD
ENDBRANCH  31  32
BRANCH  30  34
ATOM     34  O   UNL     1       2.005  -8.686  23.462  0.00  0.00    -0.386 OA
ATOM     35  H   UNL     1       2.525  -9.381  23.901  0.00  0.00    +0.210 HD
ENDBRANCH  30  34
BRANCH  29  36
ATOM     36  O   UNL     1       4.659  -7.562  23.968  0.00  0.00    -0.387 OA
ATOM     37  H   UNL     1       5.165  -8.381  24.097  0.00  0.00    +0.210 HD
ENDBRANCH  29  36
ENDBRANCH  24  25
ENDBRANCH   7  24
BRANCH   1  38
ATOM     38  O   UNL     1       6.179   1.277  26.044  0.00  0.00    -0.453 OA
BRANCH  38  40
ATOM     39  C   UNL     1       5.663   2.391  23.813  0.00  0.00    +0.221 C 
ATOM     40  C   UNL     1       5.363   2.280  25.356  0.00  0.00    +0.340 C 
ATOM     41  O   UNL     1       3.951   1.998  25.499  0.00  0.00    -0.331 OA
ATOM     42  C   UNL     1       3.148   3.117  25.077  0.00  0.00    +0.179 C 
ATOM     43  C   UNL     1       3.262   3.249  23.560  0.00  0.00    +0.177 C 
ATOM     44  C   UNL     1       4.727   3.465  23.212  0.00  0.00    +0.180 C 
BRANCH  44  45
ATOM     45  O   UNL     1       4.855   3.520  21.779  0.00  0.00    -0.386 OA
ATOM     46  H   UNL     1       4.195   4.186  21.495  0.00  0.00    +0.210 HD
ENDBRANCH  44  45
BRANCH  43  47
ATOM     47  O   UNL     1       2.502   4.355  23.070  0.00  0.00    -0.386 OA
ATOM     48  H   UNL     1       3.153   5.075  22.935  0.00  0.00    +0.210 HD
ENDBRANCH  43  47
BRANCH  42  49
ATOM     49  C   UNL     1       1.681   2.948  25.495  0.00  0.00    +0.190 C 
BRANCH  49  50
ATOM     50  O   UNL     1       0.899   2.278  24.511  0.00  0.00    -0.392 OA
ATOM     51  H   UNL     1       0.967   2.773  23.668  0.00  0.00    +0.210 HD
ENDBRANCH  49  50
ENDBRANCH  42  49
BRANCH  39  52
ATOM     52  O   UNL     1       6.948   2.872  23.386  0.00  0.00    -0.337 OA
BRANCH  52  56
ATOM     53  C   UNL     1       6.747   7.056  23.026  0.00  0.00    +0.041 C 
ATOM     54  C   UNL     1       7.997   6.239  22.715  0.00  0.00    +0.149 C 
ATOM     55  O   UNL     1       7.675   4.852  22.569  0.00  0.00    -0.343 OA
ATOM     56  C   UNL     1       7.365   4.161  23.788  0.00  0.00    +0.282 C 
ATOM     57  C   UNL     1       8.609   4.173  24.705  0.00  0.00    +0.201 C 
ATOM     58  C   UNL     1       9.006   5.631  24.989  0.00  0.00    +0.179 C 
ATOM     59  C   UNL     1       9.174   6.431  23.691  0.00  0.00    +0.174 C 
BRANCH  59  60
ATOM     60  O   UNL     1      10.383   5.996  23.047  0.00  0.00    -0.387 OA
ATOM     61  H   UNL     1      10.542   5.065  23.289  0.00  0.00    +0.210 HD
ENDBRANCH  59  60
BRANCH  58  62
ATOM     62  O   UNL     1       8.059   6.276  25.850  0.00  0.00    -0.386 OA
ATOM     63  H   UNL     1       7.722   5.667  26.526  0.00  0.00    +0.210 HD
ENDBRANCH  58  62
BRANCH  57  64
ATOM     64  O   UNL     1       8.401   3.481  25.940  0.00  0.00    -0.384 OA
ATOM     65  H   UNL     1       7.477   3.621  26.220  0.00  0.00    +0.210 HD
ENDBRANCH  57  64
ENDBRANCH  52  56
ENDBRANCH  39  52
ENDBRANCH  38  40
ENDBRANCH   1  38
TORSDOF 20
ENDMDL
MODEL 8
REMARK VINA RESULT:      -6.2      1.490      2.330
REMARK  Name = 
REMARK  22 active torsions:
REMARK  status: ('A' for Active; 'I' for Inactive)
REMARK    1  A    between atoms: C_1  and  C_2
REMARK    2  A    between atoms: C_4  and  O_68
REMARK    3  A    between atoms: C_6  and  O_67
REMARK    4  A    between atoms: C_8  and  O_66
REMARK    5  A    between atoms: C_10  and  O_13
REMARK    6  A    between atoms: O_13  and  C_14
REMARK    7  A    between atoms: C_16  and  O_65
REMARK    8  A    between atoms: C_18  and  O_64
REMARK    9  A    between atoms: C_20  and  C_62
REMARK   10  A    between atoms: C_23  and  O_25
REMARK   11  A    between atoms: O_25  and  C_26
REMARK   12  A    between atoms: C_27  and  C_54
REMARK   13  A    between atoms: C_31  and  O_38
REMARK   14  A    between atoms: C_33  and  O_37
REMARK   15  A    between atoms: O_38  and  C_39
REMARK   16  A    between atoms: C_41  and  O_53
REMARK   17  A    between atoms: C_43  and  O_52
REMARK   18  A    between atoms: C_45  and  O_51
REMARK   19  A    between atoms: C_47  and  C_50
REMARK   20  A    between atoms: C_56  and  O_61
REMARK   21  A    between atoms: C_57  and  O_60
REMARK   22  A    between atoms: C_62  and  O_63
REMARK                            x       y       z     vdW  Elec       q    Type
REMARK                         _______ _______ _______ _____ _____    ______ ____
ROOT
ATOM      1  C   UNL     1       6.395  -2.981  26.578  0.00  0.00    +0.214 A 
ATOM      2  C   UNL     1       7.817  -2.790  26.092  0.00  0.00    +0.238 A 
ATOM      3  O   UNL     1       8.646  -3.689  26.179  0.00  0.00    -0.283 OA
ATOM      4  C   UNL     1       8.161  -1.465  25.522  0.00  0.00    +0.109 A 
ATOM      5  C   UNL     1       7.322  -0.412  25.852  0.00  0.00    +0.147 A 
ATOM      6  C   UNL     1       7.531   0.868  25.303  0.00  0.00    +0.093 A 
ATOM      7  C   UNL     1       8.587   1.115  24.410  0.00  0.00    +0.131 A 
ATOM      8  C   UNL     1       9.466   0.071  24.120  0.00  0.00    +0.092 A 
ATOM      9  O   UNL     1       6.313  -0.561  26.771  0.00  0.00    -0.451 OA
ATOM     10  C   UNL     1       9.262  -1.201  24.692  0.00  0.00    +0.135 A 
ATOM     11  C   UNL     1       5.803  -1.839  27.017  0.00  0.00    +0.181 A 
ENDROOT
BRANCH  11  12
ATOM     12  C   UNL     1       4.524  -1.723  27.766  0.00  0.00    +0.025 A 
ATOM     13  C   UNL     1       4.561  -1.371  29.124  0.00  0.00    +0.015 A 
ATOM     14  C   UNL     1       3.423  -1.498  29.938  0.00  0.00    +0.050 A 
ATOM     15  C   UNL     1       2.241  -1.973  29.396  0.00  0.00    +0.158 A 
ATOM     16  C   UNL     1       2.162  -2.287  28.045  0.00  0.00    +0.159 A 
ATOM     17  C   UNL     1       3.303  -2.177  27.227  0.00  0.00    +0.060 A 
BRANCH  16  18
ATOM     18  O   UNL     1       0.956  -2.729  27.577  0.00  0.00    -0.503 OA
ATOM     19  H   UNL     1       0.961  -3.701  27.607  0.00  0.00    +0.292 HD
ENDBRANCH  16  18
BRANCH  15  20
ATOM     20  O   UNL     1       1.160  -2.150  30.211  0.00  0.00    -0.503 OA
ATOM     21  H   UNL     1       0.380  -1.983  29.643  0.00  0.00    +0.292 HD
ENDBRANCH  15  20
ENDBRANCH  11  12
BRANCH  10  22
ATOM     22  O   UNL     1      10.193  -2.177  24.456  0.00  0.00    -0.506 OA
ATOM     23  H   UNL     1      10.872  -2.156  25.154  0.00  0.00    +0.292 HD
ENDBRANCH  10  22
BRANCH   7  24
ATOM     24  O   UNL     1       8.730   2.413  23.977  0.00  0.00    -0.461 OA
BRANCH  24  25
ATOM     25  C   UNL     1       8.106   3.458  24.753  0.00  0.00    +0.339 C 
ATOM     26  O   UNL     1       6.782   3.797  24.308  0.00  0.00    -0.334 OA
ATOM     27  C   UNL     1       6.724   4.356  22.994  0.00  0.00    +0.150 C 
ATOM     28  C   UNL     1       5.258   4.659  22.680  0.00  0.00    +0.041 C 
ATOM     29  C   UNL     1       7.554   5.642  22.852  0.00  0.00    +0.174 C 
ATOM     30  C   UNL     1       8.983   5.442  23.378  0.00  0.00    +0.180 C 
ATOM     31  C   UNL     1       9.002   4.728  24.746  0.00  0.00    +0.214 C 
BRANCH  31  32
ATOM     32  O   UNL     1       8.599   5.624  25.799  0.00  0.00    -0.383 OA
ATOM     33  H   UNL     1       9.359   5.773  26.390  0.00  0.00    +0.210 HD
ENDBRANCH  31  32
BRANCH  30  34
ATOM     34  O   UNL     1       9.608   6.733  23.479  0.00  0.00    -0.386 OA
ATOM     35  H   UNL     1       9.065   7.297  24.055  0.00  0.00    +0.210 HD
ENDBRANCH  30  34
BRANCH  29  36
ATOM     36  O   UNL     1       7.568   6.078  21.485  0.00  0.00    -0.387 OA
ATOM     37  H   UNL     1       6.933   6.806  21.377  0.00  0.00    +0.210 HD
ENDBRANCH  29  36
ENDBRANCH  24  25
ENDBRANCH   7  24
BRANCH   1  38
ATOM     38  O   UNL     1       5.769  -4.241  26.612  0.00  0.00    -0.453 OA
BRANCH  38  40
ATOM     39  C   UNL     1       4.405  -5.757  25.086  0.00  0.00    +0.221 C 
ATOM     40  C   UNL     1       5.760  -4.998  25.358  0.00  0.00    +0.340 C 
ATOM     41  O   UNL     1       6.004  -4.137  24.221  0.00  0.00    -0.331 OA
ATOM     42  C   UNL     1       6.277  -4.904  23.032  0.00  0.00    +0.179 C 
ATOM     43  C   UNL     1       4.988  -5.595  22.596  0.00  0.00    +0.177 C 
ATOM     44  C   UNL     1       4.525  -6.494  23.732  0.00  0.00    +0.180 C 
BRANCH  44  45
ATOM     45  O   UNL     1       3.271  -7.096  23.359  0.00  0.00    -0.386 OA
ATOM     46  H   UNL     1       2.590  -6.537  23.786  0.00  0.00    +0.210 HD
ENDBRANCH  44  45
BRANCH  43  47
ATOM     47  O   UNL     1       5.188  -6.392  21.427  0.00  0.00    -0.386 OA
ATOM     48  H   UNL     1       4.290  -6.551  21.069  0.00  0.00    +0.210 HD
ENDBRANCH  43  47
BRANCH  42  49
ATOM     49  C   UNL     1       6.824  -4.019  21.904  0.00  0.00    +0.190 C 
BRANCH  49  50
ATOM     50  O   UNL     1       7.938  -3.230  22.310  0.00  0.00    -0.392 OA
ATOM     51  H   UNL     1       7.606  -2.447  22.797  0.00  0.00    +0.210 HD
ENDBRANCH  49  50
ENDBRANCH  42  49
BRANCH  39  52
ATOM     52  O   UNL     1       4.023  -6.833  25.957  0.00  0.00    -0.337 OA
BRANCH  52  56
ATOM     53  C   UNL     1       3.678  -5.362  29.879  0.00  0.00    +0.041 C 
ATOM     54  C   UNL     1       3.428  -6.817  29.497  0.00  0.00    +0.149 C 
ATOM     55  O   UNL     1       3.967  -7.102  28.202  0.00  0.00    -0.343 OA
ATOM     56  C   UNL     1       3.238  -6.548  27.096  0.00  0.00    +0.282 C 
ATOM     57  C   UNL     1       1.821  -7.163  27.067  0.00  0.00    +0.201 C 
ATOM     58  C   UNL     1       1.115  -6.854  28.398  0.00  0.00    +0.179 C 
ATOM     59  C   UNL     1       1.965  -7.288  29.599  0.00  0.00    +0.174 C 
BRANCH  59  60
ATOM     60  O   UNL     1       1.946  -8.723  29.670  0.00  0.00    -0.387 OA
ATOM     61  H   UNL     1       1.054  -9.031  29.423  0.00  0.00    +0.210 HD
ENDBRANCH  59  60
BRANCH  58  62
ATOM     62  O   UNL     1       0.779  -5.465  28.504  0.00  0.00    -0.386 OA
ATOM     63  H   UNL     1       0.327  -5.148  27.707  0.00  0.00    +0.210 HD
ENDBRANCH  58  62
BRANCH  57  64
ATOM     64  O   UNL     1       1.026  -6.686  25.977  0.00  0.00    -0.384 OA
ATOM     65  H   UNL     1       0.265  -7.286  25.866  0.00  0.00    +0.210 HD
ENDBRANCH  57  64
ENDBRANCH  52  56
ENDBRANCH  39  52
ENDBRANCH  38  40
ENDBRANCH   1  38
TORSDOF 20
ENDMDL
MODEL 9
REMARK VINA RESULT:      -6.2      1.766      2.941
REMARK  Name = 
REMARK  22 active torsions:
REMARK  status: ('A' for Active; 'I' for Inactive)
REMARK    1  A    between atoms: C_1  and  C_2
REMARK    2  A    between atoms: C_4  and  O_68
REMARK    3  A    between atoms: C_6  and  O_67
REMARK    4  A    between atoms: C_8  and  O_66
REMARK    5  A    between atoms: C_10  and  O_13
REMARK    6  A    between atoms: O_13  and  C_14
REMARK    7  A    between atoms: C_16  and  O_65
REMARK    8  A    between atoms: C_18  and  O_64
REMARK    9  A    between atoms: C_20  and  C_62
REMARK   10  A    between atoms: C_23  and  O_25
REMARK   11  A    between atoms: O_25  and  C_26
REMARK   12  A    between atoms: C_27  and  C_54
REMARK   13  A    between atoms: C_31  and  O_38
REMARK   14  A    between atoms: C_33  and  O_37
REMARK   15  A    between atoms: O_38  and  C_39
REMARK   16  A    between atoms: C_41  and  O_53
REMARK   17  A    between atoms: C_43  and  O_52
REMARK   18  A    between atoms: C_45  and  O_51
REMARK   19  A    between atoms: C_47  and  C_50
REMARK   20  A    between atoms: C_56  and  O_61
REMARK   21  A    between atoms: C_57  and  O_60
REMARK   22  A    between atoms: C_62  and  O_63
REMARK                            x       y       z     vdW  Elec       q    Type
REMARK                         _______ _______ _______ _____ _____    ______ ____
ROOT
ATOM      1  C   UNL     1       6.293  -2.479  26.233  0.00  0.00    +0.214 A 
ATOM      2  C   UNL     1       7.701  -2.740  25.737  0.00  0.00    +0.238 A 
ATOM      3  O   UNL     1       8.148  -3.879  25.659  0.00  0.00    -0.283 OA
ATOM      4  C   UNL     1       8.513  -1.557  25.365  0.00  0.00    +0.109 A 
ATOM      5  C   UNL     1       8.102  -0.337  25.877  0.00  0.00    +0.147 A 
ATOM      6  C   UNL     1       8.772   0.850  25.523  0.00  0.00    +0.093 A 
ATOM      7  C   UNL     1       9.868   0.835  24.645  0.00  0.00    +0.131 A 
ATOM      8  C   UNL     1      10.319  -0.399  24.171  0.00  0.00    +0.092 A 
ATOM      9  O   UNL     1       7.084  -0.252  26.795  0.00  0.00    -0.451 OA
ATOM     10  C   UNL     1       9.656  -1.583  24.550  0.00  0.00    +0.135 A 
ATOM     11  C   UNL     1       6.142  -1.283  26.859  0.00  0.00    +0.181 A 
ENDROOT
BRANCH  11  12
ATOM     12  C   UNL     1       4.972  -0.830  27.658  0.00  0.00    +0.025 A 
ATOM     13  C   UNL     1       5.189  -0.023  28.785  0.00  0.00    +0.015 A 
ATOM     14  C   UNL     1       4.164   0.217  29.716  0.00  0.00    +0.050 A 
ATOM     15  C   UNL     1       2.915  -0.346  29.520  0.00  0.00    +0.158 A 
ATOM     16  C   UNL     1       2.657  -1.112  28.390  0.00  0.00    +0.159 A 
ATOM     17  C   UNL     1       3.685  -1.370  27.462  0.00  0.00    +0.060 A 
BRANCH  16  18
ATOM     18  O   UNL     1       1.394  -1.617  28.253  0.00  0.00    -0.503 OA
ATOM     19  H   UNL     1       0.919  -1.066  27.609  0.00  0.00    +0.292 HD
ENDBRANCH  16  18
BRANCH  15  20
ATOM     20  O   UNL     1       1.945  -0.156  30.462  0.00  0.00    -0.503 OA
ATOM     21  H   UNL     1       1.506  -1.025  30.557  0.00  0.00    +0.292 HD
ENDBRANCH  15  20
ENDBRANCH  11  12
BRANCH  10  22
ATOM     22  O   UNL     1      10.179  -2.780  24.138  0.00  0.00    -0.506 OA
ATOM     23  H   UNL     1      10.948  -2.619  23.564  0.00  0.00    +0.292 HD
ENDBRANCH  10  22
BRANCH   7  24
ATOM     24  O   UNL     1      10.480   2.044  24.411  0.00  0.00    -0.461 OA
BRANCH  24  25
ATOM     25  C   UNL     1      10.117   2.766  23.214  0.00  0.00    +0.339 C 
ATOM     26  O   UNL     1      11.199   3.522  22.644  0.00  0.00    -0.334 OA
ATOM     27  C   UNL     1      11.681   4.582  23.472  0.00  0.00    +0.150 C 
ATOM     28  C   UNL     1      12.817   5.279  22.722  0.00  0.00    +0.041 C 
ATOM     29  C   UNL     1      10.594   5.610  23.823  0.00  0.00    +0.174 C 
ATOM     30  C   UNL     1       9.334   4.922  24.368  0.00  0.00    +0.180 C 
ATOM     31  C   UNL     1       8.919   3.709  23.509  0.00  0.00    +0.214 C 
BRANCH  31  32
ATOM     32  O   UNL     1       8.310   4.138  22.276  0.00  0.00    -0.383 OA
ATOM     33  H   UNL     1       8.043   5.070  22.367  0.00  0.00    +0.210 HD
ENDBRANCH  31  32
BRANCH  30  34
ATOM     34  O   UNL     1       8.275   5.894  24.408  0.00  0.00    -0.386 OA
ATOM     35  H   UNL     1       8.490   6.614  23.792  0.00  0.00    +0.210 HD
ENDBRANCH  30  34
BRANCH  29  36
ATOM     36  O   UNL     1      11.100   6.571  24.762  0.00  0.00    -0.387 OA
ATOM     37  H   UNL     1      10.358   7.077  25.131  0.00  0.00    +0.210 HD
ENDBRANCH  29  36
ENDBRANCH  24  25
ENDBRANCH   7  24
BRANCH   1  38
ATOM     38  O   UNL     1       5.255  -3.418  26.095  0.00  0.00    -0.453 OA
BRANCH  38  40
ATOM     39  C   UNL     1       4.092  -5.249  24.760  0.00  0.00    +0.221 C 
ATOM     40  C   UNL     1       5.380  -4.369  24.988  0.00  0.00    +0.340 C 
ATOM     41  O   UNL     1       5.662  -3.692  23.741  0.00  0.00    -0.331 OA
ATOM     42  C   UNL     1       6.064  -4.624  22.718  0.00  0.00    +0.179 C 
ATOM     43  C   UNL     1       4.850  -5.459  22.321  0.00  0.00    +0.177 C 
ATOM     44  C   UNL     1       4.352  -6.188  23.560  0.00  0.00    +0.180 C 
BRANCH  44  45
ATOM     45  O   UNL     1       3.163  -6.924  23.213  0.00  0.00    -0.386 OA
ATOM     46  H   UNL     1       2.641  -6.957  24.040  0.00  0.00    +0.210 HD
ENDBRANCH  44  45
BRANCH  43  47
ATOM     47  O   UNL     1       5.178  -6.422  21.318  0.00  0.00    -0.386 OA
ATOM     48  H   UNL     1       4.759  -6.091  20.497  0.00  0.00    +0.210 HD
ENDBRANCH  43  47
BRANCH  42  49
ATOM     49  C   UNL     1       6.644  -3.902  21.495  0.00  0.00    +0.190 C 
BRANCH  49  50
ATOM     50  O   UNL     1       5.712  -3.790  20.423  0.00  0.00    -0.392 OA
ATOM     51  H   UNL     1       6.134  -3.293  19.692  0.00  0.00    +0.210 HD
ENDBRANCH  49  50
ENDBRANCH  42  49
BRANCH  39  52
ATOM     52  O   UNL     1       3.704  -6.191  25.772  0.00  0.00    -0.337 OA
BRANCH  52  56
ATOM     53  C   UNL     1       6.406  -6.055  28.990  0.00  0.00    +0.041 C 
ATOM     54  C   UNL     1       5.173  -6.952  28.959  0.00  0.00    +0.149 C 
ATOM     55  O   UNL     1       4.660  -7.065  27.627  0.00  0.00    -0.343 OA
ATOM     56  C   UNL     1       3.989  -5.900  27.125  0.00  0.00    +0.282 C 
ATOM     57  C   UNL     1       2.742  -5.622  27.995  0.00  0.00    +0.201 C 
ATOM     58  C   UNL     1       3.186  -5.412  29.453  0.00  0.00    +0.179 C 
ATOM     59  C   UNL     1       4.053  -6.576  29.949  0.00  0.00    +0.174 C 
BRANCH  59  60
ATOM     60  O   UNL     1       3.205  -7.720  30.141  0.00  0.00    -0.387 OA
ATOM     61  H   UNL     1       2.463  -7.458  30.719  0.00  0.00    +0.210 HD
ENDBRANCH  59  60
BRANCH  58  62
ATOM     62  O   UNL     1       3.883  -4.170  29.616  0.00  0.00    -0.386 OA
ATOM     63  H   UNL     1       4.552  -4.046  28.924  0.00  0.00    +0.210 HD
ENDBRANCH  58  62
BRANCH  57  64
ATOM     64  O   UNL     1       1.992  -4.487  27.552  0.00  0.00    -0.384 OA
ATOM     65  H   UNL     1       2.279  -4.262  26.648  0.00  0.00    +0.210 HD
ENDBRANCH  57  64
ENDBRANCH  52  56
ENDBRANCH  39  52
ENDBRANCH  38  40
ENDBRANCH   1  38
TORSDOF 20
ENDMDL
