MODEL 1
REMARK VINA RESULT:      -6.0      0.000      0.000
REMARK  Name = 
REMARK  28 active torsions:
REMARK  status: ('A' for Active; 'I' for Inactive)
REMARK    1  A    between atoms: C_1  and  C_2
REMARK    2  A    between atoms: C_3  and  O_75
REMARK    3  A    between atoms: C_5  and  O_74
REMARK    4  A    between atoms: C_7  and  O_73
REMARK    5  A    between atoms: C_8  and  O_11
REMARK    6  A    between atoms: O_11  and  C_12
REMARK    7  A    between atoms: C_12  and  C_13
REMARK    8  A    between atoms: C_14  and  O_72
REMARK    9  A    between atoms: C_16  and  O_71
REMARK   10  A    between atoms: C_17  and  O_57
REMARK   11  A    between atoms: C_18  and  O_21
REMARK   12  A    between atoms: O_21  and  C_22
REMARK   13  A    between atoms: C_23  and  C_49
REMARK   14  A    between atoms: C_27  and  O_34
REMARK   15  A    between atoms: C_29  and  O_33
REMARK   16  A    between atoms: O_34  and  C_35
REMARK   17  A    between atoms: C_37  and  O_48
REMARK   18  A    between atoms: C_38  and  O_47
REMARK   19  A    between atoms: C_40  and  O_46
REMARK   20  A    between atoms: C_42  and  C_44
REMARK   21  A    between atoms: C_44  and  O_45
REMARK   22  A    between atoms: C_51  and  O_56
REMARK   23  A    between atoms: C_52  and  O_55
REMARK   24  A    between atoms: O_57  and  C_58
REMARK   25  A    between atoms: C_60  and  O_70
REMARK   26  A    between atoms: C_62  and  O_69
REMARK   27  A    between atoms: C_63  and  O_68
REMARK   28  A    between atoms: C_65  and  C_67
REMARK                            x       y       z     vdW  Elec       q    Type
REMARK                         _______ _______ _______ _____ _____    ______ ____
ROOT
ATOM      1  O   UNL     1       7.309   1.164  26.245  0.00  0.00    -0.453 OA
ENDROOT
BRANCH   1   2
ATOM      2  C   UNL     1       6.585   0.185  26.927  0.00  0.00    +0.214 A 
ATOM      3  C   UNL     1       7.096  -1.235  27.119  0.00  0.00    +0.238 A 
ATOM      4  O   UNL     1       8.297  -1.509  26.953  0.00  0.00    -0.283 OA
ATOM      5  C   UNL     1       6.058  -2.292  27.448  0.00  0.00    +0.109 A 
ATOM      6  C   UNL     1       4.813  -1.852  27.860  0.00  0.00    +0.147 A 
ATOM      7  C   UNL     1       3.741  -2.721  28.149  0.00  0.00    +0.093 A 
ATOM      8  C   UNL     1       3.878  -4.097  28.007  0.00  0.00    +0.131 A 
ATOM      9  C   UNL     1       5.135  -4.565  27.603  0.00  0.00    +0.092 A 
ATOM     10  O   UNL     1       4.543  -0.528  28.000  0.00  0.00    -0.451 OA
ATOM     11  C   UNL     1       6.213  -3.671  27.345  0.00  0.00    +0.135 A 
ATOM     12  C   UNL     1       5.279   0.368  27.254  0.00  0.00    +0.181 A 
BRANCH  12  13
ATOM     13  C   UNL     1       4.389   1.451  26.788  0.00  0.00    +0.025 A 
ATOM     14  C   UNL     1       4.078   2.543  27.604  0.00  0.00    +0.015 A 
ATOM     15  C   UNL     1       3.371   3.642  27.101  0.00  0.00    +0.050 A 
ATOM     16  C   UNL     1       3.086   3.706  25.735  0.00  0.00    +0.158 A 
ATOM     17  C   UNL     1       3.501   2.683  24.895  0.00  0.00    +0.159 A 
ATOM     18  C   UNL     1       4.096   1.544  25.413  0.00  0.00    +0.060 A 
BRANCH  17  19
ATOM     19  O   UNL     1       3.461   2.779  23.533  0.00  0.00    -0.503 OA
ATOM     20  H   UNL     1       3.445   3.724  23.316  0.00  0.00    +0.292 HD
ENDBRANCH  17  19
BRANCH  16  21
ATOM     21  O   UNL     1       2.467   4.801  25.209  0.00  0.00    -0.503 OA
ATOM     22  H   UNL     1       1.869   5.149  25.892  0.00  0.00    +0.292 HD
ENDBRANCH  16  21
ENDBRANCH  12  13
BRANCH  11  23
ATOM     23  O   UNL     1       7.418  -4.192  26.967  0.00  0.00    -0.506 OA
ATOM     24  H   UNL     1       7.267  -4.887  26.303  0.00  0.00    +0.292 HD
ENDBRANCH  11  23
BRANCH   8  25
ATOM     25  O   UNL     1       2.867  -5.027  28.212  0.00  0.00    -0.461 OA
BRANCH  25  26
ATOM     26  C   UNL     1       3.209  -6.403  27.905  0.00  0.00    +0.339 C 
ATOM     27  O   UNL     1       2.737  -6.766  26.605  0.00  0.00    -0.331 OA
ATOM     28  C   UNL     1       1.303  -6.839  26.540  0.00  0.00    +0.179 C 
ATOM     29  C   UNL     1       0.761  -7.979  27.430  0.00  0.00    +0.177 C 
ATOM     30  C   UNL     1       1.234  -7.791  28.884  0.00  0.00    +0.180 C 
ATOM     31  C   UNL     1       2.739  -7.465  28.939  0.00  0.00    +0.214 C 
BRANCH  31  32
ATOM     32  O   UNL     1       3.190  -7.209  30.272  0.00  0.00    -0.383 OA
ATOM     33  H   UNL     1       3.250  -6.244  30.386  0.00  0.00    +0.210 HD
ENDBRANCH  31  32
BRANCH  30  34
ATOM     34  O   UNL     1       0.444  -6.821  29.580  0.00  0.00    -0.386 OA
ATOM     35  H   UNL     1       0.919  -6.489  30.357  0.00  0.00    +0.210 HD
ENDBRANCH  30  34
BRANCH  29  36
ATOM     36  O   UNL     1       1.212  -9.240  26.927  0.00  0.00    -0.386 OA
ATOM     37  H   UNL     1       1.938  -9.077  26.298  0.00  0.00    +0.210 HD
ENDBRANCH  29  36
BRANCH  28  38
ATOM     38  C   UNL     1       0.908  -7.026  25.069  0.00  0.00    +0.190 C 
BRANCH  38  39
ATOM     39  O   UNL     1       1.920  -7.720  24.332  0.00  0.00    -0.392 OA
ATOM     40  H   UNL     1       1.582  -8.595  24.083  0.00  0.00    +0.210 HD
ENDBRANCH  38  39
ENDBRANCH  28  38
ENDBRANCH  25  26
ENDBRANCH   8  25
ENDBRANCH   1   2
BRANCH   1  43
ATOM     41  C   UNL     1       9.958   0.611  23.670  0.00  0.00    +0.179 C 
ATOM     42  O   UNL     1       9.215   0.585  24.913  0.00  0.00    -0.331 OA
ATOM     43  C   UNL     1       7.810   0.957  24.894  0.00  0.00    +0.340 C 
ATOM     44  C   UNL     1       7.538   2.271  24.068  0.00  0.00    +0.221 C 
ATOM     45  C   UNL     1       8.123   2.035  22.668  0.00  0.00    +0.180 C 
ATOM     46  C   UNL     1       9.640   1.865  22.804  0.00  0.00    +0.177 C 
BRANCH  46  47
ATOM     47  O   UNL     1      10.193   1.829  21.482  0.00  0.00    -0.386 OA
ATOM     48  H   UNL     1       9.549   2.240  20.874  0.00  0.00    +0.210 HD
ENDBRANCH  46  47
BRANCH  45  49
ATOM     49  O   UNL     1       7.788   3.107  21.769  0.00  0.00    -0.386 OA
ATOM     50  H   UNL     1       7.674   3.899  22.338  0.00  0.00    +0.210 HD
ENDBRANCH  45  49
BRANCH  44  51
ATOM     51  O   UNL     1       8.110   3.465  24.689  0.00  0.00    -0.337 OA
BRANCH  51  52
ATOM     52  C   UNL     1       7.854   4.739  24.055  0.00  0.00    +0.282 C 
ATOM     53  O   UNL     1       9.067   5.280  23.503  0.00  0.00    -0.343 OA
ATOM     54  C   UNL     1      10.063   5.576  24.482  0.00  0.00    +0.149 C 
ATOM     55  C   UNL     1      11.215   6.272  23.755  0.00  0.00    +0.041 C 
ATOM     56  C   UNL     1       9.566   6.467  25.634  0.00  0.00    +0.174 C 
ATOM     57  C   UNL     1       8.188   6.018  26.148  0.00  0.00    +0.179 C 
ATOM     58  C   UNL     1       7.236   5.819  24.969  0.00  0.00    +0.201 C 
BRANCH  58  59
ATOM     59  O   UNL     1       5.928   5.531  25.478  0.00  0.00    -0.384 OA
ATOM     60  H   UNL     1       5.973   5.598  26.458  0.00  0.00    +0.210 HD
ENDBRANCH  58  59
BRANCH  57  61
ATOM     61  O   UNL     1       7.661   6.996  27.053  0.00  0.00    -0.386 OA
ATOM     62  H   UNL     1       8.303   7.047  27.792  0.00  0.00    +0.210 HD
ENDBRANCH  57  61
BRANCH  56  63
ATOM     63  O   UNL     1      10.546   6.462  26.680  0.00  0.00    -0.387 OA
ATOM     64  H   UNL     1      10.585   5.564  27.052  0.00  0.00    +0.210 HD
ENDBRANCH  56  63
ENDBRANCH  51  52
ENDBRANCH  44  51
BRANCH  41  65
ATOM     65  C   UNL     1       9.877  -0.698  22.824  0.00  0.00    +0.197 C 
BRANCH  65  66
ATOM     66  O   UNL     1       8.582  -1.145  22.419  0.00  0.00    -0.346 OA
BRANCH  66  70
ATOM     67  C   UNL     1       8.386  -5.175  23.992  0.00  0.00    +0.041 C 
ATOM     68  C   UNL     1       7.534  -4.597  22.869  0.00  0.00    +0.149 C 
ATOM     69  O   UNL     1       8.112  -3.375  22.379  0.00  0.00    -0.343 OA
ATOM     70  C   UNL     1       7.876  -2.164  23.132  0.00  0.00    +0.282 C 
ATOM     71  C   UNL     1       6.345  -1.969  23.246  0.00  0.00    +0.201 C 
ATOM     72  C   UNL     1       5.796  -3.171  24.038  0.00  0.00    +0.179 C 
ATOM     73  C   UNL     1       6.055  -4.476  23.277  0.00  0.00    +0.174 C 
BRANCH  73  74
ATOM     74  O   UNL     1       5.203  -4.532  22.119  0.00  0.00    -0.387 OA
ATOM     75  H   UNL     1       4.745  -3.664  22.066  0.00  0.00    +0.210 HD
ENDBRANCH  73  74
BRANCH  72  76
ATOM     76  O   UNL     1       4.400  -3.027  24.318  0.00  0.00    -0.386 OA
ATOM     77  H   UNL     1       3.921  -3.395  23.548  0.00  0.00    +0.210 HD
ENDBRANCH  72  76
BRANCH  71  78
ATOM     78  O   UNL     1       5.738  -1.924  21.931  0.00  0.00    -0.384 OA
ATOM     79  H   UNL     1       5.609  -2.852  21.652  0.00  0.00    +0.210 HD
ENDBRANCH  71  78
ENDBRANCH  66  70
ENDBRANCH  65  66
ENDBRANCH  41  65
ENDBRANCH   1  43
TORSDOF 26
ENDMDL
MODEL 2
REMARK VINA RESULT:      -5.6      1.757      9.929
REMARK  Name = 
REMARK  28 active torsions:
REMARK  status: ('A' for Active; 'I' for Inactive)
REMARK    1  A    between atoms: C_1  and  C_2
REMARK    2  A    between atoms: C_3  and  O_75
REMARK    3  A    between atoms: C_5  and  O_74
REMARK    4  A    between atoms: C_7  and  O_73
REMARK    5  A    between atoms: C_8  and  O_11
REMARK    6  A    between atoms: O_11  and  C_12
REMARK    7  A    between atoms: C_12  and  C_13
REMARK    8  A    between atoms: C_14  and  O_72
REMARK    9  A    between atoms: C_16  and  O_71
REMARK   10  A    between atoms: C_17  and  O_57
REMARK   11  A    between atoms: C_18  and  O_21
REMARK   12  A    between atoms: O_21  and  C_22
REMARK   13  A    between atoms: C_23  and  C_49
REMARK   14  A    between atoms: C_27  and  O_34
REMARK   15  A    between atoms: C_29  and  O_33
REMARK   16  A    between atoms: O_34  and  C_35
REMARK   17  A    between atoms: C_37  and  O_48
REMARK   18  A    between atoms: C_38  and  O_47
REMARK   19  A    between atoms: C_40  and  O_46
REMARK   20  A    between atoms: C_42  and  C_44
REMARK   21  A    between atoms: C_44  and  O_45
REMARK   22  A    between atoms: C_51  and  O_56
REMARK   23  A    between atoms: C_52  and  O_55
REMARK   24  A    between atoms: O_57  and  C_58
REMARK   25  A    between atoms: C_60  and  O_70
REMARK   26  A    between atoms: C_62  and  O_69
REMARK   27  A    between atoms: C_63  and  O_68
REMARK   28  A    between atoms: C_65  and  C_67
REMARK                            x       y       z     vdW  Elec       q    Type
REMARK                         _______ _______ _______ _____ _____    ______ ____
ROOT
ATOM      1  O   UNL     1       3.709  -3.299  26.398  0.00  0.00    -0.453 OA
ENDROOT
BRANCH   1   2
ATOM      2  C   UNL     1       4.160  -2.070  26.883  0.00  0.00    +0.214 A 
ATOM      3  C   UNL     1       3.299  -0.816  26.877  0.00  0.00    +0.238 A 
ATOM      4  O   UNL     1       2.067  -0.887  26.731  0.00  0.00    -0.283 OA
ATOM      5  C   UNL     1       4.030   0.511  26.986  0.00  0.00    +0.109 A 
ATOM      6  C   UNL     1       5.350   0.475  27.399  0.00  0.00    +0.147 A 
ATOM      7  C   UNL     1       6.161   1.624  27.495  0.00  0.00    +0.093 A 
ATOM      8  C   UNL     1       5.671   2.878  27.148  0.00  0.00    +0.131 A 
ATOM      9  C   UNL     1       4.332   2.937  26.739  0.00  0.00    +0.092 A 
ATOM     10  O   UNL     1       5.955  -0.695  27.729  0.00  0.00    -0.451 OA
ATOM     11  C   UNL     1       3.521   1.769  26.678  0.00  0.00    +0.135 A 
ATOM     12  C   UNL     1       5.471  -1.858  27.169  0.00  0.00    +0.181 A 
BRANCH  12  13
ATOM     13  C   UNL     1       6.608  -2.739  26.833  0.00  0.00    +0.025 A 
ATOM     14  C   UNL     1       7.839  -2.219  26.423  0.00  0.00    +0.015 A 
ATOM     15  C   UNL     1       8.957  -3.048  26.266  0.00  0.00    +0.050 A 
ATOM     16  C   UNL     1       8.875  -4.389  26.649  0.00  0.00    +0.158 A 
ATOM     17  C   UNL     1       7.690  -4.885  27.173  0.00  0.00    +0.159 A 
ATOM     18  C   UNL     1       6.553  -4.093  27.218  0.00  0.00    +0.060 A 
BRANCH  17  19
ATOM     19  O   UNL     1       7.599  -6.109  27.774  0.00  0.00    -0.503 OA
ATOM     20  H   UNL     1       8.269  -6.676  27.362  0.00  0.00    +0.292 HD
ENDBRANCH  17  19
BRANCH  16  21
ATOM     21  O   UNL     1       9.970  -5.196  26.578  0.00  0.00    -0.503 OA
ATOM     22  H   UNL     1       9.931  -5.660  25.723  0.00  0.00    +0.292 HD
ENDBRANCH  16  21
ENDBRANCH  12  13
BRANCH  11  23
ATOM     23  O   UNL     1       2.220   1.896  26.284  0.00  0.00    -0.506 OA
ATOM     24  H   UNL     1       2.167   1.768  25.321  0.00  0.00    +0.292 HD
ENDBRANCH  11  23
BRANCH   8  25
ATOM     25  O   UNL     1       6.407   4.055  27.156  0.00  0.00    -0.461 OA
BRANCH  25  26
ATOM     26  C   UNL     1       6.319   4.857  25.951  0.00  0.00    +0.339 C 
ATOM     27  O   UNL     1       7.151   4.319  24.919  0.00  0.00    -0.331 OA
ATOM     28  C   UNL     1       8.551   4.454  25.214  0.00  0.00    +0.179 C 
ATOM     29  C   UNL     1       8.973   5.939  25.251  0.00  0.00    +0.177 C 
ATOM     30  C   UNL     1       8.121   6.710  26.277  0.00  0.00    +0.180 C 
ATOM     31  C   UNL     1       6.626   6.372  26.120  0.00  0.00    +0.214 C 
BRANCH  31  32
ATOM     32  O   UNL     1       5.818   7.014  27.111  0.00  0.00    -0.383 OA
ATOM     33  H   UNL     1       4.889   6.939  26.833  0.00  0.00    +0.210 HD
ENDBRANCH  31  32
BRANCH  30  34
ATOM     34  O   UNL     1       8.585   6.506  27.616  0.00  0.00    -0.386 OA
ATOM     35  H   UNL     1       9.541   6.661  27.672  0.00  0.00    +0.210 HD
ENDBRANCH  30  34
BRANCH  29  36
ATOM     36  O   UNL     1       8.818   6.518  23.952  0.00  0.00    -0.386 OA
ATOM     37  H   UNL     1       7.935   6.928  23.903  0.00  0.00    +0.210 HD
ENDBRANCH  29  36
BRANCH  28  38
ATOM     38  C   UNL     1       9.332   3.664  24.155  0.00  0.00    +0.190 C 
BRANCH  38  39
ATOM     39  O   UNL     1       8.760   3.813  22.852  0.00  0.00    -0.392 OA
ATOM     40  H   UNL     1       9.167   4.579  22.416  0.00  0.00    +0.210 HD
ENDBRANCH  38  39
ENDBRANCH  28  38
ENDBRANCH  25  26
ENDBRANCH   8  25
ENDBRANCH   1   2
BRANCH   1  43
ATOM     41  C   UNL     1       4.986  -4.045  22.968  0.00  0.00    +0.179 C 
ATOM     42  O   UNL     1       4.533  -3.340  24.148  0.00  0.00    -0.331 OA
ATOM     43  C   UNL     1       4.456  -4.061  25.408  0.00  0.00    +0.340 C 
ATOM     44  C   UNL     1       3.768  -5.472  25.261  0.00  0.00    +0.221 C 
ATOM     45  C   UNL     1       4.549  -6.226  24.175  0.00  0.00    +0.180 C 
ATOM     46  C   UNL     1       4.378  -5.474  22.850  0.00  0.00    +0.177 C 
BRANCH  46  47
ATOM     47  O   UNL     1       4.954  -6.281  21.816  0.00  0.00    -0.386 OA
ATOM     48  H   UNL     1       5.814  -5.889  21.570  0.00  0.00    +0.210 HD
ENDBRANCH  46  47
BRANCH  45  49
ATOM     49  O   UNL     1       4.116  -7.594  24.069  0.00  0.00    -0.386 OA
ATOM     50  H   UNL     1       4.543  -7.941  23.256  0.00  0.00    +0.210 HD
ENDBRANCH  45  49
BRANCH  44  51
ATOM     51  O   UNL     1       2.347  -5.383  24.929  0.00  0.00    -0.337 OA
BRANCH  51  52
ATOM     52  C   UNL     1       1.420  -6.134  25.745  0.00  0.00    +0.282 C 
ATOM     53  O   UNL     1       0.644  -5.247  26.571  0.00  0.00    -0.343 OA
ATOM     54  C   UNL     1       1.422  -4.513  27.517  0.00  0.00    +0.149 C 
ATOM     55  C   UNL     1       0.443  -3.741  28.402  0.00  0.00    +0.041 C 
ATOM     56  C   UNL     1       2.331  -5.390  28.396  0.00  0.00    +0.174 C 
ATOM     57  C   UNL     1       3.059  -6.464  27.570  0.00  0.00    +0.179 C 
ATOM     58  C   UNL     1       2.060  -7.191  26.671  0.00  0.00    +0.201 C 
BRANCH  58  59
ATOM     59  O   UNL     1       2.734  -8.269  26.012  0.00  0.00    -0.384 OA
ATOM     60  H   UNL     1       2.190  -8.525  25.235  0.00  0.00    +0.210 HD
ENDBRANCH  58  59
BRANCH  57  61
ATOM     61  O   UNL     1       3.711  -7.395  28.443  0.00  0.00    -0.386 OA
ATOM     62  H   UNL     1       4.551  -6.965  28.710  0.00  0.00    +0.210 HD
ENDBRANCH  57  61
BRANCH  56  63
ATOM     63  O   UNL     1       3.256  -4.545  29.094  0.00  0.00    -0.387 OA
ATOM     64  H   UNL     1       4.131  -4.651  28.683  0.00  0.00    +0.210 HD
ENDBRANCH  56  63
ENDBRANCH  51  52
ENDBRANCH  44  51
BRANCH  41  65
ATOM     65  C   UNL     1       6.534  -4.071  22.766  0.00  0.00    +0.197 C 
BRANCH  65  66
ATOM     66  O   UNL     1       7.071  -3.323  21.673  0.00  0.00    -0.346 OA
BRANCH  66  70
ATOM     67  C   UNL     1      10.674  -1.039  22.421  0.00  0.00    +0.041 C 
ATOM     68  C   UNL     1       9.486  -1.194  23.363  0.00  0.00    +0.149 C 
ATOM     69  O   UNL     1       8.655  -2.292  22.946  0.00  0.00    -0.343 OA
ATOM     70  C   UNL     1       7.723  -2.065  21.866  0.00  0.00    +0.282 C 
ATOM     71  C   UNL     1       6.806  -0.887  22.273  0.00  0.00    +0.201 C 
ATOM     72  C   UNL     1       7.709   0.352  22.430  0.00  0.00    +0.179 C 
ATOM     73  C   UNL     1       8.729   0.132  23.552  0.00  0.00    +0.174 C 
BRANCH  73  74
ATOM     74  O   UNL     1       8.054   0.154  24.823  0.00  0.00    -0.387 OA
ATOM     75  H   UNL     1       7.536   0.988  24.851  0.00  0.00    +0.210 HD
ENDBRANCH  73  74
BRANCH  72  76
ATOM     76  O   UNL     1       6.943   1.536  22.678  0.00  0.00    -0.386 OA
ATOM     77  H   UNL     1       6.072   1.240  23.009  0.00  0.00    +0.210 HD
ENDBRANCH  72  76
BRANCH  71  78
ATOM     78  O   UNL     1       6.136  -1.172  23.525  0.00  0.00    -0.384 OA
ATOM     79  H   UNL     1       6.509  -0.557  24.186  0.00  0.00    +0.210 HD
ENDBRANCH  71  78
ENDBRANCH  66  70
ENDBRANCH  65  66
ENDBRANCH  41  65
ENDBRANCH   1  43
TORSDOF 26
ENDMDL
MODEL 3
REMARK VINA RESULT:      -5.6      2.170      9.820
REMARK  Name = 
REMARK  28 active torsions:
REMARK  status: ('A' for Active; 'I' for Inactive)
REMARK    1  A    between atoms: C_1  and  C_2
REMARK    2  A    between atoms: C_3  and  O_75
REMARK    3  A    between atoms: C_5  and  O_74
REMARK    4  A    between atoms: C_7  and  O_73
REMARK    5  A    between atoms: C_8  and  O_11
REMARK    6  A    between atoms: O_11  and  C_12
REMARK    7  A    between atoms: C_12  and  C_13
REMARK    8  A    between atoms: C_14  and  O_72
REMARK    9  A    between atoms: C_16  and  O_71
REMARK   10  A    between atoms: C_17  and  O_57
REMARK   11  A    between atoms: C_18  and  O_21
REMARK   12  A    between atoms: O_21  and  C_22
REMARK   13  A    between atoms: C_23  and  C_49
REMARK   14  A    between atoms: C_27  and  O_34
REMARK   15  A    between atoms: C_29  and  O_33
REMARK   16  A    between atoms: O_34  and  C_35
REMARK   17  A    between atoms: C_37  and  O_48
REMARK   18  A    between atoms: C_38  and  O_47
REMARK   19  A    between atoms: C_40  and  O_46
REMARK   20  A    between atoms: C_42  and  C_44
REMARK   21  A    between atoms: C_44  and  O_45
REMARK   22  A    between atoms: C_51  and  O_56
REMARK   23  A    between atoms: C_52  and  O_55
REMARK   24  A    between atoms: O_57  and  C_58
REMARK   25  A    between atoms: C_60  and  O_70
REMARK   26  A    between atoms: C_62  and  O_69
REMARK   27  A    between atoms: C_63  and  O_68
REMARK   28  A    between atoms: C_65  and  C_67
REMARK                            x       y       z     vdW  Elec       q    Type
REMARK                         _______ _______ _______ _____ _____    ______ ____
ROOT
ATOM      1  O   UNL     1       3.608  -3.307  25.643  0.00  0.00    -0.453 OA
ENDROOT
BRANCH   1   2
ATOM      2  C   UNL     1       3.870  -2.314  26.588  0.00  0.00    +0.214 A 
ATOM      3  C   UNL     1       2.968  -1.106  26.788  0.00  0.00    +0.238 A 
ATOM      4  O   UNL     1       1.806  -1.096  26.345  0.00  0.00    -0.283 OA
ATOM      5  C   UNL     1       3.583   0.094  27.485  0.00  0.00    +0.109 A 
ATOM      6  C   UNL     1       4.775  -0.106  28.158  0.00  0.00    +0.147 A 
ATOM      7  C   UNL     1       5.481   0.929  28.805  0.00  0.00    +0.093 A 
ATOM      8  C   UNL     1       5.016   2.239  28.777  0.00  0.00    +0.131 A 
ATOM      9  C   UNL     1       3.804   2.460  28.112  0.00  0.00    +0.092 A 
ATOM     10  O   UNL     1       5.351  -1.334  28.224  0.00  0.00    -0.451 OA
ATOM     11  C   UNL     1       3.091   1.396  27.490  0.00  0.00    +0.135 A 
ATOM     12  C   UNL     1       5.069  -2.239  27.222  0.00  0.00    +0.181 A 
BRANCH  12  13
ATOM     13  C   UNL     1       6.299  -2.990  26.893  0.00  0.00    +0.025 A 
ATOM     14  C   UNL     1       7.470  -2.336  26.500  0.00  0.00    +0.015 A 
ATOM     15  C   UNL     1       8.673  -3.038  26.351  0.00  0.00    +0.050 A 
ATOM     16  C   UNL     1       8.732  -4.383  26.723  0.00  0.00    +0.158 A 
ATOM     17  C   UNL     1       7.602  -5.008  27.231  0.00  0.00    +0.159 A 
ATOM     18  C   UNL     1       6.387  -4.344  27.269  0.00  0.00    +0.060 A 
BRANCH  17  19
ATOM     19  O   UNL     1       7.638  -6.240  27.822  0.00  0.00    -0.503 OA
ATOM     20  H   UNL     1       6.896  -6.275  28.446  0.00  0.00    +0.292 HD
ENDBRANCH  17  19
BRANCH  16  21
ATOM     21  O   UNL     1       9.909  -5.067  26.659  0.00  0.00    -0.503 OA
ATOM     22  H   UNL     1      10.591  -4.506  27.069  0.00  0.00    +0.292 HD
ENDBRANCH  16  21
ENDBRANCH  12  13
BRANCH  11  23
ATOM     23  O   UNL     1       1.908   1.676  26.868  0.00  0.00    -0.506 OA
ATOM     24  H   UNL     1       1.230   1.053  27.184  0.00  0.00    +0.292 HD
ENDBRANCH  11  23
BRANCH   8  25
ATOM     25  O   UNL     1       5.667   3.331  29.335  0.00  0.00    -0.461 OA
BRANCH  25  26
ATOM     26  C   UNL     1       7.024   3.554  28.873  0.00  0.00    +0.339 C 
ATOM     27  O   UNL     1       7.670   4.560  29.658  0.00  0.00    -0.331 OA
ATOM     28  C   UNL     1       7.111   5.866  29.448  0.00  0.00    +0.179 C 
ATOM     29  C   UNL     1       7.356   6.353  28.003  0.00  0.00    +0.177 C 
ATOM     30  C   UNL     1       6.779   5.342  26.994  0.00  0.00    +0.180 C 
ATOM     31  C   UNL     1       7.179   3.901  27.365  0.00  0.00    +0.214 C 
BRANCH  31  32
ATOM     32  O   UNL     1       6.592   2.933  26.490  0.00  0.00    -0.383 OA
ATOM     33  H   UNL     1       7.056   2.983  25.636  0.00  0.00    +0.210 HD
ENDBRANCH  31  32
BRANCH  30  34
ATOM     34  O   UNL     1       5.363   5.490  26.843  0.00  0.00    -0.386 OA
ATOM     35  H   UNL     1       4.920   4.632  26.928  0.00  0.00    +0.210 HD
ENDBRANCH  30  34
BRANCH  29  36
ATOM     36  O   UNL     1       8.760   6.519  27.782  0.00  0.00    -0.386 OA
ATOM     37  H   UNL     1       9.238   6.091  28.516  0.00  0.00    +0.210 HD
ENDBRANCH  29  36
BRANCH  28  38
ATOM     38  C   UNL     1       7.730   6.815  30.484  0.00  0.00    +0.190 C 
BRANCH  38  39
ATOM     39  O   UNL     1       9.159   6.740  30.485  0.00  0.00    -0.392 OA
ATOM     40  H   UNL     1       9.471   6.717  31.404  0.00  0.00    +0.210 HD
ENDBRANCH  38  39
ENDBRANCH  28  38
ENDBRANCH  25  26
ENDBRANCH   8  25
ENDBRANCH   1   2
BRANCH   1  43
ATOM     41  C   UNL     1       5.715  -2.784  22.603  0.00  0.00    +0.179 C 
ATOM     42  O   UNL     1       4.974  -2.551  23.825  0.00  0.00    -0.331 OA
ATOM     43  C   UNL     1       4.585  -3.694  24.635  0.00  0.00    +0.340 C 
ATOM     44  C   UNL     1       3.964  -4.863  23.780  0.00  0.00    +0.221 C 
ATOM     45  C   UNL     1       4.998  -5.208  22.699  0.00  0.00    +0.180 C 
ATOM     46  C   UNL     1       5.164  -3.989  21.785  0.00  0.00    +0.177 C 
BRANCH  46  47
ATOM     47  O   UNL     1       5.987  -4.383  20.680  0.00  0.00    -0.386 OA
ATOM     48  H   UNL     1       6.848  -4.676  21.034  0.00  0.00    +0.210 HD
ENDBRANCH  46  47
BRANCH  45  49
ATOM     49  O   UNL     1       4.612  -6.379  21.956  0.00  0.00    -0.386 OA
ATOM     50  H   UNL     1       4.681  -7.125  22.589  0.00  0.00    +0.210 HD
ENDBRANCH  45  49
BRANCH  44  51
ATOM     51  O   UNL     1       2.672  -4.515  23.188  0.00  0.00    -0.337 OA
BRANCH  51  52
ATOM     52  C   UNL     1       1.551  -5.384  23.468  0.00  0.00    +0.282 C 
ATOM     53  O   UNL     1       0.779  -4.870  24.568  0.00  0.00    -0.343 OA
ATOM     54  C   UNL     1       1.496  -4.823  25.802  0.00  0.00    +0.149 C 
ATOM     55  C   UNL     1       0.501  -4.400  26.884  0.00  0.00    +0.041 C 
ATOM     56  C   UNL     1       2.153  -6.157  26.198  0.00  0.00    +0.174 C 
ATOM     57  C   UNL     1       2.855  -6.823  25.002  0.00  0.00    +0.179 C 
ATOM     58  C   UNL     1       1.916  -6.847  23.798  0.00  0.00    +0.201 C 
BRANCH  58  59
ATOM     59  O   UNL     1       2.540  -7.587  22.742  0.00  0.00    -0.384 OA
ATOM     60  H   UNL     1       3.292  -8.084  23.136  0.00  0.00    +0.210 HD
ENDBRANCH  58  59
BRANCH  57  61
ATOM     61  O   UNL     1       3.254  -8.155  25.349  0.00  0.00    -0.386 OA
ATOM     62  H   UNL     1       2.898  -8.732  24.640  0.00  0.00    +0.210 HD
ENDBRANCH  57  61
BRANCH  56  63
ATOM     63  O   UNL     1       3.063  -5.923  27.280  0.00  0.00    -0.387 OA
ATOM     64  H   UNL     1       2.585  -5.441  27.977  0.00  0.00    +0.210 HD
ENDBRANCH  56  63
ENDBRANCH  51  52
ENDBRANCH  44  51
BRANCH  41  65
ATOM     65  C   UNL     1       7.264  -2.879  22.776  0.00  0.00    +0.197 C 
BRANCH  65  66
ATOM     66  O   UNL     1       8.076  -2.061  21.931  0.00  0.00    -0.346 OA
BRANCH  66  70
ATOM     67  C   UNL     1       9.886  -0.047  25.310  0.00  0.00    +0.041 C 
ATOM     68  C   UNL     1       8.803   0.512  24.394  0.00  0.00    +0.149 C 
ATOM     69  O   UNL     1       8.200  -0.546  23.628  0.00  0.00    -0.343 OA
ATOM     70  C   UNL     1       8.900  -1.017  22.454  0.00  0.00    +0.282 C 
ATOM     71  C   UNL     1       9.125   0.196  21.520  0.00  0.00    +0.201 C 
ATOM     72  C   UNL     1      10.025   1.189  22.280  0.00  0.00    +0.179 C 
ATOM     73  C   UNL     1       9.322   1.688  23.548  0.00  0.00    +0.174 C 
BRANCH  73  74
ATOM     74  O   UNL     1       8.240   2.563  23.181  0.00  0.00    -0.387 OA
ATOM     75  H   UNL     1       7.703   2.701  23.992  0.00  0.00    +0.210 HD
ENDBRANCH  73  74
BRANCH  72  76
ATOM     76  O   UNL     1      10.407   2.295  21.455  0.00  0.00    -0.386 OA
ATOM     77  H   UNL     1       9.581   2.668  21.089  0.00  0.00    +0.210 HD
ENDBRANCH  72  76
BRANCH  71  78
ATOM     78  O   UNL     1       7.863   0.827  21.190  0.00  0.00    -0.384 OA
ATOM     79  H   UNL     1       8.002   1.306  20.350  0.00  0.00    +0.210 HD
ENDBRANCH  71  78
ENDBRANCH  66  70
ENDBRANCH  65  66
ENDBRANCH  41  65
ENDBRANCH   1  43
TORSDOF 26
ENDMDL
MODEL 4
REMARK VINA RESULT:      -4.6      2.085      6.488
REMARK  Name = 
REMARK  28 active torsions:
REMARK  status: ('A' for Active; 'I' for Inactive)
REMARK    1  A    between atoms: C_1  and  C_2
REMARK    2  A    between atoms: C_3  and  O_75
REMARK    3  A    between atoms: C_5  and  O_74
REMARK    4  A    between atoms: C_7  and  O_73
REMARK    5  A    between atoms: C_8  and  O_11
REMARK    6  A    between atoms: O_11  and  C_12
REMARK    7  A    between atoms: C_12  and  C_13
REMARK    8  A    between atoms: C_14  and  O_72
REMARK    9  A    between atoms: C_16  and  O_71
REMARK   10  A    between atoms: C_17  and  O_57
REMARK   11  A    between atoms: C_18  and  O_21
REMARK   12  A    between atoms: O_21  and  C_22
REMARK   13  A    between atoms: C_23  and  C_49
REMARK   14  A    between atoms: C_27  and  O_34
REMARK   15  A    between atoms: C_29  and  O_33
REMARK   16  A    between atoms: O_34  and  C_35
REMARK   17  A    between atoms: C_37  and  O_48
REMARK   18  A    between atoms: C_38  and  O_47
REMARK   19  A    between atoms: C_40  and  O_46
REMARK   20  A    between atoms: C_42  and  C_44
REMARK   21  A    between atoms: C_44  and  O_45
REMARK   22  A    between atoms: C_51  and  O_56
REMARK   23  A    between atoms: C_52  and  O_55
REMARK   24  A    between atoms: O_57  and  C_58
REMARK   25  A    between atoms: C_60  and  O_70
REMARK   26  A    between atoms: C_62  and  O_69
REMARK   27  A    between atoms: C_63  and  O_68
REMARK   28  A    between atoms: C_65  and  C_67
REMARK                            x       y       z     vdW  Elec       q    Type
REMARK                         _______ _______ _______ _____ _____    ______ ____
ROOT
ATOM      1  O   UNL     1       5.964   1.434  26.085  0.00  0.00    -0.453 OA
ENDROOT
BRANCH   1   2
ATOM      2  C   UNL     1       5.001   0.430  26.203  0.00  0.00    +0.214 A 
ATOM      3  C   UNL     1       3.753   0.582  27.057  0.00  0.00    +0.238 A 
ATOM      4  O   UNL     1       3.373   1.702  27.442  0.00  0.00    -0.283 OA
ATOM      5  C   UNL     1       3.049  -0.700  27.467  0.00  0.00    +0.109 A 
ATOM      6  C   UNL     1       3.390  -1.855  26.787  0.00  0.00    +0.147 A 
ATOM      7  C   UNL     1       2.854  -3.122  27.096  0.00  0.00    +0.093 A 
ATOM      8  C   UNL     1       1.951  -3.280  28.142  0.00  0.00    +0.131 A 
ATOM      9  C   UNL     1       1.583  -2.121  28.835  0.00  0.00    +0.092 A 
ATOM     10  O   UNL     1       4.290  -1.836  25.770  0.00  0.00    -0.451 OA
ATOM     11  C   UNL     1       2.114  -0.846  28.487  0.00  0.00    +0.135 A 
ATOM     12  C   UNL     1       5.234  -0.831  25.756  0.00  0.00    +0.181 A 
BRANCH  12  13
ATOM     13  C   UNL     1       6.525  -1.392  25.307  0.00  0.00    +0.025 A 
ATOM     14  C   UNL     1       7.565  -1.646  26.207  0.00  0.00    +0.015 A 
ATOM     15  C   UNL     1       8.719  -2.327  25.803  0.00  0.00    +0.050 A 
ATOM     16  C   UNL     1       8.779  -2.873  24.518  0.00  0.00    +0.158 A 
ATOM     17  C   UNL     1       7.699  -2.731  23.658  0.00  0.00    +0.159 A 
ATOM     18  C   UNL     1       6.607  -1.958  24.020  0.00  0.00    +0.060 A 
BRANCH  17  19
ATOM     19  O   UNL     1       7.590  -3.421  22.484  0.00  0.00    -0.503 OA
ATOM     20  H   UNL     1       6.822  -4.006  22.571  0.00  0.00    +0.292 HD
ENDBRANCH  17  19
BRANCH  16  21
ATOM     21  O   UNL     1       9.859  -3.605  24.128  0.00  0.00    -0.503 OA
ATOM     22  H   UNL     1      10.278  -3.953  24.934  0.00  0.00    +0.292 HD
ENDBRANCH  16  21
ENDBRANCH  12  13
BRANCH  11  23
ATOM     23  O   UNL     1       1.704   0.248  29.194  0.00  0.00    -0.506 OA
ATOM     24  H   UNL     1       1.209   0.840  28.601  0.00  0.00    +0.292 HD
ENDBRANCH  11  23
BRANCH   8  25
ATOM     25  O   UNL     1       1.414  -4.491  28.557  0.00  0.00    -0.461 OA
BRANCH  25  26
ATOM     26  C   UNL     1       1.957  -5.029  29.790  0.00  0.00    +0.339 C 
ATOM     27  O   UNL     1       3.335  -4.674  29.935  0.00  0.00    -0.331 OA
ATOM     28  C   UNL     1       4.178  -5.333  28.976  0.00  0.00    +0.179 C 
ATOM     29  C   UNL     1       4.194  -6.861  29.202  0.00  0.00    +0.177 C 
ATOM     30  C   UNL     1       2.761  -7.423  29.150  0.00  0.00    +0.180 C 
ATOM     31  C   UNL     1       1.797  -6.563  29.990  0.00  0.00    +0.214 C 
BRANCH  31  32
ATOM     32  O   UNL     1       0.443  -7.016  29.896  0.00  0.00    -0.383 OA
ATOM     33  H   UNL     1      -0.010  -6.775  30.722  0.00  0.00    +0.210 HD
ENDBRANCH  31  32
BRANCH  30  34
ATOM     34  O   UNL     1       2.304  -7.590  27.803  0.00  0.00    -0.386 OA
ATOM     35  H   UNL     1       2.623  -6.865  27.243  0.00  0.00    +0.210 HD
ENDBRANCH  30  34
BRANCH  29  36
ATOM     36  O   UNL     1       4.788  -7.154  30.471  0.00  0.00    -0.386 OA
ATOM     37  H   UNL     1       4.130  -6.973  31.167  0.00  0.00    +0.210 HD
ENDBRANCH  29  36
BRANCH  28  38
ATOM     38  C   UNL     1       5.582  -4.724  29.088  0.00  0.00    +0.190 C 
BRANCH  38  39
ATOM     39  O   UNL     1       6.343  -4.920  27.893  0.00  0.00    -0.392 OA
ATOM     40  H   UNL     1       7.288  -4.912  28.117  0.00  0.00    +0.210 HD
ENDBRANCH  38  39
ENDBRANCH  28  38
ENDBRANCH  25  26
ENDBRANCH   8  25
ENDBRANCH   1   2
BRANCH   1  43
ATOM     41  C   UNL     1       4.420   4.381  24.386  0.00  0.00    +0.179 C 
ATOM     42  O   UNL     1       4.674   3.034  24.852  0.00  0.00    -0.331 OA
ATOM     43  C   UNL     1       5.605   2.839  25.952  0.00  0.00    +0.340 C 
ATOM     44  C   UNL     1       6.936   3.666  25.777  0.00  0.00    +0.221 C 
ATOM     45  C   UNL     1       6.516   5.131  25.589  0.00  0.00    +0.180 C 
ATOM     46  C   UNL     1       5.716   5.238  24.285  0.00  0.00    +0.177 C 
BRANCH  46  47
ATOM     47  O   UNL     1       5.490   6.629  24.028  0.00  0.00    -0.386 OA
ATOM     48  H   UNL     1       6.105   6.910  23.324  0.00  0.00    +0.210 HD
ENDBRANCH  46  47
BRANCH  45  49
ATOM     49  O   UNL     1       7.656   6.009  25.585  0.00  0.00    -0.386 OA
ATOM     50  H   UNL     1       7.974   6.028  26.514  0.00  0.00    +0.210 HD
ENDBRANCH  45  49
BRANCH  44  51
ATOM     51  O   UNL     1       7.757   3.200  24.660  0.00  0.00    -0.337 OA
BRANCH  51  52
ATOM     52  C   UNL     1       7.830   1.775  24.431  0.00  0.00    +0.282 C 
ATOM     53  O   UNL     1       9.151   1.285  24.723  0.00  0.00    -0.343 OA
ATOM     54  C   UNL     1      10.165   1.824  23.875  0.00  0.00    +0.149 C 
ATOM     55  C   UNL     1      11.467   1.099  24.215  0.00  0.00    +0.041 C 
ATOM     56  C   UNL     1       9.869   1.677  22.372  0.00  0.00    +0.174 C 
ATOM     57  C   UNL     1       8.411   2.036  22.039  0.00  0.00    +0.179 C 
ATOM     58  C   UNL     1       7.468   1.316  23.002  0.00  0.00    +0.201 C 
BRANCH  58  59
ATOM     59  O   UNL     1       6.118   1.561  22.592  0.00  0.00    -0.384 OA
ATOM     60  H   UNL     1       6.061   1.359  21.631  0.00  0.00    +0.210 HD
ENDBRANCH  58  59
BRANCH  57  61
ATOM     61  O   UNL     1       8.114   1.672  20.686  0.00  0.00    -0.386 OA
ATOM     62  H   UNL     1       8.981   1.512  20.257  0.00  0.00    +0.210 HD
ENDBRANCH  57  61
BRANCH  56  63
ATOM     63  O   UNL     1      10.794   2.488  21.636  0.00  0.00    -0.387 OA
ATOM     64  H   UNL     1      11.263   1.915  21.006  0.00  0.00    +0.210 HD
ENDBRANCH  56  63
ENDBRANCH  51  52
ENDBRANCH  44  51
BRANCH  41  65
ATOM     65  C   UNL     1       3.295   5.145  25.151  0.00  0.00    +0.197 C 
BRANCH  65  66
ATOM     66  O   UNL     1       3.694   6.108  26.128  0.00  0.00    -0.346 OA
BRANCH  66  70
ATOM     67  C   UNL     1       4.826   5.917  30.303  0.00  0.00    +0.041 C 
ATOM     68  C   UNL     1       4.230   4.787  29.472  0.00  0.00    +0.149 C 
ATOM     69  O   UNL     1       4.321   5.095  28.070  0.00  0.00    -0.343 OA
ATOM     70  C   UNL     1       3.332   5.984  27.505  0.00  0.00    +0.282 C 
ATOM     71  C   UNL     1       1.936   5.374  27.782  0.00  0.00    +0.201 C 
ATOM     72  C   UNL     1       1.760   5.329  29.312  0.00  0.00    +0.179 C 
ATOM     73  C   UNL     1       2.814   4.414  29.945  0.00  0.00    +0.174 C 
BRANCH  73  74
ATOM     74  O   UNL     1       2.515   3.045  29.620  0.00  0.00    -0.387 OA
ATOM     75  H   UNL     1       2.614   2.531  30.452  0.00  0.00    +0.210 HD
ENDBRANCH  73  74
BRANCH  72  76
ATOM     76  O   UNL     1       0.444   4.903  29.680  0.00  0.00    -0.386 OA
ATOM     77  H   UNL     1       0.140   4.295  28.977  0.00  0.00    +0.210 HD
ENDBRANCH  72  76
BRANCH  71  78
ATOM     78  O   UNL     1       1.847   4.036  27.235  0.00  0.00    -0.384 OA
ATOM     79  H   UNL     1       0.912   3.899  26.984  0.00  0.00    +0.210 HD
ENDBRANCH  71  78
ENDBRANCH  66  70
ENDBRANCH  65  66
ENDBRANCH  41  65
ENDBRANCH   1  43
TORSDOF 26
ENDMDL
MODEL 5
REMARK VINA RESULT:      -4.4      2.259      9.713
REMARK  Name = 
REMARK  28 active torsions:
REMARK  status: ('A' for Active; 'I' for Inactive)
REMARK    1  A    between atoms: C_1  and  C_2
REMARK    2  A    between atoms: C_3  and  O_75
REMARK    3  A    between atoms: C_5  and  O_74
REMARK    4  A    between atoms: C_7  and  O_73
REMARK    5  A    between atoms: C_8  and  O_11
REMARK    6  A    between atoms: O_11  and  C_12
REMARK    7  A    between atoms: C_12  and  C_13
REMARK    8  A    between atoms: C_14  and  O_72
REMARK    9  A    between atoms: C_16  and  O_71
REMARK   10  A    between atoms: C_17  and  O_57
REMARK   11  A    between atoms: C_18  and  O_21
REMARK   12  A    between atoms: O_21  and  C_22
REMARK   13  A    between atoms: C_23  and  C_49
REMARK   14  A    between atoms: C_27  and  O_34
REMARK   15  A    between atoms: C_29  and  O_33
REMARK   16  A    between atoms: O_34  and  C_35
REMARK   17  A    between atoms: C_37  and  O_48
REMARK   18  A    between atoms: C_38  and  O_47
REMARK   19  A    between atoms: C_40  and  O_46
REMARK   20  A    between atoms: C_42  and  C_44
REMARK   21  A    between atoms: C_44  and  O_45
REMARK   22  A    between atoms: C_51  and  O_56
REMARK   23  A    between atoms: C_52  and  O_55
REMARK   24  A    between atoms: O_57  and  C_58
REMARK   25  A    between atoms: C_60  and  O_70
REMARK   26  A    between atoms: C_62  and  O_69
REMARK   27  A    between atoms: C_63  and  O_68
REMARK   28  A    between atoms: C_65  and  C_67
REMARK                            x       y       z     vdW  Elec       q    Type
REMARK                         _______ _______ _______ _____ _____    ______ ____
ROOT
ATOM      1  O   UNL     1       4.376  -2.159  25.651  0.00  0.00    -0.453 OA
ENDROOT
BRANCH   1   2
ATOM      2  C   UNL     1       5.133  -1.012  25.900  0.00  0.00    +0.214 A 
ATOM      3  C   UNL     1       4.545   0.389  25.853  0.00  0.00    +0.238 A 
ATOM      4  O   UNL     1       3.315   0.569  25.894  0.00  0.00    -0.283 OA
ATOM      5  C   UNL     1       5.528   1.533  25.681  0.00  0.00    +0.109 A 
ATOM      6  C   UNL     1       6.866   1.258  25.903  0.00  0.00    +0.147 A 
ATOM      7  C   UNL     1       7.891   2.211  25.731  0.00  0.00    +0.093 A 
ATOM      8  C   UNL     1       7.603   3.500  25.296  0.00  0.00    +0.131 A 
ATOM      9  C   UNL     1       6.254   3.803  25.077  0.00  0.00    +0.092 A 
ATOM     10  O   UNL     1       7.277   0.024  26.295  0.00  0.00    -0.451 OA
ATOM     11  C   UNL     1       5.231   2.834  25.286  0.00  0.00    +0.135 A 
ATOM     12  C   UNL     1       6.489  -1.058  25.967  0.00  0.00    +0.181 A 
BRANCH  12  13
ATOM     13  C   UNL     1       7.360  -2.191  25.591  0.00  0.00    +0.025 A 
ATOM     14  C   UNL     1       8.396  -2.039  24.665  0.00  0.00    +0.015 A 
ATOM     15  C   UNL     1       9.318  -3.069  24.439  0.00  0.00    +0.050 A 
ATOM     16  C   UNL     1       9.279  -4.212  25.240  0.00  0.00    +0.158 A 
ATOM     17  C   UNL     1       8.329  -4.318  26.246  0.00  0.00    +0.159 A 
ATOM     18  C   UNL     1       7.347  -3.350  26.391  0.00  0.00    +0.060 A 
BRANCH  17  19
ATOM     19  O   UNL     1       8.369  -5.288  27.207  0.00  0.00    -0.503 OA
ATOM     20  H   UNL     1       9.294  -5.371  27.485  0.00  0.00    +0.292 HD
ENDBRANCH  17  19
BRANCH  16  21
ATOM     21  O   UNL     1      10.212  -5.194  25.090  0.00  0.00    -0.503 OA
ATOM     22  H   UNL     1       9.969  -5.918  25.693  0.00  0.00    +0.292 HD
ENDBRANCH  16  21
ENDBRANCH  12  13
BRANCH  11  23
ATOM     23  O   UNL     1       3.933   3.197  25.068  0.00  0.00    -0.506 OA
ATOM     24  H   UNL     1       3.363   2.418  25.188  0.00  0.00    +0.292 HD
ENDBRANCH  11  23
BRANCH   8  25
ATOM     25  O   UNL     1       8.547   4.487  25.044  0.00  0.00    -0.461 OA
BRANCH  25  26
ATOM     26  C   UNL     1       8.973   4.609  23.663  0.00  0.00    +0.339 C 
ATOM     27  O   UNL     1       9.715   3.457  23.256  0.00  0.00    -0.331 OA
ATOM     28  C   UNL     1      10.992   3.364  23.909  0.00  0.00    +0.179 C 
ATOM     29  C   UNL     1      11.917   4.529  23.495  0.00  0.00    +0.177 C 
ATOM     30  C   UNL     1      11.243   5.880  23.799  0.00  0.00    +0.180 C 
ATOM     31  C   UNL     1       9.781   5.891  23.313  0.00  0.00    +0.214 C 
BRANCH  31  32
ATOM     32  O   UNL     1       9.106   7.106  23.652  0.00  0.00    -0.383 OA
ATOM     33  H   UNL     1       9.769   7.817  23.683  0.00  0.00    +0.210 HD
ENDBRANCH  31  32
BRANCH  30  34
ATOM     34  O   UNL     1      11.357   6.233  25.182  0.00  0.00    -0.386 OA
ATOM     35  H   UNL     1      10.629   6.816  25.446  0.00  0.00    +0.210 HD
ENDBRANCH  30  34
BRANCH  29  36
ATOM     36  O   UNL     1      12.216   4.434  22.099  0.00  0.00    -0.386 OA
ATOM     37  H   UNL     1      11.988   5.283  21.678  0.00  0.00    +0.210 HD
ENDBRANCH  29  36
BRANCH  28  38
ATOM     38  C   UNL     1      11.600   1.999  23.561  0.00  0.00    +0.190 C 
BRANCH  38  39
ATOM     39  O   UNL     1      11.066   0.955  24.380  0.00  0.00    -0.392 OA
ATOM     40  H   UNL     1      10.801   1.331  25.235  0.00  0.00    +0.210 HD
ENDBRANCH  38  39
ENDBRANCH  28  38
ENDBRANCH  25  26
ENDBRANCH   8  25
ENDBRANCH   1   2
BRANCH   1  43
ATOM     41  C   UNL     1       1.445  -3.094  27.769  0.00  0.00    +0.179 C 
ATOM     42  O   UNL     1       2.260  -2.687  26.644  0.00  0.00    -0.331 OA
ATOM     43  C   UNL     1       3.699  -2.886  26.715  0.00  0.00    +0.340 C 
ATOM     44  C   UNL     1       4.311  -2.417  28.090  0.00  0.00    +0.221 C 
ATOM     45  C   UNL     1       3.539  -3.164  29.187  0.00  0.00    +0.180 C 
ATOM     46  C   UNL     1       2.076  -2.709  29.140  0.00  0.00    +0.177 C 
BRANCH  46  47
ATOM     47  O   UNL     1       1.410  -3.270  30.278  0.00  0.00    -0.386 OA
ATOM     48  H   UNL     1       1.864  -4.101  30.515  0.00  0.00    +0.210 HD
ENDBRANCH  46  47
BRANCH  45  49
ATOM     49  O   UNL     1       4.122  -2.942  30.484  0.00  0.00    -0.386 OA
ATOM     50  H   UNL     1       4.788  -2.233  30.354  0.00  0.00    +0.210 HD
ENDBRANCH  45  49
BRANCH  44  51
ATOM     51  O   UNL     1       4.242  -0.969  28.282  0.00  0.00    -0.337 OA
BRANCH  51  52
ATOM     52  C   UNL     1       4.480  -0.457  29.613  0.00  0.00    +0.282 C 
ATOM     53  O   UNL     1       3.236  -0.124  30.255  0.00  0.00    -0.343 OA
ATOM     54  C   UNL     1       2.517   0.925  29.605  0.00  0.00    +0.149 C 
ATOM     55  C   UNL     1       1.310   1.254  30.484  0.00  0.00    +0.041 C 
ATOM     56  C   UNL     1       3.345   2.200  29.367  0.00  0.00    +0.174 C 
ATOM     57  C   UNL     1       4.750   1.876  28.832  0.00  0.00    +0.179 C 
ATOM     58  C   UNL     1       5.392   0.786  29.689  0.00  0.00    +0.201 C 
BRANCH  58  59
ATOM     59  O   UNL     1       6.743   0.596  29.255  0.00  0.00    -0.384 OA
ATOM     60  H   UNL     1       7.189   1.471  29.289  0.00  0.00    +0.210 HD
ENDBRANCH  58  59
BRANCH  57  61
ATOM     61  O   UNL     1       5.562   3.057  28.839  0.00  0.00    -0.386 OA
ATOM     62  H   UNL     1       5.046   3.736  28.355  0.00  0.00    +0.210 HD
ENDBRANCH  57  61
BRANCH  56  63
ATOM     63  O   UNL     1       2.626   3.060  28.473  0.00  0.00    -0.387 OA
ATOM     64  H   UNL     1       2.355   3.851  28.970  0.00  0.00    +0.210 HD
ENDBRANCH  56  63
ENDBRANCH  51  52
ENDBRANCH  44  51
BRANCH  41  65
ATOM     65  C   UNL     1       0.993  -4.587  27.754  0.00  0.00    +0.197 C 
BRANCH  65  66
ATOM     66  O   UNL     1       1.827  -5.525  27.070  0.00  0.00    -0.346 OA
BRANCH  66  70
ATOM     67  C   UNL     1       1.470  -9.074  24.615  0.00  0.00    +0.041 C 
ATOM     68  C   UNL     1       2.360  -7.868  24.342  0.00  0.00    +0.149 C 
ATOM     69  O   UNL     1       2.493  -7.064  25.528  0.00  0.00    -0.343 OA
ATOM     70  C   UNL     1       1.419  -6.153  25.853  0.00  0.00    +0.282 C 
ATOM     71  C   UNL     1       1.219  -5.209  24.643  0.00  0.00    +0.201 C 
ATOM     72  C   UNL     1       0.792  -6.089  23.452  0.00  0.00    +0.179 C 
ATOM     73  C   UNL     1       1.900  -7.087  23.099  0.00  0.00    +0.174 C 
BRANCH  73  74
ATOM     74  O   UNL     1       3.006  -6.383  22.505  0.00  0.00    -0.387 OA
ATOM     75  H   UNL     1       3.022  -6.637  21.556  0.00  0.00    +0.210 HD
ENDBRANCH  73  74
BRANCH  72  76
ATOM     76  O   UNL     1       0.450  -5.299  22.307  0.00  0.00    -0.386 OA
ATOM     77  H   UNL     1       0.537  -5.885  21.529  0.00  0.00    +0.210 HD
ENDBRANCH  72  76
BRANCH  71  78
ATOM     78  O   UNL     1       2.451  -4.515  24.328  0.00  0.00    -0.384 OA
ATOM     79  H   UNL     1       2.934  -4.408  25.171  0.00  0.00    +0.210 HD
ENDBRANCH  71  78
ENDBRANCH  66  70
ENDBRANCH  65  66
ENDBRANCH  41  65
ENDBRANCH   1  43
TORSDOF 26
ENDMDL
MODEL 6
REMARK VINA RESULT:      -4.1      2.093      5.483
REMARK  Name = 
REMARK  28 active torsions:
REMARK  status: ('A' for Active; 'I' for Inactive)
REMARK    1  A    between atoms: C_1  and  C_2
REMARK    2  A    between atoms: C_3  and  O_75
REMARK    3  A    between atoms: C_5  and  O_74
REMARK    4  A    between atoms: C_7  and  O_73
REMARK    5  A    between atoms: C_8  and  O_11
REMARK    6  A    between atoms: O_11  and  C_12
REMARK    7  A    between atoms: C_12  and  C_13
REMARK    8  A    between atoms: C_14  and  O_72
REMARK    9  A    between atoms: C_16  and  O_71
REMARK   10  A    between atoms: C_17  and  O_57
REMARK   11  A    between atoms: C_18  and  O_21
REMARK   12  A    between atoms: O_21  and  C_22
REMARK   13  A    between atoms: C_23  and  C_49
REMARK   14  A    between atoms: C_27  and  O_34
REMARK   15  A    between atoms: C_29  and  O_33
REMARK   16  A    between atoms: O_34  and  C_35
REMARK   17  A    between atoms: C_37  and  O_48
REMARK   18  A    between atoms: C_38  and  O_47
REMARK   19  A    between atoms: C_40  and  O_46
REMARK   20  A    between atoms: C_42  and  C_44
REMARK   21  A    between atoms: C_44  and  O_45
REMARK   22  A    between atoms: C_51  and  O_56
REMARK   23  A    between atoms: C_52  and  O_55
REMARK   24  A    between atoms: O_57  and  C_58
REMARK   25  A    between atoms: C_60  and  O_70
REMARK   26  A    between atoms: C_62  and  O_69
REMARK   27  A    between atoms: C_63  and  O_68
REMARK   28  A    between atoms: C_65  and  C_67
REMARK                            x       y       z     vdW  Elec       q    Type
REMARK                         _______ _______ _______ _____ _____    ______ ____
ROOT
ATOM      1  O   UNL     1       6.880   1.125  25.451  0.00  0.00    -0.453 OA
ENDROOT
BRANCH   1   2
ATOM      2  C   UNL     1       6.452  -0.204  25.470  0.00  0.00    +0.214 A 
ATOM      3  C   UNL     1       6.452  -1.088  24.233  0.00  0.00    +0.238 A 
ATOM      4  O   UNL     1       7.111  -0.777  23.226  0.00  0.00    -0.283 OA
ATOM      5  C   UNL     1       5.557  -2.314  24.274  0.00  0.00    +0.109 A 
ATOM      6  C   UNL     1       5.075  -2.706  25.509  0.00  0.00    +0.147 A 
ATOM      7  C   UNL     1       4.196  -3.793  25.687  0.00  0.00    +0.093 A 
ATOM      8  C   UNL     1       3.739  -4.529  24.599  0.00  0.00    +0.131 A 
ATOM      9  C   UNL     1       4.225  -4.156  23.340  0.00  0.00    +0.092 A 
ATOM     10  O   UNL     1       5.418  -2.043  26.644  0.00  0.00    -0.451 OA
ATOM     11  C   UNL     1       5.136  -3.073  23.186  0.00  0.00    +0.135 A 
ATOM     12  C   UNL     1       5.787  -0.719  26.537  0.00  0.00    +0.181 A 
BRANCH  12  13
ATOM     13  C   UNL     1       5.234   0.028  27.686  0.00  0.00    +0.025 A 
ATOM     14  C   UNL     1       5.963   1.040  28.317  0.00  0.00    +0.015 A 
ATOM     15  C   UNL     1       5.373   1.852  29.294  0.00  0.00    +0.050 A 
ATOM     16  C   UNL     1       4.004   1.735  29.548  0.00  0.00    +0.158 A 
ATOM     17  C   UNL     1       3.247   0.816  28.836  0.00  0.00    +0.159 A 
ATOM     18  C   UNL     1       3.855  -0.065  27.955  0.00  0.00    +0.060 A 
BRANCH  17  19
ATOM     19  O   UNL     1       1.881   0.799  28.863  0.00  0.00    -0.503 OA
ATOM     20  H   UNL     1       1.611   1.190  29.708  0.00  0.00    +0.292 HD
ENDBRANCH  17  19
BRANCH  16  21
ATOM     21  O   UNL     1       3.392   2.566  30.438  0.00  0.00    -0.503 OA
ATOM     22  H   UNL     1       2.685   2.055  30.869  0.00  0.00    +0.292 HD
ENDBRANCH  16  21
ENDBRANCH  12  13
BRANCH  11  23
ATOM     23  O   UNL     1       5.584  -2.769  21.932  0.00  0.00    -0.506 OA
ATOM     24  H   UNL     1       6.514  -3.044  21.853  0.00  0.00    +0.292 HD
ENDBRANCH  11  23
BRANCH   8  25
ATOM     25  O   UNL     1       2.831  -5.577  24.668  0.00  0.00    -0.461 OA
BRANCH  25  26
ATOM     26  C   UNL     1       3.410  -6.905  24.737  0.00  0.00    +0.339 C 
ATOM     27  O   UNL     1       2.843  -7.760  23.741  0.00  0.00    -0.331 OA
ATOM     28  C   UNL     1       1.465  -8.071  24.002  0.00  0.00    +0.179 C 
ATOM     29  C   UNL     1       1.313  -8.904  25.292  0.00  0.00    +0.177 C 
ATOM     30  C   UNL     1       1.942  -8.159  26.485  0.00  0.00    +0.180 C 
ATOM     31  C   UNL     1       3.334  -7.608  26.122  0.00  0.00    +0.214 C 
BRANCH  31  32
ATOM     32  O   UNL     1       3.909  -6.843  27.186  0.00  0.00    -0.383 OA
ATOM     33  H   UNL     1       3.832  -5.902  26.952  0.00  0.00    +0.210 HD
ENDBRANCH  31  32
BRANCH  30  34
ATOM     34  O   UNL     1       1.072  -7.143  26.996  0.00  0.00    -0.386 OA
ATOM     35  H   UNL     1       1.559  -6.316  27.132  0.00  0.00    +0.210 HD
ENDBRANCH  30  34
BRANCH  29  36
ATOM     36  O   UNL     1       1.946 -10.177  25.121  0.00  0.00    -0.386 OA
ATOM     37  H   UNL     1       2.904 -10.030  25.017  0.00  0.00    +0.210 HD
ENDBRANCH  29  36
BRANCH  28  38
ATOM     38  C   UNL     1       0.909  -8.809  22.776  0.00  0.00    +0.190 C 
BRANCH  38  39
ATOM     39  O   UNL     1       1.641  -8.491  21.588  0.00  0.00    -0.392 OA
ATOM     40  H   UNL     1       1.748  -7.528  21.534  0.00  0.00    +0.210 HD
ENDBRANCH  38  39
ENDBRANCH  28  38
ENDBRANCH  25  26
ENDBRANCH   8  25
ENDBRANCH   1   2
BRANCH   1  43
ATOM     41  C   UNL     1       4.978   3.414  23.193  0.00  0.00    +0.179 C 
ATOM     42  O   UNL     1       5.634   2.243  23.736  0.00  0.00    -0.331 OA
ATOM     43  C   UNL     1       5.975   2.225  25.149  0.00  0.00    +0.340 C 
ATOM     44  C   UNL     1       6.659   3.562  25.628  0.00  0.00    +0.221 C 
ATOM     45  C   UNL     1       5.702   4.701  25.247  0.00  0.00    +0.180 C 
ATOM     46  C   UNL     1       5.590   4.745  23.719  0.00  0.00    +0.177 C 
BRANCH  46  47
ATOM     47  O   UNL     1       4.846   5.919  23.372  0.00  0.00    -0.386 OA
ATOM     48  H   UNL     1       4.573   6.359  24.200  0.00  0.00    +0.210 HD
ENDBRANCH  46  47
BRANCH  45  49
ATOM     49  O   UNL     1       6.144   5.961  25.784  0.00  0.00    -0.386 OA
ATOM     50  H   UNL     1       5.858   5.960  26.723  0.00  0.00    +0.210 HD
ENDBRANCH  45  49
BRANCH  44  51
ATOM     51  O   UNL     1       7.985   3.766  25.046  0.00  0.00    -0.337 OA
BRANCH  51  52
ATOM     52  C   UNL     1       8.054   4.231  23.679  0.00  0.00    +0.282 C 
ATOM     53  O   UNL     1       8.492   3.173  22.808  0.00  0.00    -0.343 OA
ATOM     54  C   UNL     1       9.816   2.713  23.083  0.00  0.00    +0.149 C 
ATOM     55  C   UNL     1      10.178   1.707  21.990  0.00  0.00    +0.041 C 
ATOM     56  C   UNL     1      10.872   3.831  23.127  0.00  0.00    +0.174 C 
ATOM     57  C   UNL     1      10.376   5.054  23.916  0.00  0.00    +0.179 C 
ATOM     58  C   UNL     1       8.978   5.445  23.440  0.00  0.00    +0.201 C 
BRANCH  58  59
ATOM     59  O   UNL     1       8.592   6.660  24.093  0.00  0.00    -0.384 OA
ATOM     60  H   UNL     1       8.973   7.405  23.577  0.00  0.00    +0.210 HD
ENDBRANCH  58  59
BRANCH  57  61
ATOM     61  O   UNL     1      11.284   6.149  23.744  0.00  0.00    -0.386 OA
ATOM     62  H   UNL     1      11.523   6.148  22.793  0.00  0.00    +0.210 HD
ENDBRANCH  57  61
BRANCH  56  63
ATOM     63  O   UNL     1      12.084   3.302  23.681  0.00  0.00    -0.387 OA
ATOM     64  H   UNL     1      11.877   2.450  24.101  0.00  0.00    +0.210 HD
ENDBRANCH  56  63
ENDBRANCH  51  52
ENDBRANCH  44  51
BRANCH  41  65
ATOM     65  C   UNL     1       3.422   3.418  23.317  0.00  0.00    +0.197 C 
BRANCH  65  66
ATOM     66  O   UNL     1       2.789   4.652  23.663  0.00  0.00    -0.346 OA
BRANCH  66  70
ATOM     67  C   UNL     1       0.446   7.066  26.390  0.00  0.00    +0.041 C 
ATOM     68  C   UNL     1       1.638   6.187  26.751  0.00  0.00    +0.149 C 
ATOM     69  O   UNL     1       2.375   5.831  25.568  0.00  0.00    -0.343 OA
ATOM     70  C   UNL     1       1.870   4.750  24.754  0.00  0.00    +0.282 C 
ATOM     71  C   UNL     1       1.755   3.495  25.653  0.00  0.00    +0.201 C 
ATOM     72  C   UNL     1       0.727   3.823  26.753  0.00  0.00    +0.179 C 
ATOM     73  C   UNL     1       1.221   4.986  27.619  0.00  0.00    +0.174 C 
BRANCH  73  74
ATOM     74  O   UNL     1       2.322   4.543  28.432  0.00  0.00    -0.387 OA
ATOM     75  H   UNL     1       2.000   3.767  28.941  0.00  0.00    +0.210 HD
ENDBRANCH  73  74
BRANCH  72  76
ATOM     76  O   UNL     1       0.443   2.681  27.568  0.00  0.00    -0.386 OA
ATOM     77  H   UNL     1       1.234   2.106  27.529  0.00  0.00    +0.210 HD
ENDBRANCH  72  76
BRANCH  71  78
ATOM     78  O   UNL     1       3.036   3.179  26.252  0.00  0.00    -0.384 OA
ATOM     79  H   UNL     1       3.633   2.933  25.519  0.00  0.00    +0.210 HD
ENDBRANCH  71  78
ENDBRANCH  66  70
ENDBRANCH  65  66
ENDBRANCH  41  65
ENDBRANCH   1  43
TORSDOF 26
ENDMDL
MODEL 7
REMARK VINA RESULT:      -4.1      1.296      2.149
REMARK  Name = 
REMARK  28 active torsions:
REMARK  status: ('A' for Active; 'I' for Inactive)
REMARK    1  A    between atoms: C_1  and  C_2
REMARK    2  A    between atoms: C_3  and  O_75
REMARK    3  A    between atoms: C_5  and  O_74
REMARK    4  A    between atoms: C_7  and  O_73
REMARK    5  A    between atoms: C_8  and  O_11
REMARK    6  A    between atoms: O_11  and  C_12
REMARK    7  A    between atoms: C_12  and  C_13
REMARK    8  A    between atoms: C_14  and  O_72
REMARK    9  A    between atoms: C_16  and  O_71
REMARK   10  A    between atoms: C_17  and  O_57
REMARK   11  A    between atoms: C_18  and  O_21
REMARK   12  A    between atoms: O_21  and  C_22
REMARK   13  A    between atoms: C_23  and  C_49
REMARK   14  A    between atoms: C_27  and  O_34
REMARK   15  A    between atoms: C_29  and  O_33
REMARK   16  A    between atoms: O_34  and  C_35
REMARK   17  A    between atoms: C_37  and  O_48
REMARK   18  A    between atoms: C_38  and  O_47
REMARK   19  A    between atoms: C_40  and  O_46
REMARK   20  A    between atoms: C_42  and  C_44
REMARK   21  A    between atoms: C_44  and  O_45
REMARK   22  A    between atoms: C_51  and  O_56
REMARK   23  A    between atoms: C_52  and  O_55
REMARK   24  A    between atoms: O_57  and  C_58
REMARK   25  A    between atoms: C_60  and  O_70
REMARK   26  A    between atoms: C_62  and  O_69
REMARK   27  A    between atoms: C_63  and  O_68
REMARK   28  A    between atoms: C_65  and  C_67
REMARK                            x       y       z     vdW  Elec       q    Type
REMARK                         _______ _______ _______ _____ _____    ______ ____
ROOT
ATOM      1  O   UNL     1       7.230   1.002  26.230  0.00  0.00    -0.453 OA
ENDROOT
BRANCH   1   2
ATOM      2  C   UNL     1       6.654   0.006  27.020  0.00  0.00    +0.214 A 
ATOM      3  C   UNL     1       7.227  -1.399  27.123  0.00  0.00    +0.238 A 
ATOM      4  O   UNL     1       8.392  -1.642  26.762  0.00  0.00    -0.283 OA
ATOM      5  C   UNL     1       6.286  -2.483  27.617  0.00  0.00    +0.109 A 
ATOM      6  C   UNL     1       5.114  -2.075  28.229  0.00  0.00    +0.147 A 
ATOM      7  C   UNL     1       4.128  -2.971  28.689  0.00  0.00    +0.093 A 
ATOM      8  C   UNL     1       4.276  -4.343  28.524  0.00  0.00    +0.131 A 
ATOM      9  C   UNL     1       5.461  -4.779  27.918  0.00  0.00    +0.092 A 
ATOM     10  O   UNL     1       4.836  -0.758  28.414  0.00  0.00    -0.451 OA
ATOM     11  C   UNL     1       6.458  -3.858  27.488  0.00  0.00    +0.135 A 
ATOM     12  C   UNL     1       5.415   0.155  27.558  0.00  0.00    +0.181 A 
BRANCH  12  13
ATOM     13  C   UNL     1       4.432   1.213  27.246  0.00  0.00    +0.025 A 
ATOM     14  C   UNL     1       3.888   1.350  25.966  0.00  0.00    +0.015 A 
ATOM     15  C   UNL     1       2.839   2.244  25.720  0.00  0.00    +0.050 A 
ATOM     16  C   UNL     1       2.242   2.913  26.791  0.00  0.00    +0.158 A 
ATOM     17  C   UNL     1       2.696   2.689  28.083  0.00  0.00    +0.159 A 
ATOM     18  C   UNL     1       3.809   1.893  28.310  0.00  0.00    +0.060 A 
BRANCH  17  19
ATOM     19  O   UNL     1       2.027   3.123  29.191  0.00  0.00    -0.503 OA
ATOM     20  H   UNL     1       1.489   2.380  29.506  0.00  0.00    +0.292 HD
ENDBRANCH  17  19
BRANCH  16  21
ATOM     21  O   UNL     1       1.171   3.730  26.586  0.00  0.00    -0.503 OA
ATOM     22  H   UNL     1       1.302   4.521  27.137  0.00  0.00    +0.292 HD
ENDBRANCH  16  21
ENDBRANCH  12  13
BRANCH  11  23
ATOM     23  O   UNL     1       7.598  -4.348  26.915  0.00  0.00    -0.506 OA
ATOM     24  H   UNL     1       7.981  -3.663  26.340  0.00  0.00    +0.292 HD
ENDBRANCH  11  23
BRANCH   8  25
ATOM     25  O   UNL     1       3.338  -5.299  28.891  0.00  0.00    -0.461 OA
BRANCH  25  26
ATOM     26  C   UNL     1       3.587  -6.642  28.403  0.00  0.00    +0.339 C 
ATOM     27  O   UNL     1       3.439  -6.702  26.982  0.00  0.00    -0.331 OA
ATOM     28  C   UNL     1       2.076  -6.527  26.562  0.00  0.00    +0.179 C 
ATOM     29  C   UNL     1       1.188  -7.693  27.046  0.00  0.00    +0.177 C 
ATOM     30  C   UNL     1       1.275  -7.830  28.579  0.00  0.00    +0.180 C 
ATOM     31  C   UNL     1       2.739  -7.770  29.057  0.00  0.00    +0.214 C 
BRANCH  31  32
ATOM     32  O   UNL     1       2.845  -7.815  30.483  0.00  0.00    -0.383 OA
ATOM     33  H   UNL     1       2.184  -8.449  30.811  0.00  0.00    +0.210 HD
ENDBRANCH  31  32
BRANCH  30  34
ATOM     34  O   UNL     1       0.446  -6.873  29.246  0.00  0.00    -0.386 OA
ATOM     35  H   UNL     1       0.470  -7.012  30.205  0.00  0.00    +0.210 HD
ENDBRANCH  30  34
BRANCH  29  36
ATOM     36  O   UNL     1       1.607  -8.911  26.422  0.00  0.00    -0.386 OA
ATOM     37  H   UNL     1       0.816  -9.370  26.084  0.00  0.00    +0.210 HD
ENDBRANCH  29  36
BRANCH  28  38
ATOM     38  C   UNL     1       2.069  -6.400  25.032  0.00  0.00    +0.190 C 
BRANCH  38  39
ATOM     39  O   UNL     1       3.215  -7.020  24.442  0.00  0.00    -0.392 OA
ATOM     40  H   UNL     1       3.810  -6.328  24.111  0.00  0.00    +0.210 HD
ENDBRANCH  38  39
ENDBRANCH  28  38
ENDBRANCH  25  26
ENDBRANCH   8  25
ENDBRANCH   1   2
BRANCH   1  43
ATOM     41  C   UNL     1       9.600   0.882  23.345  0.00  0.00    +0.179 C 
ATOM     42  O   UNL     1       9.050   0.811  24.682  0.00  0.00    -0.331 OA
ATOM     43  C   UNL     1       7.605   0.769  24.843  0.00  0.00    +0.340 C 
ATOM     44  C   UNL     1       6.863   1.838  23.953  0.00  0.00    +0.221 C 
ATOM     45  C   UNL     1       7.321   1.594  22.508  0.00  0.00    +0.180 C 
ATOM     46  C   UNL     1       8.826   1.874  22.427  0.00  0.00    +0.177 C 
BRANCH  46  47
ATOM     47  O   UNL     1       9.204   1.823  21.046  0.00  0.00    -0.386 OA
ATOM     48  H   UNL     1       9.320   0.886  20.799  0.00  0.00    +0.210 HD
ENDBRANCH  46  47
BRANCH  45  49
ATOM     49  O   UNL     1       6.581   2.405  21.577  0.00  0.00    -0.386 OA
ATOM     50  H   UNL     1       6.391   3.243  22.053  0.00  0.00    +0.210 HD
ENDBRANCH  45  49
BRANCH  44  51
ATOM     51  O   UNL     1       7.128   3.214  24.371  0.00  0.00    -0.337 OA
BRANCH  51  52
ATOM     52  C   UNL     1       8.285   3.450  25.204  0.00  0.00    +0.282 C 
ATOM     53  O   UNL     1       7.889   3.637  26.574  0.00  0.00    -0.343 OA
ATOM     54  C   UNL     1       7.071   4.789  26.784  0.00  0.00    +0.149 C 
ATOM     55  C   UNL     1       6.865   4.924  28.294  0.00  0.00    +0.041 C 
ATOM     56  C   UNL     1       7.667   6.093  26.226  0.00  0.00    +0.174 C 
ATOM     57  C   UNL     1       8.252   5.895  24.817  0.00  0.00    +0.179 C 
ATOM     58  C   UNL     1       9.153   4.661  24.800  0.00  0.00    +0.201 C 
BRANCH  58  59
ATOM     59  O   UNL     1       9.788   4.573  23.519  0.00  0.00    -0.384 OA
ATOM     60  H   UNL     1      10.229   5.436  23.350  0.00  0.00    +0.210 HD
ENDBRANCH  58  59
BRANCH  57  61
ATOM     61  O   UNL     1       8.993   7.057  24.427  0.00  0.00    -0.386 OA
ATOM     62  H   UNL     1       9.803   6.721  23.989  0.00  0.00    +0.210 HD
ENDBRANCH  57  61
BRANCH  56  63
ATOM     63  O   UNL     1       6.655   7.108  26.239  0.00  0.00    -0.387 OA
ATOM     64  H   UNL     1       6.276   7.145  27.134  0.00  0.00    +0.210 HD
ENDBRANCH  56  63
ENDBRANCH  51  52
ENDBRANCH  44  51
BRANCH  41  65
ATOM     65  C   UNL     1       9.807  -0.496  22.641  0.00  0.00    +0.197 C 
BRANCH  65  66
ATOM     66  O   UNL     1       8.715  -1.025  21.886  0.00  0.00    -0.346 OA
BRANCH  66  70
ATOM     67  C   UNL     1       6.146  -4.291  20.669  0.00  0.00    +0.041 C 
ATOM     68  C   UNL     1       6.129  -3.577  22.015  0.00  0.00    +0.149 C 
ATOM     69  O   UNL     1       6.852  -2.336  21.933  0.00  0.00    -0.343 OA
ATOM     70  C   UNL     1       8.294  -2.385  22.017  0.00  0.00    +0.282 C 
ATOM     71  C   UNL     1       8.667  -3.080  23.348  0.00  0.00    +0.201 C 
ATOM     72  C   UNL     1       8.117  -4.517  23.275  0.00  0.00    +0.179 C 
ATOM     73  C   UNL     1       6.588  -4.501  23.157  0.00  0.00    +0.174 C 
BRANCH  73  74
ATOM     74  O   UNL     1       6.018  -4.079  24.409  0.00  0.00    -0.387 OA
ATOM     75  H   UNL     1       5.144  -4.521  24.482  0.00  0.00    +0.210 HD
ENDBRANCH  73  74
BRANCH  72  76
ATOM     76  O   UNL     1       8.520  -5.297  24.405  0.00  0.00    -0.386 OA
ATOM     77  H   UNL     1       8.665  -4.668  25.140  0.00  0.00    +0.210 HD
ENDBRANCH  72  76
BRANCH  71  78
ATOM     78  O   UNL     1       8.076  -2.382  24.471  0.00  0.00    -0.384 OA
ATOM     79  H   UNL     1       7.578  -3.049  24.983  0.00  0.00    +0.210 HD
ENDBRANCH  71  78
ENDBRANCH  66  70
ENDBRANCH  65  66
ENDBRANCH  41  65
ENDBRANCH   1  43
TORSDOF 26
ENDMDL
MODEL 8
REMARK VINA RESULT:      -4.0      2.193     11.184
REMARK  Name = 
REMARK  28 active torsions:
REMARK  status: ('A' for Active; 'I' for Inactive)
REMARK    1  A    between atoms: C_1  and  C_2
REMARK    2  A    between atoms: C_3  and  O_75
REMARK    3  A    between atoms: C_5  and  O_74
REMARK    4  A    between atoms: C_7  and  O_73
REMARK    5  A    between atoms: C_8  and  O_11
REMARK    6  A    between atoms: O_11  and  C_12
REMARK    7  A    between atoms: C_12  and  C_13
REMARK    8  A    between atoms: C_14  and  O_72
REMARK    9  A    between atoms: C_16  and  O_71
REMARK   10  A    between atoms: C_17  and  O_57
REMARK   11  A    between atoms: C_18  and  O_21
REMARK   12  A    between atoms: O_21  and  C_22
REMARK   13  A    between atoms: C_23  and  C_49
REMARK   14  A    between atoms: C_27  and  O_34
REMARK   15  A    between atoms: C_29  and  O_33
REMARK   16  A    between atoms: O_34  and  C_35
REMARK   17  A    between atoms: C_37  and  O_48
REMARK   18  A    between atoms: C_38  and  O_47
REMARK   19  A    between atoms: C_40  and  O_46
REMARK   20  A    between atoms: C_42  and  C_44
REMARK   21  A    between atoms: C_44  and  O_45
REMARK   22  A    between atoms: C_51  and  O_56
REMARK   23  A    between atoms: C_52  and  O_55
REMARK   24  A    between atoms: O_57  and  C_58
REMARK   25  A    between atoms: C_60  and  O_70
REMARK   26  A    between atoms: C_62  and  O_69
REMARK   27  A    between atoms: C_63  and  O_68
REMARK   28  A    between atoms: C_65  and  C_67
REMARK                            x       y       z     vdW  Elec       q    Type
REMARK                         _______ _______ _______ _____ _____    ______ ____
ROOT
ATOM      1  O   UNL     1       4.402  -2.020  26.209  0.00  0.00    -0.453 OA
ENDROOT
BRANCH   1   2
ATOM      2  C   UNL     1       5.072  -0.906  25.701  0.00  0.00    +0.214 A 
ATOM      3  C   UNL     1       4.535   0.511  25.835  0.00  0.00    +0.238 A 
ATOM      4  O   UNL     1       3.644   0.781  26.658  0.00  0.00    -0.283 OA
ATOM      5  C   UNL     1       5.092   1.542  24.869  0.00  0.00    +0.109 A 
ATOM      6  C   UNL     1       6.244   1.209  24.180  0.00  0.00    +0.147 A 
ATOM      7  C   UNL     1       6.840   2.049  23.218  0.00  0.00    +0.093 A 
ATOM      8  C   UNL     1       6.272   3.274  22.887  0.00  0.00    +0.131 A 
ATOM      9  C   UNL     1       5.111   3.636  23.582  0.00  0.00    +0.092 A 
ATOM     10  O   UNL     1       6.872   0.023  24.387  0.00  0.00    -0.451 OA
ATOM     11  C   UNL     1       4.542   2.786  24.572  0.00  0.00    +0.135 A 
ATOM     12  C   UNL     1       6.122  -1.038  24.850  0.00  0.00    +0.181 A 
BRANCH  12  13
ATOM     13  C   UNL     1       6.571  -2.274  24.176  0.00  0.00    +0.025 A 
ATOM     14  C   UNL     1       7.552  -3.097  24.738  0.00  0.00    +0.015 A 
ATOM     15  C   UNL     1       7.853  -4.345  24.179  0.00  0.00    +0.050 A 
ATOM     16  C   UNL     1       7.075  -4.830  23.126  0.00  0.00    +0.158 A 
ATOM     17  C   UNL     1       6.019  -4.072  22.642  0.00  0.00    +0.159 A 
ATOM     18  C   UNL     1       5.797  -2.789  23.118  0.00  0.00    +0.060 A 
BRANCH  17  19
ATOM     19  O   UNL     1       5.083  -4.567  21.778  0.00  0.00    -0.503 OA
ATOM     20  H   UNL     1       4.972  -3.908  21.075  0.00  0.00    +0.292 HD
ENDBRANCH  17  19
BRANCH  16  21
ATOM     21  O   UNL     1       7.300  -6.074  22.616  0.00  0.00    -0.503 OA
ATOM     22  H   UNL     1       8.251  -6.137  22.419  0.00  0.00    +0.292 HD
ENDBRANCH  16  21
ENDBRANCH  12  13
BRANCH  11  23
ATOM     23  O   UNL     1       3.417   3.203  25.224  0.00  0.00    -0.506 OA
ATOM     24  H   UNL     1       3.675   3.792  25.955  0.00  0.00    +0.292 HD
ENDBRANCH  11  23
BRANCH   8  25
ATOM     25  O   UNL     1       6.752   4.142  21.915  0.00  0.00    -0.461 OA
BRANCH  25  26
ATOM     26  C   UNL     1       7.829   5.019  22.335  0.00  0.00    +0.339 C 
ATOM     27  O   UNL     1       8.297   4.661  23.638  0.00  0.00    -0.331 OA
ATOM     28  C   UNL     1       7.330   4.936  24.665  0.00  0.00    +0.179 C 
ATOM     29  C   UNL     1       7.072   6.452  24.800  0.00  0.00    +0.177 C 
ATOM     30  C   UNL     1       6.618   7.038  23.449  0.00  0.00    +0.180 C 
ATOM     31  C   UNL     1       7.516   6.541  22.300  0.00  0.00    +0.214 C 
BRANCH  31  32
ATOM     32  O   UNL     1       7.070   7.007  21.023  0.00  0.00    -0.383 OA
ATOM     33  H   UNL     1       7.309   6.336  20.361  0.00  0.00    +0.210 HD
ENDBRANCH  31  32
BRANCH  30  34
ATOM     34  O   UNL     1       5.231   6.788  23.200  0.00  0.00    -0.386 OA
ATOM     35  H   UNL     1       5.104   5.891  22.853  0.00  0.00    +0.210 HD
ENDBRANCH  30  34
BRANCH  29  36
ATOM     36  O   UNL     1       8.266   7.107  25.240  0.00  0.00    -0.386 OA
ATOM     37  H   UNL     1       9.002   6.470  25.187  0.00  0.00    +0.210 HD
ENDBRANCH  29  36
BRANCH  28  38
ATOM     38  C   UNL     1       7.849   4.326  25.974  0.00  0.00    +0.190 C 
BRANCH  38  39
ATOM     39  O   UNL     1       7.432   5.082  27.115  0.00  0.00    -0.392 OA
ATOM     40  H   UNL     1       8.213   5.303  27.648  0.00  0.00    +0.210 HD
ENDBRANCH  38  39
ENDBRANCH  28  38
ENDBRANCH  25  26
ENDBRANCH   8  25
ENDBRANCH   1   2
BRANCH   1  43
ATOM     41  C   UNL     1       2.507  -1.440  29.376  0.00  0.00    +0.179 C 
ATOM     42  O   UNL     1       3.516  -1.371  28.339  0.00  0.00    -0.331 OA
ATOM     43  C   UNL     1       3.199  -1.896  27.021  0.00  0.00    +0.340 C 
ATOM     44  C   UNL     1       2.504  -3.310  27.079  0.00  0.00    +0.221 C 
ATOM     45  C   UNL     1       1.273  -3.153  27.982  0.00  0.00    +0.180 C 
ATOM     46  C   UNL     1       1.754  -2.803  29.395  0.00  0.00    +0.177 C 
BRANCH  46  47
ATOM     47  O   UNL     1       0.615  -2.840  30.263  0.00  0.00    -0.386 OA
ATOM     48  H   UNL     1       0.630  -2.036  30.816  0.00  0.00    +0.210 HD
ENDBRANCH  46  47
BRANCH  45  49
ATOM     49  O   UNL     1       0.462  -4.342  27.977  0.00  0.00    -0.386 OA
ATOM     50  H   UNL     1       0.289  -4.544  28.922  0.00  0.00    +0.210 HD
ENDBRANCH  45  49
BRANCH  44  51
ATOM     51  O   UNL     1       3.392  -4.364  27.568  0.00  0.00    -0.337 OA
BRANCH  51  52
ATOM     52  C   UNL     1       3.459  -5.591  26.808  0.00  0.00    +0.282 C 
ATOM     53  O   UNL     1       2.337  -6.438  27.119  0.00  0.00    -0.343 OA
ATOM     54  C   UNL     1       2.305  -6.874  28.478  0.00  0.00    +0.149 C 
ATOM     55  C   UNL     1       1.151  -7.870  28.602  0.00  0.00    +0.041 C 
ATOM     56  C   UNL     1       3.610  -7.534  28.956  0.00  0.00    +0.174 C 
ATOM     57  C   UNL     1       4.849  -6.743  28.501  0.00  0.00    +0.179 C 
ATOM     58  C   UNL     1       4.742  -6.425  27.011  0.00  0.00    +0.201 C 
BRANCH  58  59
ATOM     59  O   UNL     1       5.961  -5.807  26.584  0.00  0.00    -0.384 OA
ATOM     60  H   UNL     1       6.586  -6.526  26.341  0.00  0.00    +0.210 HD
ENDBRANCH  58  59
BRANCH  57  61
ATOM     61  O   UNL     1       6.037  -7.499  28.764  0.00  0.00    -0.386 OA
ATOM     62  H   UNL     1       6.776  -6.969  28.399  0.00  0.00    +0.210 HD
ENDBRANCH  57  61
BRANCH  56  63
ATOM     63  O   UNL     1       3.566  -7.670  30.382  0.00  0.00    -0.387 OA
ATOM     64  H   UNL     1       3.484  -8.616  30.592  0.00  0.00    +0.210 HD
ENDBRANCH  56  63
ENDBRANCH  51  52
ENDBRANCH  44  51
BRANCH  41  65
ATOM     65  C   UNL     1       1.508  -0.241  29.408  0.00  0.00    +0.197 C 
BRANCH  65  66
ATOM     66  O   UNL     1       1.630   0.694  30.481  0.00  0.00    -0.346 OA
BRANCH  66  70
ATOM     67  C   UNL     1       1.272   4.691  28.852  0.00  0.00    +0.041 C 
ATOM     68  C   UNL     1       2.263   3.618  28.416  0.00  0.00    +0.149 C 
ATOM     69  O   UNL     1       1.859   2.330  28.911  0.00  0.00    -0.343 OA
ATOM     70  C   UNL     1       2.166   2.005  30.285  0.00  0.00    +0.282 C 
ATOM     71  C   UNL     1       3.697   2.141  30.472  0.00  0.00    +0.201 C 
ATOM     72  C   UNL     1       4.053   3.617  30.210  0.00  0.00    +0.179 C 
ATOM     73  C   UNL     1       3.712   4.002  28.766  0.00  0.00    +0.174 C 
BRANCH  73  74
ATOM     74  O   UNL     1       4.637   3.361  27.869  0.00  0.00    -0.387 OA
ATOM     75  H   UNL     1       4.098   2.825  27.247  0.00  0.00    +0.210 HD
ENDBRANCH  73  74
BRANCH  72  76
ATOM     76  O   UNL     1       5.432   3.885  30.484  0.00  0.00    -0.386 OA
ATOM     77  H   UNL     1       5.454   4.690  31.040  0.00  0.00    +0.210 HD
ENDBRANCH  72  76
BRANCH  71  78
ATOM     78  O   UNL     1       4.402   1.289  29.535  0.00  0.00    -0.384 OA
ATOM     79  H   UNL     1       5.345   1.319  29.788  0.00  0.00    +0.210 HD
ENDBRANCH  71  78
ENDBRANCH  66  70
ENDBRANCH  65  66
ENDBRANCH  41  65
ENDBRANCH   1  43
TORSDOF 26
ENDMDL
MODEL 9
REMARK VINA RESULT:      -3.9      1.794      9.861
REMARK  Name = 
REMARK  28 active torsions:
REMARK  status: ('A' for Active; 'I' for Inactive)
REMARK    1  A    between atoms: C_1  and  C_2
REMARK    2  A    between atoms: C_3  and  O_75
REMARK    3  A    between atoms: C_5  and  O_74
REMARK    4  A    between atoms: C_7  and  O_73
REMARK    5  A    between atoms: C_8  and  O_11
REMARK    6  A    between atoms: O_11  and  C_12
REMARK    7  A    between atoms: C_12  and  C_13
REMARK    8  A    between atoms: C_14  and  O_72
REMARK    9  A    between atoms: C_16  and  O_71
REMARK   10  A    between atoms: C_17  and  O_57
REMARK   11  A    between atoms: C_18  and  O_21
REMARK   12  A    between atoms: O_21  and  C_22
REMARK   13  A    between atoms: C_23  and  C_49
REMARK   14  A    between atoms: C_27  and  O_34
REMARK   15  A    between atoms: C_29  and  O_33
REMARK   16  A    between atoms: O_34  and  C_35
REMARK   17  A    between atoms: C_37  and  O_48
REMARK   18  A    between atoms: C_38  and  O_47
REMARK   19  A    between atoms: C_40  and  O_46
REMARK   20  A    between atoms: C_42  and  C_44
REMARK   21  A    between atoms: C_44  and  O_45
REMARK   22  A    between atoms: C_51  and  O_56
REMARK   23  A    between atoms: C_52  and  O_55
REMARK   24  A    between atoms: O_57  and  C_58
REMARK   25  A    between atoms: C_60  and  O_70
REMARK   26  A    between atoms: C_62  and  O_69
REMARK   27  A    between atoms: C_63  and  O_68
REMARK   28  A    between atoms: C_65  and  C_67
REMARK                            x       y       z     vdW  Elec       q    Type
REMARK                         _______ _______ _______ _____ _____    ______ ____
ROOT
ATOM      1  O   UNL     1       3.184  -3.188  27.347  0.00  0.00    -0.453 OA
ENDROOT
BRANCH   1   2
ATOM      2  C   UNL     1       3.865  -1.970  27.321  0.00  0.00    +0.214 A 
ATOM      3  C   UNL     1       3.163  -0.637  27.109  0.00  0.00    +0.238 A 
ATOM      4  O   UNL     1       1.933  -0.532  27.255  0.00  0.00    -0.283 OA
ATOM      5  C   UNL     1       4.029   0.521  26.646  0.00  0.00    +0.109 A 
ATOM      6  C   UNL     1       5.399   0.374  26.762  0.00  0.00    +0.147 A 
ATOM      7  C   UNL     1       6.322   1.346  26.325  0.00  0.00    +0.093 A 
ATOM      8  C   UNL     1       5.890   2.521  25.718  0.00  0.00    +0.131 A 
ATOM      9  C   UNL     1       4.505   2.695  25.603  0.00  0.00    +0.092 A 
ATOM     10  O   UNL     1       5.947  -0.746  27.303  0.00  0.00    -0.451 OA
ATOM     11  C   UNL     1       3.590   1.713  26.078  0.00  0.00    +0.135 A 
ATOM     12  C   UNL     1       5.220  -1.917  27.245  0.00  0.00    +0.181 A 
BRANCH  12  13
ATOM     13  C   UNL     1       6.140  -3.039  26.967  0.00  0.00    +0.025 A 
ATOM     14  C   UNL     1       7.514  -2.835  26.807  0.00  0.00    +0.015 A 
ATOM     15  C   UNL     1       8.398  -3.916  26.709  0.00  0.00    +0.050 A 
ATOM     16  C   UNL     1       7.918  -5.214  26.903  0.00  0.00    +0.158 A 
ATOM     17  C   UNL     1       6.574  -5.417  27.185  0.00  0.00    +0.159 A 
ATOM     18  C   UNL     1       5.683  -4.356  27.166  0.00  0.00    +0.060 A 
BRANCH  17  19
ATOM     19  O   UNL     1       6.077  -6.617  27.606  0.00  0.00    -0.503 OA
ATOM     20  H   UNL     1       6.676  -7.303  27.273  0.00  0.00    +0.292 HD
ENDBRANCH  17  19
BRANCH  16  21
ATOM     21  O   UNL     1       8.771  -6.276  26.888  0.00  0.00    -0.503 OA
ATOM     22  H   UNL     1       9.441  -6.098  26.205  0.00  0.00    +0.292 HD
ENDBRANCH  16  21
ENDBRANCH  12  13
BRANCH  11  23
ATOM     23  O   UNL     1       2.251   1.949  25.947  0.00  0.00    -0.506 OA
ATOM     24  H   UNL     1       1.858   2.035  26.833  0.00  0.00    +0.292 HD
ENDBRANCH  11  23
BRANCH   8  25
ATOM     25  O   UNL     1       6.720   3.509  25.206  0.00  0.00    -0.461 OA
BRANCH  25  26
ATOM     26  C   UNL     1       7.149   3.318  23.834  0.00  0.00    +0.339 C 
ATOM     27  O   UNL     1       7.917   2.119  23.703  0.00  0.00    -0.331 OA
ATOM     28  C   UNL     1       9.193   2.207  24.358  0.00  0.00    +0.179 C 
ATOM     29  C   UNL     1      10.095   3.264  23.685  0.00  0.00    +0.177 C 
ATOM     30  C   UNL     1       9.391   4.634  23.670  0.00  0.00    +0.180 C 
ATOM     31  C   UNL     1       7.931   4.501  23.196  0.00  0.00    +0.214 C 
BRANCH  31  32
ATOM     32  O   UNL     1       7.229   5.747  23.247  0.00  0.00    -0.383 OA
ATOM     33  H   UNL     1       7.884   6.452  23.387  0.00  0.00    +0.210 HD
ENDBRANCH  31  32
BRANCH  30  34
ATOM     34  O   UNL     1       9.493   5.299  24.934  0.00  0.00    -0.386 OA
ATOM     35  H   UNL     1      10.420   5.364  25.210  0.00  0.00    +0.210 HD
ENDBRANCH  30  34
BRANCH  29  36
ATOM     36  O   UNL     1      10.401   2.856  22.348  0.00  0.00    -0.386 OA
ATOM     37  H   UNL     1      10.859   3.591  21.901  0.00  0.00    +0.210 HD
ENDBRANCH  29  36
BRANCH  28  38
ATOM     38  C   UNL     1       9.831   0.811  24.334  0.00  0.00    +0.190 C 
BRANCH  38  39
ATOM     39  O   UNL     1      10.194   0.370  25.645  0.00  0.00    -0.392 OA
ATOM     40  H   UNL     1      10.947  -0.239  25.574  0.00  0.00    +0.210 HD
ENDBRANCH  38  39
ENDBRANCH  28  38
ENDBRANCH  25  26
ENDBRANCH   8  25
ENDBRANCH   1   2
BRANCH   1  43
ATOM     41  C   UNL     1       2.600  -4.700  23.982  0.00  0.00    +0.179 C 
ATOM     42  O   UNL     1       2.779  -3.740  25.051  0.00  0.00    -0.331 OA
ATOM     43  C   UNL     1       3.355  -4.192  26.307  0.00  0.00    +0.340 C 
ATOM     44  C   UNL     1       2.715  -5.538  26.821  0.00  0.00    +0.221 C 
ATOM     45  C   UNL     1       2.867  -6.555  25.681  0.00  0.00    +0.180 C 
ATOM     46  C   UNL     1       2.044  -6.065  24.485  0.00  0.00    +0.177 C 
BRANCH  46  47
ATOM     47  O   UNL     1       2.045  -7.106  23.501  0.00  0.00    -0.386 OA
ATOM     48  H   UNL     1       2.366  -7.924  23.926  0.00  0.00    +0.210 HD
ENDBRANCH  46  47
BRANCH  45  49
ATOM     49  O   UNL     1       2.467  -7.874  26.096  0.00  0.00    -0.386 OA
ATOM     50  H   UNL     1       1.693  -7.739  26.685  0.00  0.00    +0.210 HD
ENDBRANCH  45  49
BRANCH  44  51
ATOM     51  O   UNL     1       1.315  -5.390  27.218  0.00  0.00    -0.337 OA
BRANCH  51  52
ATOM     52  C   UNL     1       0.946  -5.822  28.547  0.00  0.00    +0.282 C 
ATOM     53  O   UNL     1       0.443  -4.714  29.316  0.00  0.00    -0.343 OA
ATOM     54  C   UNL     1       1.407  -3.686  29.541  0.00  0.00    +0.149 C 
ATOM     55  C   UNL     1       0.765  -2.668  30.485  0.00  0.00    +0.041 C 
ATOM     56  C   UNL     1       2.730  -4.188  30.146  0.00  0.00    +0.174 C 
ATOM     57  C   UNL     1       3.222  -5.471  29.456  0.00  0.00    +0.179 C 
ATOM     58  C   UNL     1       2.078  -6.481  29.366  0.00  0.00    +0.201 C 
BRANCH  58  59
ATOM     59  O   UNL     1       2.591  -7.711  28.842  0.00  0.00    -0.384 OA
ATOM     60  H   UNL     1       1.924  -8.409  29.024  0.00  0.00    +0.210 HD
ENDBRANCH  58  59
BRANCH  57  61
ATOM     61  O   UNL     1       4.321  -6.030  30.187  0.00  0.00    -0.386 OA
ATOM     62  H   UNL     1       4.593  -5.338  30.826  0.00  0.00    +0.210 HD
ENDBRANCH  57  61
BRANCH  56  63
ATOM     63  O   UNL     1       3.704  -3.139  30.064  0.00  0.00    -0.387 OA
ATOM     64  H   UNL     1       3.486  -2.584  29.297  0.00  0.00    +0.210 HD
ENDBRANCH  56  63
ENDBRANCH  51  52
ENDBRANCH  44  51
BRANCH  41  65
ATOM     65  C   UNL     1       3.842  -4.901  23.058  0.00  0.00    +0.197 C 
BRANCH  65  66
ATOM     66  O   UNL     1       4.501  -3.731  22.570  0.00  0.00    -0.346 OA
BRANCH  66  70
ATOM     67  C   UNL     1       8.383  -5.639  22.779  0.00  0.00    +0.041 C 
ATOM     68  C   UNL     1       7.932  -4.412  23.562  0.00  0.00    +0.149 C 
ATOM     69  O   UNL     1       6.500  -4.285  23.514  0.00  0.00    -0.343 OA
ATOM     70  C   UNL     1       5.910  -3.702  22.330  0.00  0.00    +0.282 C 
ATOM     71  C   UNL     1       6.531  -2.298  22.136  0.00  0.00    +0.201 C 
ATOM     72  C   UNL     1       8.040  -2.502  21.900  0.00  0.00    +0.179 C 
ATOM     73  C   UNL     1       8.692  -3.145  23.129  0.00  0.00    +0.174 C 
BRANCH  73  74
ATOM     74  O   UNL     1       8.735  -2.189  24.203  0.00  0.00    -0.387 OA
ATOM     75  H   UNL     1       8.006  -1.551  24.040  0.00  0.00    +0.210 HD
ENDBRANCH  73  74
BRANCH  72  76
ATOM     76  O   UNL     1       8.696  -1.272  21.575  0.00  0.00    -0.386 OA
ATOM     77  H   UNL     1       8.436  -1.050  20.659  0.00  0.00    +0.210 HD
ENDBRANCH  72  76
BRANCH  71  78
ATOM     78  O   UNL     1       6.321  -1.480  23.313  0.00  0.00    -0.384 OA
ATOM     79  H   UNL     1       5.755  -2.000  23.916  0.00  0.00    +0.210 HD
ENDBRANCH  71  78
ENDBRANCH  66  70
ENDBRANCH  65  66
ENDBRANCH  41  65
ENDBRANCH   1  43
TORSDOF 26
ENDMDL
