MODEL 1
REMARK VINA RESULT:      -7.8      0.000      0.000
REMARK  Name = 
REMARK  12 active torsions:
REMARK  status: ('A' for Active; 'I' for Inactive)
REMARK    1  A    between atoms: C_3  and  O_38
REMARK    2  A    between atoms: C_4  and  O_21
REMARK    3  A    between atoms: C_6  and  C_7
REMARK    4  A    between atoms: C_8  and  O_20
REMARK    5  A    between atoms: C_12  and  O_19
REMARK    6  A    between atoms: C_14  and  O_18
REMARK    7  A    between atoms: O_21  and  C_22
REMARK    8  A    between atoms: C_24  and  O_37
REMARK    9  A    between atoms: C_26  and  O_36
REMARK   10  A    between atoms: C_28  and  O_35
REMARK   11  A    between atoms: C_30  and  C_33
REMARK   12  A    between atoms: C_33  and  O_34
REMARK                            x       y       z     vdW  Elec       q    Type
REMARK                         _______ _______ _______ _____ _____    ______ ____
ROOT
ATOM      1  C   UNL     1       9.191  -2.201  22.758  0.00  0.00    +0.015 A 
ATOM      2  C   UNL     1       7.962  -2.079  23.430  0.00  0.00    +0.025 A 
ATOM      3  C   UNL     1       7.305  -0.846  23.305  0.00  0.00    +0.061 A 
ATOM      4  C   UNL     1       7.878   0.255  22.622  0.00  0.00    +0.166 A 
ATOM      5  C   UNL     1       9.128   0.121  22.038  0.00  0.00    +0.159 A 
ATOM      6  C   UNL     1       9.778  -1.113  22.091  0.00  0.00    +0.050 A 
ENDROOT
BRANCH   2   7
ATOM      7  C   UNL     1       7.400  -3.189  24.274  0.00  0.00    +0.181 A 
ATOM      8  O   UNL     1       6.512  -4.039  23.608  0.00  0.00    -0.451 OA
ATOM      9  C   UNL     1       5.892  -5.049  24.316  0.00  0.00    +0.147 A 
ATOM     10  C   UNL     1       6.183  -5.329  25.648  0.00  0.00    +0.109 A 
ATOM     11  C   UNL     1       5.542  -6.385  26.315  0.00  0.00    +0.135 A 
ATOM     12  C   UNL     1       4.590  -7.159  25.662  0.00  0.00    +0.091 A 
ATOM     13  C   UNL     1       4.290  -6.868  24.336  0.00  0.00    +0.124 A 
ATOM     14  C   UNL     1       7.151  -4.477  26.337  0.00  0.00    +0.238 A 
ATOM     15  O   UNL     1       7.447  -4.742  27.501  0.00  0.00    -0.283 OA
ATOM     16  C   UNL     1       4.933  -5.824  23.660  0.00  0.00    +0.092 A 
ATOM     17  C   UNL     1       7.697  -3.320  25.590  0.00  0.00    +0.208 A 
BRANCH  11  18
ATOM     18  O   UNL     1       5.789  -6.707  27.623  0.00  0.00    -0.506 OA
ATOM     19  H   UNL     1       5.866  -5.866  28.135  0.00  0.00    +0.292 HD
ENDBRANCH  11  18
BRANCH  13  20
ATOM     20  O   UNL     1       3.356  -7.595  23.660  0.00  0.00    -0.507 OA
ATOM     21  H   UNL     1       2.658  -7.873  24.281  0.00  0.00    +0.292 HD
ENDBRANCH  13  20
BRANCH  17  22
ATOM     22  O   UNL     1       8.465  -2.435  26.327  0.00  0.00    -0.501 OA
ATOM     23  H   UNL     1       8.219  -2.522  27.264  0.00  0.00    +0.292 HD
ENDBRANCH  17  22
ENDBRANCH   2   7
BRANCH   5  24
ATOM     24  O   UNL     1       9.752   1.194  21.469  0.00  0.00    -0.503 OA
ATOM     25  H   UNL     1       9.814   1.903  22.132  0.00  0.00    +0.292 HD
ENDBRANCH   5  24
BRANCH   4  26
ATOM     26  O   UNL     1       7.178   1.398  22.785  0.00  0.00    -0.457 OA
BRANCH  26  27
ATOM     27  C   UNL     1       7.642   2.651  23.277  0.00  0.00    +0.339 C 
ATOM     28  O   UNL     1       6.660   3.672  23.499  0.00  0.00    -0.331 OA
ATOM     29  C   UNL     1       7.221   4.999  23.306  0.00  0.00    +0.179 C 
ATOM     30  C   UNL     1       8.491   5.240  24.176  0.00  0.00    +0.177 C 
ATOM     31  C   UNL     1       9.463   4.037  24.191  0.00  0.00    +0.180 C 
ATOM     32  C   UNL     1       8.700   2.713  24.400  0.00  0.00    +0.214 C 
BRANCH  30  33
ATOM     33  O   UNL     1       9.197   6.413  23.751  0.00  0.00    -0.386 OA
ATOM     34  H   UNL     1      10.007   6.450  24.305  0.00  0.00    +0.210 HD
ENDBRANCH  30  33
BRANCH  31  35
ATOM     35  O   UNL     1      10.202   4.073  22.953  0.00  0.00    -0.386 OA
ATOM     36  H   UNL     1      10.919   4.729  23.027  0.00  0.00    +0.210 HD
ENDBRANCH  31  35
BRANCH  32  37
ATOM     37  O   UNL     1       8.139   2.755  25.720  0.00  0.00    -0.383 OA
ATOM     38  H   UNL     1       8.418   1.929  26.171  0.00  0.00    +0.210 HD
ENDBRANCH  32  37
BRANCH  29  39
ATOM     39  C   UNL     1       7.428   5.324  21.807  0.00  0.00    +0.190 C 
BRANCH  39  40
ATOM     40  O   UNL     1       7.079   6.676  21.511  0.00  0.00    -0.392 OA
ATOM     41  H   UNL     1       7.185   6.802  20.552  0.00  0.00    +0.210 HD
ENDBRANCH  39  40
ENDBRANCH  29  39
ENDBRANCH  26  27
ENDBRANCH   4  26
TORSDOF 12
ENDMDL
MODEL 2
REMARK VINA RESULT:      -7.8      1.178      2.437
REMARK  Name = 
REMARK  12 active torsions:
REMARK  status: ('A' for Active; 'I' for Inactive)
REMARK    1  A    between atoms: C_3  and  O_38
REMARK    2  A    between atoms: C_4  and  O_21
REMARK    3  A    between atoms: C_6  and  C_7
REMARK    4  A    between atoms: C_8  and  O_20
REMARK    5  A    between atoms: C_12  and  O_19
REMARK    6  A    between atoms: C_14  and  O_18
REMARK    7  A    between atoms: O_21  and  C_22
REMARK    8  A    between atoms: C_24  and  O_37
REMARK    9  A    between atoms: C_26  and  O_36
REMARK   10  A    between atoms: C_28  and  O_35
REMARK   11  A    between atoms: C_30  and  C_33
REMARK   12  A    between atoms: C_33  and  O_34
REMARK                            x       y       z     vdW  Elec       q    Type
REMARK                         _______ _______ _______ _____ _____    ______ ____
ROOT
ATOM      1  C   UNL     1       8.957  -1.529  22.084  0.00  0.00    +0.015 A 
ATOM      2  C   UNL     1       7.674  -1.399  22.645  0.00  0.00    +0.025 A 
ATOM      3  C   UNL     1       7.136  -0.104  22.672  0.00  0.00    +0.061 A 
ATOM      4  C   UNL     1       7.868   1.033  22.248  0.00  0.00    +0.166 A 
ATOM      5  C   UNL     1       9.160   0.875  21.773  0.00  0.00    +0.159 A 
ATOM      6  C   UNL     1       9.700  -0.409  21.675  0.00  0.00    +0.050 A 
ENDROOT
BRANCH   2   7
ATOM      7  C   UNL     1       6.934  -2.572  23.226  0.00  0.00    +0.181 A 
ATOM      8  O   UNL     1       7.335  -2.938  24.513  0.00  0.00    -0.451 OA
ATOM      9  C   UNL     1       6.761  -4.045  25.105  0.00  0.00    +0.147 A 
ATOM     10  C   UNL     1       5.722  -4.763  24.521  0.00  0.00    +0.109 A 
ATOM     11  C   UNL     1       5.154  -5.867  25.177  0.00  0.00    +0.135 A 
ATOM     12  C   UNL     1       5.632  -6.273  26.416  0.00  0.00    +0.091 A 
ATOM     13  C   UNL     1       6.680  -5.564  26.992  0.00  0.00    +0.124 A 
ATOM     14  C   UNL     1       5.260  -4.353  23.195  0.00  0.00    +0.238 A 
ATOM     15  O   UNL     1       4.315  -4.954  22.687  0.00  0.00    -0.283 OA
ATOM     16  C   UNL     1       7.244  -4.456  26.350  0.00  0.00    +0.092 A 
ATOM     17  C   UNL     1       5.988  -3.248  22.529  0.00  0.00    +0.208 A 
BRANCH  11  18
ATOM     18  O   UNL     1       4.130  -6.608  24.650  0.00  0.00    -0.506 OA
ATOM     19  H   UNL     1       4.450  -7.014  23.809  0.00  0.00    +0.292 HD
ENDBRANCH  11  18
BRANCH  13  20
ATOM     20  O   UNL     1       7.186  -5.934  28.203  0.00  0.00    -0.507 OA
ATOM     21  H   UNL     1       7.951  -5.365  28.415  0.00  0.00    +0.292 HD
ENDBRANCH  13  20
BRANCH  17  22
ATOM     22  O   UNL     1       5.644  -3.009  21.210  0.00  0.00    -0.501 OA
ATOM     23  H   UNL     1       6.414  -2.623  20.758  0.00  0.00    +0.292 HD
ENDBRANCH  17  22
ENDBRANCH   2   7
BRANCH   5  24
ATOM     24  O   UNL     1       9.928   1.960  21.462  0.00  0.00    -0.503 OA
ATOM     25  H   UNL     1       9.340   2.705  21.251  0.00  0.00    +0.292 HD
ENDBRANCH   5  24
BRANCH   4  26
ATOM     26  O   UNL     1       7.248   2.197  22.538  0.00  0.00    -0.457 OA
BRANCH  26  27
ATOM     27  C   UNL     1       7.773   3.325  23.228  0.00  0.00    +0.339 C 
ATOM     28  O   UNL     1       6.849   4.359  23.593  0.00  0.00    -0.331 OA
ATOM     29  C   UNL     1       7.493   5.662  23.620  0.00  0.00    +0.179 C 
ATOM     30  C   UNL     1       8.753   5.683  24.537  0.00  0.00    +0.177 C 
ATOM     31  C   UNL     1       9.651   4.434  24.377  0.00  0.00    +0.180 C 
ATOM     32  C   UNL     1       8.804   3.145  24.363  0.00  0.00    +0.214 C 
BRANCH  30  33
ATOM     33  O   UNL     1       9.538   6.861  24.312  0.00  0.00    -0.386 OA
ATOM     34  H   UNL     1      10.429   6.658  24.672  0.00  0.00    +0.210 HD
ENDBRANCH  30  33
BRANCH  31  35
ATOM     35  O   UNL     1      10.421   4.616  23.172  0.00  0.00    -0.386 OA
ATOM     36  H   UNL     1       9.815   4.745  22.420  0.00  0.00    +0.210 HD
ENDBRANCH  31  35
BRANCH  32  37
ATOM     37  O   UNL     1       8.214   3.015  25.664  0.00  0.00    -0.383 OA
ATOM     38  H   UNL     1       8.654   3.677  26.240  0.00  0.00    +0.210 HD
ENDBRANCH  32  37
BRANCH  29  39
ATOM     39  C   UNL     1       7.756   6.203  22.194  0.00  0.00    +0.190 C 
BRANCH  39  40
ATOM     40  O   UNL     1       6.537   6.436  21.489  0.00  0.00    -0.392 OA
ATOM     41  H   UNL     1       6.394   7.397  21.462  0.00  0.00    +0.210 HD
ENDBRANCH  39  40
ENDBRANCH  29  39
ENDBRANCH  26  27
ENDBRANCH   4  26
TORSDOF 12
ENDMDL
MODEL 3
REMARK VINA RESULT:      -7.7      0.989      1.702
REMARK  Name = 
REMARK  12 active torsions:
REMARK  status: ('A' for Active; 'I' for Inactive)
REMARK    1  A    between atoms: C_3  and  O_38
REMARK    2  A    between atoms: C_4  and  O_21
REMARK    3  A    between atoms: C_6  and  C_7
REMARK    4  A    between atoms: C_8  and  O_20
REMARK    5  A    between atoms: C_12  and  O_19
REMARK    6  A    between atoms: C_14  and  O_18
REMARK    7  A    between atoms: O_21  and  C_22
REMARK    8  A    between atoms: C_24  and  O_37
REMARK    9  A    between atoms: C_26  and  O_36
REMARK   10  A    between atoms: C_28  and  O_35
REMARK   11  A    between atoms: C_30  and  C_33
REMARK   12  A    between atoms: C_33  and  O_34
REMARK                            x       y       z     vdW  Elec       q    Type
REMARK                         _______ _______ _______ _____ _____    ______ ____
ROOT
ATOM      1  C   UNL     1       9.284  -2.222  22.893  0.00  0.00    +0.015 A 
ATOM      2  C   UNL     1       7.995  -2.131  23.445  0.00  0.00    +0.025 A 
ATOM      3  C   UNL     1       7.291  -0.945  23.189  0.00  0.00    +0.061 A 
ATOM      4  C   UNL     1       7.869   0.147  22.495  0.00  0.00    +0.166 A 
ATOM      5  C   UNL     1       9.172   0.051  22.034  0.00  0.00    +0.159 A 
ATOM      6  C   UNL     1       9.876  -1.141  22.218  0.00  0.00    +0.050 A 
ENDROOT
BRANCH   2   7
ATOM      7  C   UNL     1       7.413  -3.223  24.299  0.00  0.00    +0.181 A 
ATOM      8  O   UNL     1       6.540  -4.086  23.633  0.00  0.00    -0.451 OA
ATOM      9  C   UNL     1       5.903  -5.081  24.348  0.00  0.00    +0.147 A 
ATOM     10  C   UNL     1       6.165  -5.333  25.691  0.00  0.00    +0.109 A 
ATOM     11  C   UNL     1       5.509  -6.375  26.367  0.00  0.00    +0.135 A 
ATOM     12  C   UNL     1       4.571  -7.162  25.710  0.00  0.00    +0.091 A 
ATOM     13  C   UNL     1       4.300  -6.898  24.372  0.00  0.00    +0.124 A 
ATOM     14  C   UNL     1       7.118  -4.467  26.383  0.00  0.00    +0.238 A 
ATOM     15  O   UNL     1       7.389  -4.707  27.559  0.00  0.00    -0.283 OA
ATOM     16  C   UNL     1       4.958  -5.870  23.688  0.00  0.00    +0.092 A 
ATOM     17  C   UNL     1       7.682  -3.326  25.625  0.00  0.00    +0.208 A 
BRANCH  11  18
ATOM     18  O   UNL     1       5.728  -6.669  27.686  0.00  0.00    -0.506 OA
ATOM     19  H   UNL     1       5.877  -7.641  27.761  0.00  0.00    +0.292 HD
ENDBRANCH  11  18
BRANCH  13  20
ATOM     20  O   UNL     1       3.381  -7.640  23.691  0.00  0.00    -0.507 OA
ATOM     21  H   UNL     1       2.685  -7.048  23.349  0.00  0.00    +0.292 HD
ENDBRANCH  13  20
BRANCH  17  22
ATOM     22  O   UNL     1       8.434  -2.426  26.359  0.00  0.00    -0.501 OA
ATOM     23  H   UNL     1       9.346  -2.760  26.411  0.00  0.00    +0.292 HD
ENDBRANCH  17  22
ENDBRANCH   2   7
BRANCH   5  24
ATOM     24  O   UNL     1       9.792   1.124  21.461  0.00  0.00    -0.503 OA
ATOM     25  H   UNL     1       9.781   1.009  20.495  0.00  0.00    +0.292 HD
ENDBRANCH   5  24
BRANCH   4  26
ATOM     26  O   UNL     1       7.100   1.257  22.528  0.00  0.00    -0.457 OA
BRANCH  26  27
ATOM     27  C   UNL     1       7.314   2.453  23.270  0.00  0.00    +0.339 C 
ATOM     28  O   UNL     1       7.917   3.555  22.578  0.00  0.00    -0.331 OA
ATOM     29  C   UNL     1       8.700   4.384  23.481  0.00  0.00    +0.179 C 
ATOM     30  C   UNL     1       7.872   4.873  24.706  0.00  0.00    +0.177 C 
ATOM     31  C   UNL     1       6.979   3.773  25.325  0.00  0.00    +0.180 C 
ATOM     32  C   UNL     1       6.228   2.990  24.228  0.00  0.00    +0.214 C 
BRANCH  30  33
ATOM     33  O   UNL     1       8.724   5.418  25.723  0.00  0.00    -0.386 OA
ATOM     34  H   UNL     1       9.613   5.034  25.556  0.00  0.00    +0.210 HD
ENDBRANCH  30  33
BRANCH  31  35
ATOM     35  O   UNL     1       7.834   2.935  26.130  0.00  0.00    -0.386 OA
ATOM     36  H   UNL     1       8.747   3.271  26.084  0.00  0.00    +0.210 HD
ENDBRANCH  31  35
BRANCH  32  37
ATOM     37  O   UNL     1       5.315   3.907  23.609  0.00  0.00    -0.383 OA
ATOM     38  H   UNL     1       4.839   3.404  22.913  0.00  0.00    +0.210 HD
ENDBRANCH  32  37
BRANCH  29  39
ATOM     39  C   UNL     1      10.038   3.708  23.868  0.00  0.00    +0.190 C 
BRANCH  39  40
ATOM     40  O   UNL     1      10.830   3.419  22.716  0.00  0.00    -0.392 OA
ATOM     41  H   UNL     1      11.750   3.316  23.013  0.00  0.00    +0.210 HD
ENDBRANCH  39  40
ENDBRANCH  29  39
ENDBRANCH  26  27
ENDBRANCH   4  26
TORSDOF 12
ENDMDL
MODEL 4
REMARK VINA RESULT:      -7.7      1.353      2.066
REMARK  Name = 
REMARK  12 active torsions:
REMARK  status: ('A' for Active; 'I' for Inactive)
REMARK    1  A    between atoms: C_3  and  O_38
REMARK    2  A    between atoms: C_4  and  O_21
REMARK    3  A    between atoms: C_6  and  C_7
REMARK    4  A    between atoms: C_8  and  O_20
REMARK    5  A    between atoms: C_12  and  O_19
REMARK    6  A    between atoms: C_14  and  O_18
REMARK    7  A    between atoms: O_21  and  C_22
REMARK    8  A    between atoms: C_24  and  O_37
REMARK    9  A    between atoms: C_26  and  O_36
REMARK   10  A    between atoms: C_28  and  O_35
REMARK   11  A    between atoms: C_30  and  C_33
REMARK   12  A    between atoms: C_33  and  O_34
REMARK                            x       y       z     vdW  Elec       q    Type
REMARK                         _______ _______ _______ _____ _____    ______ ____
ROOT
ATOM      1  C   UNL     1       9.616  -2.713  23.740  0.00  0.00    +0.015 A 
ATOM      2  C   UNL     1       8.380  -2.505  24.375  0.00  0.00    +0.025 A 
ATOM      3  C   UNL     1       7.975  -1.170  24.526  0.00  0.00    +0.061 A 
ATOM      4  C   UNL     1       8.798  -0.079  24.150  0.00  0.00    +0.166 A 
ATOM      5  C   UNL     1      10.045  -0.323  23.599  0.00  0.00    +0.159 A 
ATOM      6  C   UNL     1      10.449  -1.641  23.378  0.00  0.00    +0.050 A 
ENDROOT
BRANCH   2   7
ATOM      7  C   UNL     1       7.552  -3.643  24.905  0.00  0.00    +0.181 A 
ATOM      8  O   UNL     1       6.583  -4.124  24.021  0.00  0.00    -0.451 OA
ATOM      9  C   UNL     1       5.728  -5.124  24.441  0.00  0.00    +0.147 A 
ATOM     10  C   UNL     1       5.849  -5.753  25.676  0.00  0.00    +0.109 A 
ATOM     11  C   UNL     1       4.970  -6.784  26.045  0.00  0.00    +0.135 A 
ATOM     12  C   UNL     1       3.951  -7.182  25.189  0.00  0.00    +0.091 A 
ATOM     13  C   UNL     1       3.823  -6.542  23.962  0.00  0.00    +0.124 A 
ATOM     14  C   UNL     1       6.896  -5.292  26.586  0.00  0.00    +0.238 A 
ATOM     15  O   UNL     1       7.039  -5.869  27.663  0.00  0.00    -0.283 OA
ATOM     16  C   UNL     1       4.701  -5.522  23.582  0.00  0.00    +0.092 A 
ATOM     17  C   UNL     1       7.708  -4.128  26.162  0.00  0.00    +0.208 A 
BRANCH  11  18
ATOM     18  O   UNL     1       5.043  -7.439  27.245  0.00  0.00    -0.506 OA
ATOM     19  H   UNL     1       5.938  -7.849  27.316  0.00  0.00    +0.292 HD
ENDBRANCH  11  18
BRANCH  13  20
ATOM     20  O   UNL     1       2.831  -6.895  23.095  0.00  0.00    -0.507 OA
ATOM     21  H   UNL     1       3.181  -6.870  22.184  0.00  0.00    +0.292 HD
ENDBRANCH  13  20
BRANCH  17  22
ATOM     22  O   UNL     1       8.562  -3.606  27.118  0.00  0.00    -0.501 OA
ATOM     23  H   UNL     1       8.199  -2.757  27.422  0.00  0.00    +0.292 HD
ENDBRANCH  17  22
ENDBRANCH   2   7
BRANCH   5  24
ATOM     24  O   UNL     1      10.903   0.704  23.329  0.00  0.00    -0.503 OA
ATOM     25  H   UNL     1      11.693   0.342  22.892  0.00  0.00    +0.292 HD
ENDBRANCH   5  24
BRANCH   4  26
ATOM     26  O   UNL     1       8.310   1.112  24.558  0.00  0.00    -0.457 OA
BRANCH  26  27
ATOM     27  C   UNL     1       7.971   2.243  23.762  0.00  0.00    +0.339 C 
ATOM     28  O   UNL     1       8.669   3.466  24.029  0.00  0.00    -0.331 OA
ATOM     29  C   UNL     1       7.843   4.625  23.730  0.00  0.00    +0.179 C 
ATOM     30  C   UNL     1       7.288   4.599  22.275  0.00  0.00    +0.177 C 
ATOM     31  C   UNL     1       6.771   3.209  21.837  0.00  0.00    +0.180 C 
ATOM     32  C   UNL     1       7.766   2.100  22.238  0.00  0.00    +0.214 C 
BRANCH  30  33
ATOM     33  O   UNL     1       6.246   5.568  22.100  0.00  0.00    -0.386 OA
ATOM     34  H   UNL     1       5.544   5.110  21.586  0.00  0.00    +0.210 HD
ENDBRANCH  30  33
BRANCH  31  35
ATOM     35  O   UNL     1       5.467   3.036  22.427  0.00  0.00    -0.386 OA
ATOM     36  H   UNL     1       5.080   2.200  22.110  0.00  0.00    +0.210 HD
ENDBRANCH  31  35
BRANCH  32  37
ATOM     37  O   UNL     1       8.961   2.310  21.473  0.00  0.00    -0.383 OA
ATOM     38  H   UNL     1       9.533   1.527  21.622  0.00  0.00    +0.210 HD
ENDBRANCH  32  37
BRANCH  29  39
ATOM     39  C   UNL     1       6.750   4.845  24.805  0.00  0.00    +0.190 C 
BRANCH  39  40
ATOM     40  O   UNL     1       6.347   6.213  24.868  0.00  0.00    -0.392 OA
ATOM     41  H   UNL     1       5.459   6.274  24.477  0.00  0.00    +0.210 HD
ENDBRANCH  39  40
ENDBRANCH  29  39
ENDBRANCH  26  27
ENDBRANCH   4  26
TORSDOF 12
ENDMDL
MODEL 5
REMARK VINA RESULT:      -7.6      1.515      2.978
REMARK  Name = 
REMARK  12 active torsions:
REMARK  status: ('A' for Active; 'I' for Inactive)
REMARK    1  A    between atoms: C_3  and  O_38
REMARK    2  A    between atoms: C_4  and  O_21
REMARK    3  A    between atoms: C_6  and  C_7
REMARK    4  A    between atoms: C_8  and  O_20
REMARK    5  A    between atoms: C_12  and  O_19
REMARK    6  A    between atoms: C_14  and  O_18
REMARK    7  A    between atoms: O_21  and  C_22
REMARK    8  A    between atoms: C_24  and  O_37
REMARK    9  A    between atoms: C_26  and  O_36
REMARK   10  A    between atoms: C_28  and  O_35
REMARK   11  A    between atoms: C_30  and  C_33
REMARK   12  A    between atoms: C_33  and  O_34
REMARK                            x       y       z     vdW  Elec       q    Type
REMARK                         _______ _______ _______ _____ _____    ______ ____
ROOT
ATOM      1  C   UNL     1       9.374  -2.715  23.623  0.00  0.00    +0.015 A 
ATOM      2  C   UNL     1       8.018  -2.474  23.905  0.00  0.00    +0.025 A 
ATOM      3  C   UNL     1       7.655  -1.136  24.118  0.00  0.00    +0.061 A 
ATOM      4  C   UNL     1       8.606  -0.085  24.143  0.00  0.00    +0.166 A 
ATOM      5  C   UNL     1       9.946  -0.371  23.938  0.00  0.00    +0.159 A 
ATOM      6  C   UNL     1      10.329  -1.685  23.661  0.00  0.00    +0.050 A 
ENDROOT
BRANCH   2   7
ATOM      7  C   UNL     1       7.016  -3.589  24.019  0.00  0.00    +0.181 A 
ATOM      8  O   UNL     1       6.877  -4.124  25.302  0.00  0.00    -0.451 OA
ATOM      9  C   UNL     1       6.029  -5.197  25.494  0.00  0.00    +0.147 A 
ATOM     10  C   UNL     1       5.223  -5.714  24.485  0.00  0.00    +0.109 A 
ATOM     11  C   UNL     1       4.358  -6.791  24.739  0.00  0.00    +0.135 A 
ATOM     12  C   UNL     1       4.305  -7.371  26.000  0.00  0.00    +0.091 A 
ATOM     13  C   UNL     1       5.122  -6.862  27.003  0.00  0.00    +0.124 A 
ATOM     14  C   UNL     1       5.324  -5.125  23.150  0.00  0.00    +0.238 A 
ATOM     15  O   UNL     1       4.585  -5.547  22.261  0.00  0.00    -0.283 OA
ATOM     16  C   UNL     1       5.979  -5.782  26.761  0.00  0.00    +0.092 A 
ATOM     17  C   UNL     1       6.340  -4.067  22.945  0.00  0.00    +0.208 A 
BRANCH  11  18
ATOM     18  O   UNL     1       3.542  -7.339  23.786  0.00  0.00    -0.506 OA
ATOM     19  H   UNL     1       2.633  -7.404  24.163  0.00  0.00    +0.292 HD
ENDBRANCH  11  18
BRANCH  13  20
ATOM     20  O   UNL     1       5.109  -7.407  28.253  0.00  0.00    -0.507 OA
ATOM     21  H   UNL     1       4.335  -7.995  28.335  0.00  0.00    +0.292 HD
ENDBRANCH  13  20
BRANCH  17  22
ATOM     22  O   UNL     1       6.532  -3.662  21.635  0.00  0.00    -0.501 OA
ATOM     23  H   UNL     1       6.078  -2.812  21.507  0.00  0.00    +0.292 HD
ENDBRANCH  17  22
ENDBRANCH   2   7
BRANCH   5  24
ATOM     24  O   UNL     1      10.896   0.600  24.065  0.00  0.00    -0.503 OA
ATOM     25  H   UNL     1      10.560   1.417  23.658  0.00  0.00    +0.292 HD
ENDBRANCH   5  24
BRANCH   4  26
ATOM     26  O   UNL     1       8.081   1.089  24.556  0.00  0.00    -0.457 OA
BRANCH  26  27
ATOM     27  C   UNL     1       7.813   2.253  23.782  0.00  0.00    +0.339 C 
ATOM     28  O   UNL     1       8.509   3.454  24.141  0.00  0.00    -0.331 OA
ATOM     29  C   UNL     1       7.721   4.637  23.831  0.00  0.00    +0.179 C 
ATOM     30  C   UNL     1       7.266   4.673  22.341  0.00  0.00    +0.177 C 
ATOM     31  C   UNL     1       6.760   3.309  21.819  0.00  0.00    +0.180 C 
ATOM     32  C   UNL     1       7.709   2.169  22.243  0.00  0.00    +0.214 C 
BRANCH  30  33
ATOM     33  O   UNL     1       6.251   5.665  22.134  0.00  0.00    -0.386 OA
ATOM     34  H   UNL     1       5.555   5.474  22.800  0.00  0.00    +0.210 HD
ENDBRANCH  30  33
BRANCH  31  35
ATOM     35  O   UNL     1       5.416   3.137  22.313  0.00  0.00    -0.386 OA
ATOM     36  H   UNL     1       5.138   3.948  22.776  0.00  0.00    +0.210 HD
ENDBRANCH  31  35
BRANCH  32  37
ATOM     37  O   UNL     1       8.955   2.387  21.568  0.00  0.00    -0.383 OA
ATOM     38  H   UNL     1       8.998   3.345  21.358  0.00  0.00    +0.210 HD
ENDBRANCH  32  37
BRANCH  29  39
ATOM     39  C   UNL     1       6.562   4.836  24.837  0.00  0.00    +0.190 C 
BRANCH  39  40
ATOM     40  O   UNL     1       6.109   6.190  24.851  0.00  0.00    -0.392 OA
ATOM     41  H   UNL     1       5.137   6.173  24.818  0.00  0.00    +0.210 HD
ENDBRANCH  39  40
ENDBRANCH  29  39
ENDBRANCH  26  27
ENDBRANCH   4  26
TORSDOF 12
ENDMDL
MODEL 6
REMARK VINA RESULT:      -7.6      1.538      9.337
REMARK  Name = 
REMARK  12 active torsions:
REMARK  status: ('A' for Active; 'I' for Inactive)
REMARK    1  A    between atoms: C_3  and  O_38
REMARK    2  A    between atoms: C_4  and  O_21
REMARK    3  A    between atoms: C_6  and  C_7
REMARK    4  A    between atoms: C_8  and  O_20
REMARK    5  A    between atoms: C_12  and  O_19
REMARK    6  A    between atoms: C_14  and  O_18
REMARK    7  A    between atoms: O_21  and  C_22
REMARK    8  A    between atoms: C_24  and  O_37
REMARK    9  A    between atoms: C_26  and  O_36
REMARK   10  A    between atoms: C_28  and  O_35
REMARK   11  A    between atoms: C_30  and  C_33
REMARK   12  A    between atoms: C_33  and  O_34
REMARK                            x       y       z     vdW  Elec       q    Type
REMARK                         _______ _______ _______ _____ _____    ______ ____
ROOT
ATOM      1  C   UNL     1       9.940  -0.838  23.035  0.00  0.00    +0.015 A 
ATOM      2  C   UNL     1       8.948  -0.184  23.785  0.00  0.00    +0.025 A 
ATOM      3  C   UNL     1       8.411  -0.901  24.865  0.00  0.00    +0.061 A 
ATOM      4  C   UNL     1       8.771  -2.245  25.139  0.00  0.00    +0.166 A 
ATOM      5  C   UNL     1       9.696  -2.883  24.329  0.00  0.00    +0.159 A 
ATOM      6  C   UNL     1      10.294  -2.174  23.285  0.00  0.00    +0.050 A 
ENDROOT
BRANCH   2   7
ATOM      7  C   UNL     1       8.453   1.190  23.429  0.00  0.00    +0.181 A 
ATOM      8  O   UNL     1       9.333   2.229  23.741  0.00  0.00    -0.451 OA
ATOM      9  C   UNL     1       8.940   3.533  23.513  0.00  0.00    +0.147 A 
ATOM     10  C   UNL     1       7.741   3.864  22.891  0.00  0.00    +0.109 A 
ATOM     11  C   UNL     1       7.400   5.207  22.659  0.00  0.00    +0.135 A 
ATOM     12  C   UNL     1       8.248   6.230  23.064  0.00  0.00    +0.091 A 
ATOM     13  C   UNL     1       9.439   5.897  23.699  0.00  0.00    +0.124 A 
ATOM     14  C   UNL     1       6.837   2.779  22.513  0.00  0.00    +0.238 A 
ATOM     15  O   UNL     1       5.793   3.058  21.924  0.00  0.00    -0.283 OA
ATOM     16  C   UNL     1       9.791   4.562  23.924  0.00  0.00    +0.092 A 
ATOM     17  C   UNL     1       7.225   1.401  22.893  0.00  0.00    +0.208 A 
BRANCH  11  18
ATOM     18  O   UNL     1       6.235   5.591  22.050  0.00  0.00    -0.506 OA
ATOM     19  H   UNL     1       6.070   6.537  22.278  0.00  0.00    +0.292 HD
ENDBRANCH  11  18
BRANCH  13  20
ATOM     20  O   UNL     1      10.296   6.870  24.121  0.00  0.00    -0.507 OA
ATOM     21  H   UNL     1      10.378   6.822  25.092  0.00  0.00    +0.292 HD
ENDBRANCH  13  20
BRANCH  17  22
ATOM     22  O   UNL     1       6.267   0.425  22.684  0.00  0.00    -0.501 OA
ATOM     23  H   UNL     1       6.262   0.198  21.738  0.00  0.00    +0.292 HD
ENDBRANCH  17  22
ENDBRANCH   2   7
BRANCH   5  24
ATOM     24  O   UNL     1       9.980  -4.207  24.501  0.00  0.00    -0.503 OA
ATOM     25  H   UNL     1      10.891  -4.370  24.201  0.00  0.00    +0.292 HD
ENDBRANCH   5  24
BRANCH   4  26
ATOM     26  O   UNL     1       8.001  -2.811  26.093  0.00  0.00    -0.457 OA
BRANCH  26  27
ATOM     27  C   UNL     1       7.116  -3.920  25.965  0.00  0.00    +0.339 C 
ATOM     28  O   UNL     1       7.133  -4.632  24.720  0.00  0.00    -0.331 OA
ATOM     29  C   UNL     1       5.833  -5.209  24.421  0.00  0.00    +0.179 C 
ATOM     30  C   UNL     1       5.302  -6.108  25.578  0.00  0.00    +0.177 C 
ATOM     31  C   UNL     1       5.517  -5.496  26.981  0.00  0.00    +0.180 C 
ATOM     32  C   UNL     1       6.944  -4.927  27.122  0.00  0.00    +0.214 C 
BRANCH  30  33
ATOM     33  O   UNL     1       3.912  -6.410  25.402  0.00  0.00    -0.386 OA
ATOM     34  H   UNL     1       3.758  -7.244  25.899  0.00  0.00    +0.210 HD
ENDBRANCH  30  33
BRANCH  31  35
ATOM     35  O   UNL     1       4.492  -4.500  27.172  0.00  0.00    -0.386 OA
ATOM     36  H   UNL     1       3.674  -4.792  26.730  0.00  0.00    +0.210 HD
ENDBRANCH  31  35
BRANCH  32  37
ATOM     37  O   UNL     1       7.848  -6.039  27.058  0.00  0.00    -0.383 OA
ATOM     38  H   UNL     1       8.592  -5.765  26.481  0.00  0.00    +0.210 HD
ENDBRANCH  32  37
BRANCH  29  39
ATOM     39  C   UNL     1       4.820  -4.134  23.958  0.00  0.00    +0.190 C 
BRANCH  39  40
ATOM     40  O   UNL     1       3.978  -4.625  22.914  0.00  0.00    -0.392 OA
ATOM     41  H   UNL     1       4.346  -5.474  22.617  0.00  0.00    +0.210 HD
ENDBRANCH  39  40
ENDBRANCH  29  39
ENDBRANCH  26  27
ENDBRANCH   4  26
TORSDOF 12
ENDMDL
MODEL 7
REMARK VINA RESULT:      -7.6      1.266      2.340
REMARK  Name = 
REMARK  12 active torsions:
REMARK  status: ('A' for Active; 'I' for Inactive)
REMARK    1  A    between atoms: C_3  and  O_38
REMARK    2  A    between atoms: C_4  and  O_21
REMARK    3  A    between atoms: C_6  and  C_7
REMARK    4  A    between atoms: C_8  and  O_20
REMARK    5  A    between atoms: C_12  and  O_19
REMARK    6  A    between atoms: C_14  and  O_18
REMARK    7  A    between atoms: O_21  and  C_22
REMARK    8  A    between atoms: C_24  and  O_37
REMARK    9  A    between atoms: C_26  and  O_36
REMARK   10  A    between atoms: C_28  and  O_35
REMARK   11  A    between atoms: C_30  and  C_33
REMARK   12  A    between atoms: C_33  and  O_34
REMARK                            x       y       z     vdW  Elec       q    Type
REMARK                         _______ _______ _______ _____ _____    ______ ____
ROOT
ATOM      1  C   UNL     1       9.494  -1.392  22.611  0.00  0.00    +0.015 A 
ATOM      2  C   UNL     1       8.163  -1.412  23.061  0.00  0.00    +0.025 A 
ATOM      3  C   UNL     1       7.406  -0.257  22.815  0.00  0.00    +0.061 A 
ATOM      4  C   UNL     1       7.964   0.907  22.231  0.00  0.00    +0.166 A 
ATOM      5  C   UNL     1       9.303   0.917  21.872  0.00  0.00    +0.159 A 
ATOM      6  C   UNL     1      10.065  -0.240  22.047  0.00  0.00    +0.050 A 
ENDROOT
BRANCH   2   7
ATOM      7  C   UNL     1       7.588  -2.586  23.805  0.00  0.00    +0.181 A 
ATOM      8  O   UNL     1       6.655  -3.336  23.085  0.00  0.00    -0.451 OA
ATOM      9  C   UNL     1       6.022  -4.394  23.705  0.00  0.00    +0.147 A 
ATOM     10  C   UNL     1       6.341  -4.818  24.991  0.00  0.00    +0.109 A 
ATOM     11  C   UNL     1       5.685  -5.918  25.568  0.00  0.00    +0.135 A 
ATOM     12  C   UNL     1       4.691  -6.592  24.870  0.00  0.00    +0.091 A 
ATOM     13  C   UNL     1       4.363  -6.157  23.591  0.00  0.00    +0.124 A 
ATOM     14  C   UNL     1       7.356  -4.071  25.733  0.00  0.00    +0.238 A 
ATOM     15  O   UNL     1       7.676  -4.463  26.854  0.00  0.00    -0.283 OA
ATOM     16  C   UNL     1       5.020  -5.069  23.004  0.00  0.00    +0.092 A 
ATOM     17  C   UNL     1       7.918  -2.860  25.091  0.00  0.00    +0.208 A 
BRANCH  11  18
ATOM     18  O   UNL     1       5.959  -6.380  26.827  0.00  0.00    -0.506 OA
ATOM     19  H   UNL     1       6.939  -6.460  26.917  0.00  0.00    +0.292 HD
ENDBRANCH  11  18
BRANCH  13  20
ATOM     20  O   UNL     1       3.387  -6.784  22.873  0.00  0.00    -0.507 OA
ATOM     21  H   UNL     1       2.664  -7.041  23.476  0.00  0.00    +0.292 HD
ENDBRANCH  13  20
BRANCH  17  22
ATOM     22  O   UNL     1       8.736  -2.079  25.889  0.00  0.00    -0.501 OA
ATOM     23  H   UNL     1       9.614  -2.494  25.927  0.00  0.00    +0.292 HD
ENDBRANCH  17  22
ENDBRANCH   2   7
BRANCH   5  24
ATOM     24  O   UNL     1       9.894   2.057  21.410  0.00  0.00    -0.503 OA
ATOM     25  H   UNL     1       9.883   2.041  20.438  0.00  0.00    +0.292 HD
ENDBRANCH   5  24
BRANCH   4  26
ATOM     26  O   UNL     1       7.126   1.966  22.262  0.00  0.00    -0.457 OA
BRANCH  26  27
ATOM     27  C   UNL     1       7.186   3.111  23.105  0.00  0.00    +0.339 C 
ATOM     28  O   UNL     1       8.355   3.263  23.922  0.00  0.00    -0.331 OA
ATOM     29  C   UNL     1       8.051   3.964  25.159  0.00  0.00    +0.179 C 
ATOM     30  C   UNL     1       7.356   5.336  24.908  0.00  0.00    +0.177 C 
ATOM     31  C   UNL     1       6.261   5.281  23.818  0.00  0.00    +0.180 C 
ATOM     32  C   UNL     1       6.750   4.497  22.583  0.00  0.00    +0.214 C 
BRANCH  30  33
ATOM     33  O   UNL     1       6.794   5.861  26.117  0.00  0.00    -0.386 OA
ATOM     34  H   UNL     1       6.804   5.117  26.759  0.00  0.00    +0.210 HD
ENDBRANCH  30  33
BRANCH  31  35
ATOM     35  O   UNL     1       5.087   4.703  24.424  0.00  0.00    -0.386 OA
ATOM     36  H   UNL     1       4.802   3.933  23.900  0.00  0.00    +0.210 HD
ENDBRANCH  31  35
BRANCH  32  37
ATOM     37  O   UNL     1       7.818   5.256  21.999  0.00  0.00    -0.383 OA
ATOM     38  H   UNL     1       8.644   4.750  22.159  0.00  0.00    +0.210 HD
ENDBRANCH  32  37
BRANCH  29  39
ATOM     39  C   UNL     1       7.292   3.061  26.161  0.00  0.00    +0.190 C 
BRANCH  39  40
ATOM     40  O   UNL     1       7.564   3.434  27.511  0.00  0.00    -0.392 OA
ATOM     41  H   UNL     1       6.776   3.219  28.039  0.00  0.00    +0.210 HD
ENDBRANCH  39  40
ENDBRANCH  29  39
ENDBRANCH  26  27
ENDBRANCH   4  26
TORSDOF 12
ENDMDL
MODEL 8
REMARK VINA RESULT:      -7.5      1.535      3.291
REMARK  Name = 
REMARK  12 active torsions:
REMARK  status: ('A' for Active; 'I' for Inactive)
REMARK    1  A    between atoms: C_3  and  O_38
REMARK    2  A    between atoms: C_4  and  O_21
REMARK    3  A    between atoms: C_6  and  C_7
REMARK    4  A    between atoms: C_8  and  O_20
REMARK    5  A    between atoms: C_12  and  O_19
REMARK    6  A    between atoms: C_14  and  O_18
REMARK    7  A    between atoms: O_21  and  C_22
REMARK    8  A    between atoms: C_24  and  O_37
REMARK    9  A    between atoms: C_26  and  O_36
REMARK   10  A    between atoms: C_28  and  O_35
REMARK   11  A    between atoms: C_30  and  C_33
REMARK   12  A    between atoms: C_33  and  O_34
REMARK                            x       y       z     vdW  Elec       q    Type
REMARK                         _______ _______ _______ _____ _____    ______ ____
ROOT
ATOM      1  C   UNL     1       8.981  -1.514  22.173  0.00  0.00    +0.015 A 
ATOM      2  C   UNL     1       7.663  -1.409  22.651  0.00  0.00    +0.025 A 
ATOM      3  C   UNL     1       7.084  -0.132  22.601  0.00  0.00    +0.061 A 
ATOM      4  C   UNL     1       7.806   1.014  22.183  0.00  0.00    +0.166 A 
ATOM      5  C   UNL     1       9.129   0.884  21.793  0.00  0.00    +0.159 A 
ATOM      6  C   UNL     1       9.713  -0.384  21.772  0.00  0.00    +0.050 A 
ENDROOT
BRANCH   2   7
ATOM      7  C   UNL     1       6.926  -2.586  23.225  0.00  0.00    +0.181 A 
ATOM      8  O   UNL     1       7.309  -2.943  24.520  0.00  0.00    -0.451 OA
ATOM      9  C   UNL     1       6.737  -4.052  25.109  0.00  0.00    +0.147 A 
ATOM     10  C   UNL     1       5.714  -4.783  24.511  0.00  0.00    +0.109 A 
ATOM     11  C   UNL     1       5.147  -5.889  25.164  0.00  0.00    +0.135 A 
ATOM     12  C   UNL     1       5.609  -6.285  26.412  0.00  0.00    +0.091 A 
ATOM     13  C   UNL     1       6.641  -5.563  27.001  0.00  0.00    +0.124 A 
ATOM     14  C   UNL     1       5.269  -4.384  23.177  0.00  0.00    +0.238 A 
ATOM     15  O   UNL     1       4.338  -4.996  22.657  0.00  0.00    -0.283 OA
ATOM     16  C   UNL     1       7.204  -4.453  26.363  0.00  0.00    +0.092 A 
ATOM     17  C   UNL     1       5.996  -3.274  22.517  0.00  0.00    +0.208 A 
BRANCH  11  18
ATOM     18  O   UNL     1       4.139  -6.643  24.625  0.00  0.00    -0.506 OA
ATOM     19  H   UNL     1       4.065  -7.475  25.150  0.00  0.00    +0.292 HD
ENDBRANCH  11  18
BRANCH  13  20
ATOM     20  O   UNL     1       7.132  -5.923  28.221  0.00  0.00    -0.507 OA
ATOM     21  H   UNL     1       7.002  -6.882  28.347  0.00  0.00    +0.292 HD
ENDBRANCH  13  20
BRANCH  17  22
ATOM     22  O   UNL     1       5.671  -3.044  21.191  0.00  0.00    -0.501 OA
ATOM     23  H   UNL     1       6.326  -2.431  20.817  0.00  0.00    +0.292 HD
ENDBRANCH  17  22
ENDBRANCH   2   7
BRANCH   5  24
ATOM     24  O   UNL     1       9.880   1.983  21.492  0.00  0.00    -0.503 OA
ATOM     25  H   UNL     1       9.444   2.469  20.772  0.00  0.00    +0.292 HD
ENDBRANCH   5  24
BRANCH   4  26
ATOM     26  O   UNL     1       7.133   2.166  22.395  0.00  0.00    -0.457 OA
BRANCH  26  27
ATOM     27  C   UNL     1       7.389   3.167  23.374  0.00  0.00    +0.339 C 
ATOM     28  O   UNL     1       8.466   2.927  24.291  0.00  0.00    -0.331 OA
ATOM     29  C   UNL     1       8.219   3.559  25.576  0.00  0.00    +0.179 C 
ATOM     30  C   UNL     1       7.922   5.082  25.442  0.00  0.00    +0.177 C 
ATOM     31  C   UNL     1       6.970   5.423  24.273  0.00  0.00    +0.180 C 
ATOM     32  C   UNL     1       7.374   4.663  22.993  0.00  0.00    +0.214 C 
BRANCH  30  33
ATOM     33  O   UNL     1       7.385   5.615  26.660  0.00  0.00    -0.386 OA
ATOM     34  H   UNL     1       8.114   5.559  27.317  0.00  0.00    +0.210 HD
ENDBRANCH  30  33
BRANCH  31  35
ATOM     35  O   UNL     1       5.631   5.116  24.713  0.00  0.00    -0.386 OA
ATOM     36  H   UNL     1       5.506   5.450  25.619  0.00  0.00    +0.210 HD
ENDBRANCH  31  35
BRANCH  32  37
ATOM     37  O   UNL     1       8.653   5.170  22.590  0.00  0.00    -0.383 OA
ATOM     38  H   UNL     1       8.629   6.141  22.729  0.00  0.00    +0.210 HD
ENDBRANCH  32  37
BRANCH  29  39
ATOM     39  C   UNL     1       7.156   2.791  26.400  0.00  0.00    +0.190 C 
BRANCH  39  40
ATOM     40  O   UNL     1       7.489   2.764  27.787  0.00  0.00    -0.392 OA
ATOM     41  H   UNL     1       8.458   2.805  27.856  0.00  0.00    +0.210 HD
ENDBRANCH  39  40
ENDBRANCH  29  39
ENDBRANCH  26  27
ENDBRANCH   4  26
TORSDOF 12
ENDMDL
MODEL 9
REMARK VINA RESULT:      -7.5      1.996      9.199
REMARK  Name = 
REMARK  12 active torsions:
REMARK  status: ('A' for Active; 'I' for Inactive)
REMARK    1  A    between atoms: C_3  and  O_38
REMARK    2  A    between atoms: C_4  and  O_21
REMARK    3  A    between atoms: C_6  and  C_7
REMARK    4  A    between atoms: C_8  and  O_20
REMARK    5  A    between atoms: C_12  and  O_19
REMARK    6  A    between atoms: C_14  and  O_18
REMARK    7  A    between atoms: O_21  and  C_22
REMARK    8  A    between atoms: C_24  and  O_37
REMARK    9  A    between atoms: C_26  and  O_36
REMARK   10  A    between atoms: C_28  and  O_35
REMARK   11  A    between atoms: C_30  and  C_33
REMARK   12  A    between atoms: C_33  and  O_34
REMARK                            x       y       z     vdW  Elec       q    Type
REMARK                         _______ _______ _______ _____ _____    ______ ____
ROOT
ATOM      1  C   UNL     1       6.789  -3.726  21.913  0.00  0.00    +0.015 A 
ATOM      2  C   UNL     1       7.345  -3.218  23.100  0.00  0.00    +0.025 A 
ATOM      3  C   UNL     1       7.258  -4.044  24.231  0.00  0.00    +0.061 A 
ATOM      4  C   UNL     1       6.568  -5.282  24.217  0.00  0.00    +0.166 A 
ATOM      5  C   UNL     1       5.964  -5.714  23.047  0.00  0.00    +0.159 A 
ATOM      6  C   UNL     1       6.088  -4.943  21.889  0.00  0.00    +0.050 A 
ENDROOT
BRANCH   2   7
ATOM      7  C   UNL     1       7.962  -1.849  23.171  0.00  0.00    +0.181 A 
ATOM      8  O   UNL     1       7.098  -0.800  22.846  0.00  0.00    -0.451 OA
ATOM      9  C   UNL     1       7.590   0.490  22.817  0.00  0.00    +0.147 A 
ATOM     10  C   UNL     1       8.889   0.813  23.196  0.00  0.00    +0.109 A 
ATOM     11  C   UNL     1       9.332   2.146  23.174  0.00  0.00    +0.135 A 
ATOM     12  C   UNL     1       8.485   3.164  22.755  0.00  0.00    +0.091 A 
ATOM     13  C   UNL     1       7.192   2.837  22.363  0.00  0.00    +0.124 A 
ATOM     14  C   UNL     1       9.784  -0.274  23.589  0.00  0.00    +0.238 A 
ATOM     15  O   UNL     1      10.921   0.005  23.967  0.00  0.00    -0.283 OA
ATOM     16  C   UNL     1       6.739   1.513  22.393  0.00  0.00    +0.092 A 
ATOM     17  C   UNL     1       9.269  -1.658  23.479  0.00  0.00    +0.208 A 
BRANCH  11  18
ATOM     18  O   UNL     1      10.598   2.522  23.537  0.00  0.00    -0.506 OA
ATOM     19  H   UNL     1      10.776   3.410  23.146  0.00  0.00    +0.292 HD
ENDBRANCH  11  18
BRANCH  13  20
ATOM     20  O   UNL     1       6.331   3.804  21.936  0.00  0.00    -0.507 OA
ATOM     21  H   UNL     1       5.461   3.399  21.758  0.00  0.00    +0.292 HD
ENDBRANCH  13  20
BRANCH  17  22
ATOM     22  O   UNL     1      10.196  -2.665  23.683  0.00  0.00    -0.501 OA
ATOM     23  H   UNL     1      10.567  -2.919  22.821  0.00  0.00    +0.292 HD
ENDBRANCH  17  22
ENDBRANCH   2   7
BRANCH   5  24
ATOM     24  O   UNL     1       5.201  -6.845  23.031  0.00  0.00    -0.503 OA
ATOM     25  H   UNL     1       4.284  -6.604  23.249  0.00  0.00    +0.292 HD
ENDBRANCH   5  24
BRANCH   4  26
ATOM     26  O   UNL     1       6.433  -5.823  25.447  0.00  0.00    -0.457 OA
BRANCH  26  27
ATOM     27  C   UNL     1       5.231  -6.104  26.157  0.00  0.00    +0.339 C 
ATOM     28  O   UNL     1       4.388  -7.140  25.635  0.00  0.00    -0.331 OA
ATOM     29  C   UNL     1       2.989  -6.890  25.940  0.00  0.00    +0.179 C 
ATOM     30  C   UNL     1       2.742  -6.677  27.464  0.00  0.00    +0.177 C 
ATOM     31  C   UNL     1       3.803  -5.777  28.138  0.00  0.00    +0.180 C 
ATOM     32  C   UNL     1       5.226  -6.177  27.699  0.00  0.00    +0.214 C 
BRANCH  30  33
ATOM     33  O   UNL     1       1.438  -6.134  27.706  0.00  0.00    -0.386 OA
ATOM     34  H   UNL     1       1.415  -5.919  28.665  0.00  0.00    +0.210 HD
ENDBRANCH  30  33
BRANCH  31  35
ATOM     35  O   UNL     1       3.474  -4.412  27.809  0.00  0.00    -0.386 OA
ATOM     36  H   UNL     1       2.687  -4.402  27.234  0.00  0.00    +0.210 HD
ENDBRANCH  31  35
BRANCH  32  37
ATOM     37  O   UNL     1       5.472  -7.492  28.215  0.00  0.00    -0.383 OA
ATOM     38  H   UNL     1       4.760  -7.677  28.866  0.00  0.00    +0.210 HD
ENDBRANCH  32  37
BRANCH  29  39
ATOM     39  C   UNL     1       2.399  -5.766  25.054  0.00  0.00    +0.190 C 
BRANCH  39  40
ATOM     40  O   UNL     1       2.484  -6.093  23.668  0.00  0.00    -0.392 OA
ATOM     41  H   UNL     1       2.340  -7.052  23.585  0.00  0.00    +0.210 HD
ENDBRANCH  39  40
ENDBRANCH  29  39
ENDBRANCH  26  27
ENDBRANCH   4  26
TORSDOF 12
ENDMDL
