MODEL 1
REMARK VINA RESULT:      -7.5      0.000      0.000
REMARK  Name = 
REMARK  17 active torsions:
REMARK  status: ('A' for Active; 'I' for Inactive)
REMARK    1  A    between atoms: C_3  and  O_47
REMARK    2  A    between atoms: C_4  and  O_46
REMARK    3  A    between atoms: C_6  and  C_7
REMARK    4  A    between atoms: C_8  and  O_20
REMARK    5  A    between atoms: C_12  and  O_19
REMARK    6  A    between atoms: C_14  and  O_18
REMARK    7  A    between atoms: O_20  and  C_21
REMARK    8  A    between atoms: C_23  and  O_45
REMARK    9  A    between atoms: C_24  and  O_44
REMARK   10  A    between atoms: C_25  and  O_43
REMARK   11  A    between atoms: C_27  and  C_30
REMARK   12  A    between atoms: C_30  and  O_31
REMARK   13  A    between atoms: O_31  and  C_32
REMARK   14  A    between atoms: C_32  and  C_34
REMARK   15  A    between atoms: C_36  and  O_42
REMARK   16  A    between atoms: C_37  and  O_41
REMARK   17  A    between atoms: C_38  and  O_40
REMARK                            x       y       z     vdW  Elec       q    Type
REMARK                         _______ _______ _______ _____ _____    ______ ____
ROOT
ATOM      1  C   UNL     1       6.557   3.454  26.040  0.00  0.00    +0.340 C 
ATOM      2  O   UNL     1       6.815   2.767  27.265  0.00  0.00    -0.330 OA
ATOM      3  C   UNL     1       5.884   1.860  27.890  0.00  0.00    +0.191 C 
ATOM      4  C   UNL     1       4.447   1.792  27.302  0.00  0.00    +0.178 C 
ATOM      5  C   UNL     1       4.382   2.380  25.887  0.00  0.00    +0.180 C 
ATOM      6  C   UNL     1       5.065   3.769  25.943  0.00  0.00    +0.214 C 
ENDROOT
BRANCH   4   7
ATOM      7  O   UNL     1       3.837   0.504  27.368  0.00  0.00    -0.386 OA
ATOM      8  H   UNL     1       3.392   0.318  26.522  0.00  0.00    +0.210 HD
ENDBRANCH   4   7
BRANCH   5   9
ATOM      9  O   UNL     1       3.049   2.437  25.365  0.00  0.00    -0.386 OA
ATOM     10  H   UNL     1       2.494   2.912  25.996  0.00  0.00    +0.210 HD
ENDBRANCH   5   9
BRANCH   6  11
ATOM     11  O   UNL     1       4.788   4.583  24.799  0.00  0.00    -0.383 OA
ATOM     12  H   UNL     1       5.433   4.349  24.106  0.00  0.00    +0.210 HD
ENDBRANCH   6  11
BRANCH   1  13
ATOM     13  O   UNL     1       6.824   2.808  24.747  0.00  0.00    -0.453 OA
BRANCH  13  24
ATOM     14  C   UNL     1       8.791   2.036  23.521  0.00  0.00    +0.181 A 
ATOM     15  O   UNL     1      10.038   2.383  22.953  0.00  0.00    -0.451 OA
ATOM     16  C   UNL     1      10.617   3.571  23.291  0.00  0.00    +0.147 A 
ATOM     17  C   UNL     1       9.852   4.636  23.723  0.00  0.00    +0.109 A 
ATOM     18  C   UNL     1      10.438   5.856  24.045  0.00  0.00    +0.135 A 
ATOM     19  C   UNL     1      11.813   6.017  23.929  0.00  0.00    +0.091 A 
ATOM     20  C   UNL     1      12.578   4.943  23.474  0.00  0.00    +0.124 A 
ATOM     21  C   UNL     1       8.416   4.421  23.813  0.00  0.00    +0.238 A 
ATOM     22  O   UNL     1       7.682   5.398  23.790  0.00  0.00    -0.283 OA
ATOM     23  C   UNL     1      11.996   3.715  23.168  0.00  0.00    +0.092 A 
ATOM     24  C   UNL     1       7.957   3.013  23.999  0.00  0.00    +0.214 A 
BRANCH  14  26
ATOM     25  C   UNL     1       9.754  -0.399  23.594  0.00  0.00    +0.015 A 
ATOM     26  C   UNL     1       8.686   0.508  23.507  0.00  0.00    +0.025 A 
ATOM     27  C   UNL     1       7.403  -0.079  23.292  0.00  0.00    +0.060 A 
ATOM     28  C   UNL     1       7.238  -1.447  23.045  0.00  0.00    +0.159 A 
ATOM     29  C   UNL     1       8.325  -2.291  23.025  0.00  0.00    +0.158 A 
ATOM     30  C   UNL     1       9.581  -1.787  23.344  0.00  0.00    +0.050 A 
BRANCH  28  31
ATOM     31  O   UNL     1       5.983  -1.937  22.784  0.00  0.00    -0.503 OA
ATOM     32  H   UNL     1       5.580  -1.279  22.176  0.00  0.00    +0.292 HD
ENDBRANCH  28  31
BRANCH  29  33
ATOM     33  O   UNL     1       8.111  -3.597  22.668  0.00  0.00    -0.503 OA
ATOM     34  H   UNL     1       8.802  -3.860  22.035  0.00  0.00    +0.292 HD
ENDBRANCH  29  33
ENDBRANCH  14  26
BRANCH  20  35
ATOM     35  O   UNL     1      13.928   5.059  23.319  0.00  0.00    -0.507 OA
ATOM     36  H   UNL     1      14.330   4.178  23.387  0.00  0.00    +0.292 HD
ENDBRANCH  20  35
BRANCH  18  37
ATOM     37  O   UNL     1       9.715   6.927  24.498  0.00  0.00    -0.506 OA
ATOM     38  H   UNL     1      10.089   7.739  24.088  0.00  0.00    +0.292 HD
ENDBRANCH  18  37
ENDBRANCH  13  24
ENDBRANCH   1  13
BRANCH   3  39
ATOM     39  C   UNL     1       6.676   0.556  28.041  0.00  0.00    +0.266 C 
BRANCH  39  40
ATOM     40  O   UNL     1       6.805  -0.235  26.859  0.00  0.00    -0.458 OA
BRANCH  40  41
ATOM     41  C   UNL     1       7.852  -1.094  26.800  0.00  0.00    +0.340 C 
ATOM     42  O   UNL     1       9.035  -0.797  26.874  0.00  0.00    -0.245 OA
BRANCH  41  43
ATOM     43  C   UNL     1       7.347  -2.479  26.583  0.00  0.00    +0.066 A 
ATOM     44  C   UNL     1       5.981  -2.720  26.357  0.00  0.00    +0.064 A 
ATOM     45  C   UNL     1       5.536  -4.016  26.164  0.00  0.00    +0.163 A 
ATOM     46  C   UNL     1       6.428  -5.077  26.195  0.00  0.00    +0.201 A 
ATOM     47  C   UNL     1       7.781  -4.849  26.414  0.00  0.00    +0.163 A 
ATOM     48  C   UNL     1       8.259  -3.554  26.597  0.00  0.00    +0.064 A 
BRANCH  45  49
ATOM     49  O   UNL     1       4.207  -4.234  25.959  0.00  0.00    -0.503 OA
ATOM     50  H   UNL     1       3.799  -4.145  26.843  0.00  0.00    +0.292 HD
ENDBRANCH  45  49
BRANCH  46  51
ATOM     51  O   UNL     1       5.947  -6.346  26.022  0.00  0.00    -0.501 OA
ATOM     52  H   UNL     1       5.028  -6.216  25.708  0.00  0.00    +0.292 HD
ENDBRANCH  46  51
BRANCH  47  53
ATOM     53  O   UNL     1       8.604  -5.942  26.455  0.00  0.00    -0.503 OA
ATOM     54  H   UNL     1       8.301  -6.583  25.790  0.00  0.00    +0.292 HD
ENDBRANCH  47  53
ENDBRANCH  41  43
ENDBRANCH  40  41
ENDBRANCH  39  40
ENDBRANCH   3  39
TORSDOF 17
ENDMDL
MODEL 2
REMARK VINA RESULT:      -7.5      1.583      2.350
REMARK  Name = 
REMARK  17 active torsions:
REMARK  status: ('A' for Active; 'I' for Inactive)
REMARK    1  A    between atoms: C_3  and  O_47
REMARK    2  A    between atoms: C_4  and  O_46
REMARK    3  A    between atoms: C_6  and  C_7
REMARK    4  A    between atoms: C_8  and  O_20
REMARK    5  A    between atoms: C_12  and  O_19
REMARK    6  A    between atoms: C_14  and  O_18
REMARK    7  A    between atoms: O_20  and  C_21
REMARK    8  A    between atoms: C_23  and  O_45
REMARK    9  A    between atoms: C_24  and  O_44
REMARK   10  A    between atoms: C_25  and  O_43
REMARK   11  A    between atoms: C_27  and  C_30
REMARK   12  A    between atoms: C_30  and  O_31
REMARK   13  A    between atoms: O_31  and  C_32
REMARK   14  A    between atoms: C_32  and  C_34
REMARK   15  A    between atoms: C_36  and  O_42
REMARK   16  A    between atoms: C_37  and  O_41
REMARK   17  A    between atoms: C_38  and  O_40
REMARK                            x       y       z     vdW  Elec       q    Type
REMARK                         _______ _______ _______ _____ _____    ______ ____
ROOT
ATOM      1  C   UNL     1       6.734   2.237  26.225  0.00  0.00    +0.340 C 
ATOM      2  O   UNL     1       6.831   1.131  27.124  0.00  0.00    -0.330 OA
ATOM      3  C   UNL     1       5.725   0.268  27.458  0.00  0.00    +0.191 C 
ATOM      4  C   UNL     1       4.312   0.694  26.974  0.00  0.00    +0.178 C 
ATOM      5  C   UNL     1       4.385   1.737  25.851  0.00  0.00    +0.180 C 
ATOM      6  C   UNL     1       5.341   2.856  26.335  0.00  0.00    +0.214 C 
ENDROOT
BRANCH   4   7
ATOM      7  O   UNL     1       3.447  -0.389  26.633  0.00  0.00    -0.386 OA
ATOM      8  H   UNL     1       2.830  -0.098  25.939  0.00  0.00    +0.210 HD
ENDBRANCH   4   7
BRANCH   5   9
ATOM      9  O   UNL     1       3.099   2.234  25.464  0.00  0.00    -0.386 OA
ATOM     10  H   UNL     1       3.001   2.118  24.511  0.00  0.00    +0.210 HD
ENDBRANCH   5   9
BRANCH   6  11
ATOM     11  O   UNL     1       5.250   4.054  25.558  0.00  0.00    -0.383 OA
ATOM     12  H   UNL     1       4.968   3.802  24.659  0.00  0.00    +0.210 HD
ENDBRANCH   6  11
BRANCH   1  13
ATOM     13  O   UNL     1       6.875   2.041  24.775  0.00  0.00    -0.453 OA
BRANCH  13  24
ATOM     14  C   UNL     1       8.937   1.645  23.527  0.00  0.00    +0.181 A 
ATOM     15  O   UNL     1      10.110   2.211  22.977  0.00  0.00    -0.451 OA
ATOM     16  C   UNL     1      10.490   3.463  23.362  0.00  0.00    +0.147 A 
ATOM     17  C   UNL     1       9.564   4.373  23.834  0.00  0.00    +0.109 A 
ATOM     18  C   UNL     1       9.946   5.658  24.204  0.00  0.00    +0.135 A 
ATOM     19  C   UNL     1      11.277   6.044  24.100  0.00  0.00    +0.091 A 
ATOM     20  C   UNL     1      12.204   5.125  23.606  0.00  0.00    +0.124 A 
ATOM     21  C   UNL     1       8.182   3.925  23.910  0.00  0.00    +0.238 A 
ATOM     22  O   UNL     1       7.299   4.770  23.923  0.00  0.00    -0.283 OA
ATOM     23  C   UNL     1      11.827   3.833  23.250  0.00  0.00    +0.092 A 
ATOM     24  C   UNL     1       7.957   2.455  24.039  0.00  0.00    +0.214 A 
BRANCH  14  26
ATOM     25  C   UNL     1       9.194  -0.646  22.285  0.00  0.00    +0.015 A 
ATOM     26  C   UNL     1       9.080   0.122  23.454  0.00  0.00    +0.025 A 
ATOM     27  C   UNL     1       8.997  -0.624  24.668  0.00  0.00    +0.060 A 
ATOM     28  C   UNL     1       8.897  -2.020  24.684  0.00  0.00    +0.159 A 
ATOM     29  C   UNL     1       8.898  -2.734  23.508  0.00  0.00    +0.158 A 
ATOM     30  C   UNL     1       9.093  -2.063  22.305  0.00  0.00    +0.050 A 
BRANCH  28  31
ATOM     31  O   UNL     1       8.758  -2.671  25.883  0.00  0.00    -0.503 OA
ATOM     32  H   UNL     1       8.671  -3.620  25.643  0.00  0.00    +0.292 HD
ENDBRANCH  28  31
BRANCH  29  33
ATOM     33  O   UNL     1       8.684  -4.087  23.584  0.00  0.00    -0.503 OA
ATOM     34  H   UNL     1       7.818  -4.239  24.001  0.00  0.00    +0.292 HD
ENDBRANCH  29  33
ENDBRANCH  14  26
BRANCH  20  35
ATOM     35  O   UNL     1      13.517   5.464  23.460  0.00  0.00    -0.507 OA
ATOM     36  H   UNL     1      13.885   5.678  24.333  0.00  0.00    +0.292 HD
ENDBRANCH  20  35
BRANCH  18  37
ATOM     37  O   UNL     1       9.062   6.579  24.696  0.00  0.00    -0.506 OA
ATOM     38  H   UNL     1       8.170   6.361  24.343  0.00  0.00    +0.292 HD
ENDBRANCH  18  37
ENDBRANCH  13  24
ENDBRANCH   1  13
BRANCH   3  39
ATOM     39  C   UNL     1       6.228  -1.137  27.104  0.00  0.00    +0.266 C 
BRANCH  39  40
ATOM     40  O   UNL     1       5.623  -1.747  25.964  0.00  0.00    -0.458 OA
BRANCH  40  41
ATOM     41  C   UNL     1       4.969  -2.918  26.161  0.00  0.00    +0.340 C 
ATOM     42  O   UNL     1       4.416  -3.272  27.191  0.00  0.00    -0.245 OA
BRANCH  41  43
ATOM     43  C   UNL     1       5.058  -3.750  24.929  0.00  0.00    +0.066 A 
ATOM     44  C   UNL     1       5.290  -3.158  23.675  0.00  0.00    +0.064 A 
ATOM     45  C   UNL     1       5.362  -3.952  22.544  0.00  0.00    +0.163 A 
ATOM     46  C   UNL     1       5.206  -5.327  22.639  0.00  0.00    +0.201 A 
ATOM     47  C   UNL     1       4.980  -5.923  23.875  0.00  0.00    +0.163 A 
ATOM     48  C   UNL     1       4.917  -5.150  25.031  0.00  0.00    +0.064 A 
BRANCH  45  49
ATOM     49  O   UNL     1       5.574  -3.362  21.335  0.00  0.00    -0.503 OA
ATOM     50  H   UNL     1       6.534  -3.452  21.177  0.00  0.00    +0.292 HD
ENDBRANCH  45  49
BRANCH  46  51
ATOM     51  O   UNL     1       5.262  -6.076  21.496  0.00  0.00    -0.501 OA
ATOM     52  H   UNL     1       5.324  -5.415  20.776  0.00  0.00    +0.292 HD
ENDBRANCH  46  51
BRANCH  47  53
ATOM     53  O   UNL     1       4.811  -7.281  23.896  0.00  0.00    -0.503 OA
ATOM     54  H   UNL     1       5.601  -7.697  23.511  0.00  0.00    +0.292 HD
ENDBRANCH  47  53
ENDBRANCH  41  43
ENDBRANCH  40  41
ENDBRANCH  39  40
ENDBRANCH   3  39
TORSDOF 17
ENDMDL
MODEL 3
REMARK VINA RESULT:      -7.3      3.115      6.835
REMARK  Name = 
REMARK  17 active torsions:
REMARK  status: ('A' for Active; 'I' for Inactive)
REMARK    1  A    between atoms: C_3  and  O_47
REMARK    2  A    between atoms: C_4  and  O_46
REMARK    3  A    between atoms: C_6  and  C_7
REMARK    4  A    between atoms: C_8  and  O_20
REMARK    5  A    between atoms: C_12  and  O_19
REMARK    6  A    between atoms: C_14  and  O_18
REMARK    7  A    between atoms: O_20  and  C_21
REMARK    8  A    between atoms: C_23  and  O_45
REMARK    9  A    between atoms: C_24  and  O_44
REMARK   10  A    between atoms: C_25  and  O_43
REMARK   11  A    between atoms: C_27  and  C_30
REMARK   12  A    between atoms: C_30  and  O_31
REMARK   13  A    between atoms: O_31  and  C_32
REMARK   14  A    between atoms: C_32  and  C_34
REMARK   15  A    between atoms: C_36  and  O_42
REMARK   16  A    between atoms: C_37  and  O_41
REMARK   17  A    between atoms: C_38  and  O_40
REMARK                            x       y       z     vdW  Elec       q    Type
REMARK                         _______ _______ _______ _____ _____    ______ ____
ROOT
ATOM      1  C   UNL     1       4.922  -4.013  28.827  0.00  0.00    +0.340 C 
ATOM      2  O   UNL     1       6.105  -4.537  28.223  0.00  0.00    -0.330 OA
ATOM      3  C   UNL     1       6.171  -5.817  27.561  0.00  0.00    +0.191 C 
ATOM      4  C   UNL     1       4.942  -6.758  27.698  0.00  0.00    +0.178 C 
ATOM      5  C   UNL     1       3.690  -5.997  28.154  0.00  0.00    +0.180 C 
ATOM      6  C   UNL     1       4.094  -5.164  29.396  0.00  0.00    +0.214 C 
ENDROOT
BRANCH   4   7
ATOM      7  O   UNL     1       4.681  -7.568  26.553  0.00  0.00    -0.386 OA
ATOM      8  H   UNL     1       5.216  -7.247  25.806  0.00  0.00    +0.210 HD
ENDBRANCH   4   7
BRANCH   5   9
ATOM      9  O   UNL     1       2.571  -6.857  28.400  0.00  0.00    -0.386 OA
ATOM     10  H   UNL     1       2.904  -7.710  28.706  0.00  0.00    +0.210 HD
ENDBRANCH   5   9
BRANCH   6  11
ATOM     11  O   UNL     1       2.972  -4.671  30.136  0.00  0.00    -0.383 OA
ATOM     12  H   UNL     1       2.241  -4.532  29.506  0.00  0.00    +0.210 HD
ENDBRANCH   6  11
BRANCH   1  13
ATOM     13  O   UNL     1       3.931  -3.282  28.025  0.00  0.00    -0.453 OA
BRANCH  13  24
ATOM     14  C   UNL     1       4.445  -1.970  26.030  0.00  0.00    +0.181 A 
ATOM     15  O   UNL     1       4.904  -0.735  25.515  0.00  0.00    -0.451 OA
ATOM     16  C   UNL     1       5.527   0.144  26.351  0.00  0.00    +0.147 A 
ATOM     17  C   UNL     1       5.281   0.129  27.710  0.00  0.00    +0.109 A 
ATOM     18  C   UNL     1       5.897   1.042  28.560  0.00  0.00    +0.135 A 
ATOM     19  C   UNL     1       6.773   1.989  28.045  0.00  0.00    +0.091 A 
ATOM     20  C   UNL     1       7.003   2.010  26.669  0.00  0.00    +0.124 A 
ATOM     21  C   UNL     1       4.345  -0.871  28.197  0.00  0.00    +0.238 A 
ATOM     22  O   UNL     1       3.797  -0.677  29.272  0.00  0.00    -0.283 OA
ATOM     23  C   UNL     1       6.402   1.087  25.817  0.00  0.00    +0.092 A 
ATOM     24  C   UNL     1       4.184  -2.103  27.368  0.00  0.00    +0.214 A 
BRANCH  14  26
ATOM     25  C   UNL     1       3.507  -4.046  24.738  0.00  0.00    +0.015 A 
ATOM     26  C   UNL     1       4.391  -2.964  24.866  0.00  0.00    +0.025 A 
ATOM     27  C   UNL     1       5.384  -2.864  23.845  0.00  0.00    +0.060 A 
ATOM     28  C   UNL     1       5.553  -3.850  22.866  0.00  0.00    +0.159 A 
ATOM     29  C   UNL     1       4.736  -4.957  22.840  0.00  0.00    +0.158 A 
ATOM     30  C   UNL     1       3.681  -5.044  23.742  0.00  0.00    +0.050 A 
BRANCH  28  31
ATOM     31  O   UNL     1       6.567  -3.723  21.951  0.00  0.00    -0.503 OA
ATOM     32  H   UNL     1       6.689  -2.754  21.847  0.00  0.00    +0.292 HD
ENDBRANCH  28  31
BRANCH  29  33
ATOM     33  O   UNL     1       5.023  -5.939  21.927  0.00  0.00    -0.503 OA
ATOM     34  H   UNL     1       5.435  -6.685  22.397  0.00  0.00    +0.292 HD
ENDBRANCH  29  33
ENDBRANCH  14  26
BRANCH  20  35
ATOM     35  O   UNL     1       7.834   2.937  26.111  0.00  0.00    -0.507 OA
ATOM     36  H   UNL     1       7.406   3.310  25.324  0.00  0.00    +0.292 HD
ENDBRANCH  20  35
BRANCH  18  37
ATOM     37  O   UNL     1       5.695   1.044  29.913  0.00  0.00    -0.506 OA
ATOM     38  H   UNL     1       6.372   1.630  30.321  0.00  0.00    +0.292 HD
ENDBRANCH  18  37
ENDBRANCH  13  24
ENDBRANCH   1  13
BRANCH   3  39
ATOM     39  C   UNL     1       6.686  -5.485  26.155  0.00  0.00    +0.266 C 
BRANCH  39  40
ATOM     40  O   UNL     1       8.047  -5.062  26.074  0.00  0.00    -0.458 OA
BRANCH  40  41
ATOM     41  C   UNL     1       8.480  -4.593  24.878  0.00  0.00    +0.340 C 
ATOM     42  O   UNL     1       8.569  -5.232  23.841  0.00  0.00    -0.245 OA
BRANCH  41  43
ATOM     43  C   UNL     1       8.882  -3.166  25.020  0.00  0.00    +0.066 A 
ATOM     44  C   UNL     1       9.412  -2.455  23.929  0.00  0.00    +0.064 A 
ATOM     45  C   UNL     1       9.784  -1.131  24.088  0.00  0.00    +0.163 A 
ATOM     46  C   UNL     1       9.639  -0.503  25.315  0.00  0.00    +0.201 A 
ATOM     47  C   UNL     1       9.113  -1.196  26.399  0.00  0.00    +0.163 A 
ATOM     48  C   UNL     1       8.717  -2.524  26.265  0.00  0.00    +0.064 A 
BRANCH  45  49
ATOM     49  O   UNL     1      10.307  -0.460  23.024  0.00  0.00    -0.503 OA
ATOM     50  H   UNL     1       9.534  -0.081  22.562  0.00  0.00    +0.292 HD
ENDBRANCH  45  49
BRANCH  46  51
ATOM     51  O   UNL     1      10.038   0.800  25.439  0.00  0.00    -0.501 OA
ATOM     52  H   UNL     1      10.860   0.852  24.908  0.00  0.00    +0.292 HD
ENDBRANCH  46  51
BRANCH  47  53
ATOM     53  O   UNL     1       9.018  -0.524  27.588  0.00  0.00    -0.503 OA
ATOM     54  H   UNL     1       8.122  -0.647  27.943  0.00  0.00    +0.292 HD
ENDBRANCH  47  53
ENDBRANCH  41  43
ENDBRANCH  40  41
ENDBRANCH  39  40
ENDBRANCH   3  39
TORSDOF 17
ENDMDL
MODEL 4
REMARK VINA RESULT:      -7.3      1.927      5.360
REMARK  Name = 
REMARK  17 active torsions:
REMARK  status: ('A' for Active; 'I' for Inactive)
REMARK    1  A    between atoms: C_3  and  O_47
REMARK    2  A    between atoms: C_4  and  O_46
REMARK    3  A    between atoms: C_6  and  C_7
REMARK    4  A    between atoms: C_8  and  O_20
REMARK    5  A    between atoms: C_12  and  O_19
REMARK    6  A    between atoms: C_14  and  O_18
REMARK    7  A    between atoms: O_20  and  C_21
REMARK    8  A    between atoms: C_23  and  O_45
REMARK    9  A    between atoms: C_24  and  O_44
REMARK   10  A    between atoms: C_25  and  O_43
REMARK   11  A    between atoms: C_27  and  C_30
REMARK   12  A    between atoms: C_30  and  O_31
REMARK   13  A    between atoms: O_31  and  C_32
REMARK   14  A    between atoms: C_32  and  C_34
REMARK   15  A    between atoms: C_36  and  O_42
REMARK   16  A    between atoms: C_37  and  O_41
REMARK   17  A    between atoms: C_38  and  O_40
REMARK                            x       y       z     vdW  Elec       q    Type
REMARK                         _______ _______ _______ _____ _____    ______ ____
ROOT
ATOM      1  C   UNL     1       8.264  -1.007  23.248  0.00  0.00    +0.340 C 
ATOM      2  O   UNL     1       7.086  -1.527  22.629  0.00  0.00    -0.330 OA
ATOM      3  C   UNL     1       6.729  -2.924  22.625  0.00  0.00    +0.191 C 
ATOM      4  C   UNL     1       7.790  -3.935  23.141  0.00  0.00    +0.178 C 
ATOM      5  C   UNL     1       8.879  -3.243  23.973  0.00  0.00    +0.180 C 
ATOM      6  C   UNL     1       9.386  -2.038  23.142  0.00  0.00    +0.214 C 
ENDROOT
BRANCH   4   7
ATOM      7  O   UNL     1       7.252  -5.071  23.816  0.00  0.00    -0.386 OA
ATOM      8  H   UNL     1       7.972  -5.544  24.269  0.00  0.00    +0.210 HD
ENDBRANCH   4   7
BRANCH   5   9
ATOM      9  O   UNL     1       9.932  -4.131  24.365  0.00  0.00    -0.386 OA
ATOM     10  H   UNL     1       9.539  -4.971  24.634  0.00  0.00    +0.210 HD
ENDBRANCH   5   9
BRANCH   6  11
ATOM     11  O   UNL     1      10.622  -1.500  23.621  0.00  0.00    -0.383 OA
ATOM     12  H   UNL     1      11.269  -2.229  23.653  0.00  0.00    +0.210 HD
ENDBRANCH   6  11
BRANCH   1  13
ATOM     13  O   UNL     1       8.275  -0.677  24.680  0.00  0.00    -0.453 OA
BRANCH  13  24
ATOM     14  C   UNL     1       7.346   1.170  25.981  0.00  0.00    +0.181 A 
ATOM     15  O   UNL     1       7.379   2.558  26.249  0.00  0.00    -0.451 OA
ATOM     16  C   UNL     1       8.025   3.389  25.382  0.00  0.00    +0.147 A 
ATOM     17  C   UNL     1       9.045   2.922  24.578  0.00  0.00    +0.109 A 
ATOM     18  C   UNL     1       9.722   3.774  23.710  0.00  0.00    +0.135 A 
ATOM     19  C   UNL     1       9.375   5.118  23.647  0.00  0.00    +0.091 A 
ATOM     20  C   UNL     1       8.355   5.586  24.476  0.00  0.00    +0.124 A 
ATOM     21  C   UNL     1       9.380   1.511  24.692  0.00  0.00    +0.238 A 
ATOM     22  O   UNL     1      10.490   1.148  24.332  0.00  0.00    -0.283 OA
ATOM     23  C   UNL     1       7.665   4.733  25.332  0.00  0.00    +0.092 A 
ATOM     24  C   UNL     1       8.302   0.601  25.180  0.00  0.00    +0.214 A 
BRANCH  14  26
ATOM     25  C   UNL     1       6.068  -0.554  27.482  0.00  0.00    +0.015 A 
ATOM     26  C   UNL     1       6.109   0.594  26.675  0.00  0.00    +0.025 A 
ATOM     27  C   UNL     1       4.844   1.205  26.420  0.00  0.00    +0.060 A 
ATOM     28  C   UNL     1       3.637   0.626  26.827  0.00  0.00    +0.159 A 
ATOM     29  C   UNL     1       3.630  -0.562  27.521  0.00  0.00    +0.158 A 
ATOM     30  C   UNL     1       4.840  -1.138  27.894  0.00  0.00    +0.050 A 
BRANCH  28  31
ATOM     31  O   UNL     1       2.453   1.234  26.495  0.00  0.00    -0.503 OA
ATOM     32  H   UNL     1       2.256   0.918  25.586  0.00  0.00    +0.292 HD
ENDBRANCH  28  31
BRANCH  29  33
ATOM     33  O   UNL     1       2.414  -1.135  27.793  0.00  0.00    -0.503 OA
ATOM     34  H   UNL     1       1.716  -0.490  27.582  0.00  0.00    +0.292 HD
ENDBRANCH  29  33
ENDBRANCH  14  26
BRANCH  20  35
ATOM     35  O   UNL     1       7.995   6.902  24.469  0.00  0.00    -0.507 OA
ATOM     36  H   UNL     1       7.088   6.982  24.804  0.00  0.00    +0.292 HD
ENDBRANCH  20  35
BRANCH  18  37
ATOM     37  O   UNL     1      10.723   3.343  22.883  0.00  0.00    -0.506 OA
ATOM     38  H   UNL     1      10.355   3.271  21.973  0.00  0.00    +0.292 HD
ENDBRANCH  18  37
ENDBRANCH  13  24
ENDBRANCH   1  13
BRANCH   3  39
ATOM     39  C   UNL     1       5.327  -2.954  23.244  0.00  0.00    +0.266 C 
BRANCH  39  40
ATOM     40  O   UNL     1       5.272  -2.878  24.669  0.00  0.00    -0.458 OA
BRANCH  40  41
ATOM     41  C   UNL     1       4.163  -3.367  25.274  0.00  0.00    +0.340 C 
ATOM     42  O   UNL     1       3.026  -2.937  25.155  0.00  0.00    -0.245 OA
BRANCH  41  43
ATOM     43  C   UNL     1       4.540  -4.505  26.158  0.00  0.00    +0.066 A 
ATOM     44  C   UNL     1       5.866  -4.668  26.597  0.00  0.00    +0.064 A 
ATOM     45  C   UNL     1       6.193  -5.736  27.413  0.00  0.00    +0.163 A 
ATOM     46  C   UNL     1       5.222  -6.648  27.800  0.00  0.00    +0.201 A 
ATOM     47  C   UNL     1       3.907  -6.493  27.376  0.00  0.00    +0.163 A 
ATOM     48  C   UNL     1       3.547  -5.420  26.565  0.00  0.00    +0.064 A 
BRANCH  45  49
ATOM     49  O   UNL     1       7.485  -5.887  27.819  0.00  0.00    -0.503 OA
ATOM     50  H   UNL     1       7.468  -5.704  28.779  0.00  0.00    +0.292 HD
ENDBRANCH  45  49
BRANCH  46  51
ATOM     51  O   UNL     1       5.587  -7.703  28.590  0.00  0.00    -0.501 OA
ATOM     52  H   UNL     1       4.737  -8.073  28.907  0.00  0.00    +0.292 HD
ENDBRANCH  46  51
BRANCH  47  53
ATOM     53  O   UNL     1       3.003  -7.441  27.774  0.00  0.00    -0.503 OA
ATOM     54  H   UNL     1       3.259  -7.761  28.656  0.00  0.00    +0.292 HD
ENDBRANCH  47  53
ENDBRANCH  41  43
ENDBRANCH  40  41
ENDBRANCH  39  40
ENDBRANCH   3  39
TORSDOF 17
ENDMDL
MODEL 5
REMARK VINA RESULT:      -7.3      1.888      8.303
REMARK  Name = 
REMARK  17 active torsions:
REMARK  status: ('A' for Active; 'I' for Inactive)
REMARK    1  A    between atoms: C_3  and  O_47
REMARK    2  A    between atoms: C_4  and  O_46
REMARK    3  A    between atoms: C_6  and  C_7
REMARK    4  A    between atoms: C_8  and  O_20
REMARK    5  A    between atoms: C_12  and  O_19
REMARK    6  A    between atoms: C_14  and  O_18
REMARK    7  A    between atoms: O_20  and  C_21
REMARK    8  A    between atoms: C_23  and  O_45
REMARK    9  A    between atoms: C_24  and  O_44
REMARK   10  A    between atoms: C_25  and  O_43
REMARK   11  A    between atoms: C_27  and  C_30
REMARK   12  A    between atoms: C_30  and  O_31
REMARK   13  A    between atoms: O_31  and  C_32
REMARK   14  A    between atoms: C_32  and  C_34
REMARK   15  A    between atoms: C_36  and  O_42
REMARK   16  A    between atoms: C_37  and  O_41
REMARK   17  A    between atoms: C_38  and  O_40
REMARK                            x       y       z     vdW  Elec       q    Type
REMARK                         _______ _______ _______ _____ _____    ______ ____
ROOT
ATOM      1  C   UNL     1       5.886  -0.046  26.060  0.00  0.00    +0.340 C 
ATOM      2  O   UNL     1       6.036   1.169  25.324  0.00  0.00    -0.330 OA
ATOM      3  C   UNL     1       6.417   2.427  25.918  0.00  0.00    +0.191 C 
ATOM      4  C   UNL     1       6.463   2.502  27.470  0.00  0.00    +0.178 C 
ATOM      5  C   UNL     1       6.514   1.106  28.106  0.00  0.00    +0.180 C 
ATOM      6  C   UNL     1       5.375   0.274  27.464  0.00  0.00    +0.214 C 
ENDROOT
BRANCH   4   7
ATOM      7  O   UNL     1       7.473   3.359  27.996  0.00  0.00    -0.386 OA
ATOM      8  H   UNL     1       7.053   4.069  28.512  0.00  0.00    +0.210 HD
ENDBRANCH   4   7
BRANCH   5   9
ATOM      9  O   UNL     1       6.440   1.140  29.536  0.00  0.00    -0.386 OA
ATOM     10  H   UNL     1       7.338   1.166  29.887  0.00  0.00    +0.210 HD
ENDBRANCH   5   9
BRANCH   6  11
ATOM     11  O   UNL     1       5.075  -0.925  28.185  0.00  0.00    -0.383 OA
ATOM     12  H   UNL     1       5.874  -1.483  28.175  0.00  0.00    +0.210 HD
ENDBRANCH   6  11
BRANCH   1  13
ATOM     13  O   UNL     1       7.047  -0.903  26.337  0.00  0.00    -0.453 OA
BRANCH  13  24
ATOM     14  C   UNL     1       8.187  -1.954  24.449  0.00  0.00    +0.181 A 
ATOM     15  O   UNL     1       8.306  -3.104  23.635  0.00  0.00    -0.451 OA
ATOM     16  C   UNL     1       7.328  -4.054  23.676  0.00  0.00    +0.147 A 
ATOM     17  C   UNL     1       6.533  -4.206  24.795  0.00  0.00    +0.109 A 
ATOM     18  C   UNL     1       5.551  -5.191  24.848  0.00  0.00    +0.135 A 
ATOM     19  C   UNL     1       5.363  -6.042  23.766  0.00  0.00    +0.091 A 
ATOM     20  C   UNL     1       6.181  -5.894  22.646  0.00  0.00    +0.124 A 
ATOM     21  C   UNL     1       6.780  -3.301  25.906  0.00  0.00    +0.238 A 
ATOM     22  O   UNL     1       6.411  -3.639  27.022  0.00  0.00    -0.283 OA
ATOM     23  C   UNL     1       7.153  -4.898  22.583  0.00  0.00    +0.092 A 
ATOM     24  C   UNL     1       7.408  -1.988  25.577  0.00  0.00    +0.214 A 
BRANCH  14  26
ATOM     25  C   UNL     1      10.063  -0.130  24.359  0.00  0.00    +0.015 A 
ATOM     26  C   UNL     1       8.992  -0.833  23.787  0.00  0.00    +0.025 A 
ATOM     27  C   UNL     1       8.577  -0.371  22.501  0.00  0.00    +0.060 A 
ATOM     28  C   UNL     1       9.106   0.784  21.914  0.00  0.00    +0.159 A 
ATOM     29  C   UNL     1      10.078   1.514  22.559  0.00  0.00    +0.158 A 
ATOM     30  C   UNL     1      10.598   1.042  23.760  0.00  0.00    +0.050 A 
BRANCH  28  31
ATOM     31  O   UNL     1       8.619   1.207  20.703  0.00  0.00    -0.503 OA
ATOM     32  H   UNL     1       8.327   2.132  20.861  0.00  0.00    +0.292 HD
ENDBRANCH  28  31
BRANCH  29  33
ATOM     33  O   UNL     1      10.474   2.694  21.985  0.00  0.00    -0.503 OA
ATOM     34  H   UNL     1      11.349   2.562  21.579  0.00  0.00    +0.292 HD
ENDBRANCH  29  33
ENDBRANCH  14  26
BRANCH  20  35
ATOM     35  O   UNL     1       6.052  -6.720  21.569  0.00  0.00    -0.507 OA
ATOM     36  H   UNL     1       5.619  -7.541  21.853  0.00  0.00    +0.292 HD
ENDBRANCH  20  35
BRANCH  18  37
ATOM     37  O   UNL     1       4.730  -5.358  25.930  0.00  0.00    -0.506 OA
ATOM     38  H   UNL     1       5.296  -5.441  26.730  0.00  0.00    +0.292 HD
ENDBRANCH  18  37
ENDBRANCH  13  24
ENDBRANCH   1  13
BRANCH   3  39
ATOM     39  C   UNL     1       7.660   2.852  25.128  0.00  0.00    +0.266 C 
BRANCH  39  40
ATOM     40  O   UNL     1       7.427   3.724  24.021  0.00  0.00    -0.458 OA
BRANCH  40  41
ATOM     41  C   UNL     1       7.422   5.056  24.271  0.00  0.00    +0.340 C 
ATOM     42  O   UNL     1       6.441   5.784  24.287  0.00  0.00    -0.245 OA
BRANCH  41  43
ATOM     43  C   UNL     1       8.819   5.527  24.487  0.00  0.00    +0.066 A 
ATOM     44  C   UNL     1       9.790   5.386  23.481  0.00  0.00    +0.064 A 
ATOM     45  C   UNL     1      11.083   5.825  23.708  0.00  0.00    +0.163 A 
ATOM     46  C   UNL     1      11.426   6.403  24.921  0.00  0.00    +0.201 A 
ATOM     47  C   UNL     1      10.471   6.550  25.921  0.00  0.00    +0.163 A 
ATOM     48  C   UNL     1       9.160   6.130  25.715  0.00  0.00    +0.064 A 
BRANCH  45  49
ATOM     49  O   UNL     1      12.015   5.670  22.727  0.00  0.00    -0.503 OA
ATOM     50  H   UNL     1      12.182   6.573  22.394  0.00  0.00    +0.292 HD
ENDBRANCH  45  49
BRANCH  46  51
ATOM     51  O   UNL     1      12.718   6.806  25.116  0.00  0.00    -0.501 OA
ATOM     52  H   UNL     1      13.248   5.992  24.981  0.00  0.00    +0.292 HD
ENDBRANCH  46  51
BRANCH  47  53
ATOM     53  O   UNL     1      10.882   7.106  27.103  0.00  0.00    -0.503 OA
ATOM     54  H   UNL     1      11.033   8.056  26.962  0.00  0.00    +0.292 HD
ENDBRANCH  47  53
ENDBRANCH  41  43
ENDBRANCH  40  41
ENDBRANCH  39  40
ENDBRANCH   3  39
TORSDOF 17
ENDMDL
MODEL 6
REMARK VINA RESULT:      -7.1      1.362      2.042
REMARK  Name = 
REMARK  17 active torsions:
REMARK  status: ('A' for Active; 'I' for Inactive)
REMARK    1  A    between atoms: C_3  and  O_47
REMARK    2  A    between atoms: C_4  and  O_46
REMARK    3  A    between atoms: C_6  and  C_7
REMARK    4  A    between atoms: C_8  and  O_20
REMARK    5  A    between atoms: C_12  and  O_19
REMARK    6  A    between atoms: C_14  and  O_18
REMARK    7  A    between atoms: O_20  and  C_21
REMARK    8  A    between atoms: C_23  and  O_45
REMARK    9  A    between atoms: C_24  and  O_44
REMARK   10  A    between atoms: C_25  and  O_43
REMARK   11  A    between atoms: C_27  and  C_30
REMARK   12  A    between atoms: C_30  and  O_31
REMARK   13  A    between atoms: O_31  and  C_32
REMARK   14  A    between atoms: C_32  and  C_34
REMARK   15  A    between atoms: C_36  and  O_42
REMARK   16  A    between atoms: C_37  and  O_41
REMARK   17  A    between atoms: C_38  and  O_40
REMARK                            x       y       z     vdW  Elec       q    Type
REMARK                         _______ _______ _______ _____ _____    ______ ____
ROOT
ATOM      1  C   UNL     1       7.559   2.196  26.590  0.00  0.00    +0.340 C 
ATOM      2  O   UNL     1       7.122   0.852  26.800  0.00  0.00    -0.330 OA
ATOM      3  C   UNL     1       5.792   0.497  27.231  0.00  0.00    +0.191 C 
ATOM      4  C   UNL     1       4.856   1.650  27.689  0.00  0.00    +0.178 C 
ATOM      5  C   UNL     1       5.354   3.016  27.198  0.00  0.00    +0.180 C 
ATOM      6  C   UNL     1       6.851   3.117  27.582  0.00  0.00    +0.214 C 
ENDROOT
BRANCH   4   7
ATOM      7  O   UNL     1       3.476   1.452  27.389  0.00  0.00    -0.386 OA
ATOM      8  H   UNL     1       3.362   0.583  26.965  0.00  0.00    +0.210 HD
ENDBRANCH   4   7
BRANCH   5   9
ATOM      9  O   UNL     1       4.576   4.109  27.702  0.00  0.00    -0.386 OA
ATOM     10  H   UNL     1       5.064   4.927  27.547  0.00  0.00    +0.210 HD
ENDBRANCH   5   9
BRANCH   6  11
ATOM     11  O   UNL     1       7.368   4.449  27.502  0.00  0.00    -0.383 OA
ATOM     12  H   UNL     1       8.320   4.410  27.712  0.00  0.00    +0.210 HD
ENDBRANCH   6  11
BRANCH   1  13
ATOM     13  O   UNL     1       7.317   2.872  25.307  0.00  0.00    -0.453 OA
BRANCH  13  24
ATOM     14  C   UNL     1       9.004   2.364  23.616  0.00  0.00    +0.181 A 
ATOM     15  O   UNL     1      10.140   2.820  22.908  0.00  0.00    -0.451 OA
ATOM     16  C   UNL     1      10.809   3.919  23.360  0.00  0.00    +0.147 A 
ATOM     17  C   UNL     1      10.170   4.875  24.125  0.00  0.00    +0.109 A 
ATOM     18  C   UNL     1      10.845   6.009  24.566  0.00  0.00    +0.135 A 
ATOM     19  C   UNL     1      12.181   6.194  24.234  0.00  0.00    +0.091 A 
ATOM     20  C   UNL     1      12.816   5.233  23.446  0.00  0.00    +0.124 A 
ATOM     21  C   UNL     1       8.768   4.643  24.431  0.00  0.00    +0.238 A 
ATOM     22  O   UNL     1       8.074   5.602  24.735  0.00  0.00    -0.283 OA
ATOM     23  C   UNL     1      12.148   4.089  23.018  0.00  0.00    +0.092 A 
ATOM     24  C   UNL     1       8.303   3.224  24.419  0.00  0.00    +0.214 A 
BRANCH  14  26
ATOM     25  C   UNL     1       9.882  -0.035  23.039  0.00  0.00    +0.015 A 
ATOM     26  C   UNL     1       8.847   0.868  23.324  0.00  0.00    +0.025 A 
ATOM     27  C   UNL     1       7.527   0.333  23.231  0.00  0.00    +0.060 A 
ATOM     28  C   UNL     1       7.275  -0.959  22.757  0.00  0.00    +0.159 A 
ATOM     29  C   UNL     1       8.313  -1.780  22.378  0.00  0.00    +0.158 A 
ATOM     30  C   UNL     1       9.622  -1.347  22.558  0.00  0.00    +0.050 A 
BRANCH  28  31
ATOM     31  O   UNL     1       5.978  -1.391  22.634  0.00  0.00    -0.503 OA
ATOM     32  H   UNL     1       5.892  -1.658  21.693  0.00  0.00    +0.292 HD
ENDBRANCH  28  31
BRANCH  29  33
ATOM     33  O   UNL     1       7.996  -2.990  21.817  0.00  0.00    -0.503 OA
ATOM     34  H   UNL     1       8.544  -3.677  22.235  0.00  0.00    +0.292 HD
ENDBRANCH  29  33
ENDBRANCH  14  26
BRANCH  20  35
ATOM     35  O   UNL     1      14.119   5.382  23.073  0.00  0.00    -0.507 OA
ATOM     36  H   UNL     1      14.259   6.296  22.776  0.00  0.00    +0.292 HD
ENDBRANCH  20  35
BRANCH  18  37
ATOM     37  O   UNL     1      10.252   6.967  25.343  0.00  0.00    -0.506 OA
ATOM     38  H   UNL     1      10.415   7.841  24.923  0.00  0.00    +0.292 HD
ENDBRANCH  18  37
ENDBRANCH  13  24
ENDBRANCH   1  13
BRANCH   3  39
ATOM     39  C   UNL     1       5.291  -0.465  26.147  0.00  0.00    +0.266 C 
BRANCH  39  40
ATOM     40  O   UNL     1       5.309  -1.851  26.489  0.00  0.00    -0.458 OA
BRANCH  40  41
ATOM     41  C   UNL     1       5.077  -2.739  25.491  0.00  0.00    +0.340 C 
ATOM     42  O   UNL     1       4.040  -2.857  24.856  0.00  0.00    -0.245 OA
BRANCH  41  43
ATOM     43  C   UNL     1       6.279  -3.598  25.300  0.00  0.00    +0.066 A 
ATOM     44  C   UNL     1       6.446  -4.353  24.126  0.00  0.00    +0.064 A 
ATOM     45  C   UNL     1       7.568  -5.148  23.975  0.00  0.00    +0.163 A 
ATOM     46  C   UNL     1       8.528  -5.207  24.974  0.00  0.00    +0.201 A 
ATOM     47  C   UNL     1       8.374  -4.462  26.138  0.00  0.00    +0.163 A 
ATOM     48  C   UNL     1       7.262  -3.642  26.311  0.00  0.00    +0.064 A 
BRANCH  45  49
ATOM     49  O   UNL     1       7.709  -5.883  22.836  0.00  0.00    -0.503 OA
ATOM     50  H   UNL     1       6.950  -6.499  22.840  0.00  0.00    +0.292 HD
ENDBRANCH  45  49
BRANCH  46  51
ATOM     51  O   UNL     1       9.613  -6.021  24.798  0.00  0.00    -0.501 OA
ATOM     52  H   UNL     1       9.778  -5.999  23.833  0.00  0.00    +0.292 HD
ENDBRANCH  46  51
BRANCH  47  53
ATOM     53  O   UNL     1       9.345  -4.584  27.095  0.00  0.00    -0.503 OA
ATOM     54  H   UNL     1      10.105  -4.035  26.836  0.00  0.00    +0.292 HD
ENDBRANCH  47  53
ENDBRANCH  41  43
ENDBRANCH  40  41
ENDBRANCH  39  40
ENDBRANCH   3  39
TORSDOF 17
ENDMDL
MODEL 7
REMARK VINA RESULT:      -7.0      1.890      7.281
REMARK  Name = 
REMARK  17 active torsions:
REMARK  status: ('A' for Active; 'I' for Inactive)
REMARK    1  A    between atoms: C_3  and  O_47
REMARK    2  A    between atoms: C_4  and  O_46
REMARK    3  A    between atoms: C_6  and  C_7
REMARK    4  A    between atoms: C_8  and  O_20
REMARK    5  A    between atoms: C_12  and  O_19
REMARK    6  A    between atoms: C_14  and  O_18
REMARK    7  A    between atoms: O_20  and  C_21
REMARK    8  A    between atoms: C_23  and  O_45
REMARK    9  A    between atoms: C_24  and  O_44
REMARK   10  A    between atoms: C_25  and  O_43
REMARK   11  A    between atoms: C_27  and  C_30
REMARK   12  A    between atoms: C_30  and  O_31
REMARK   13  A    between atoms: O_31  and  C_32
REMARK   14  A    between atoms: C_32  and  C_34
REMARK   15  A    between atoms: C_36  and  O_42
REMARK   16  A    between atoms: C_37  and  O_41
REMARK   17  A    between atoms: C_38  and  O_40
REMARK                            x       y       z     vdW  Elec       q    Type
REMARK                         _______ _______ _______ _____ _____    ______ ____
ROOT
ATOM      1  C   UNL     1       8.828  -2.092  26.527  0.00  0.00    +0.340 C 
ATOM      2  O   UNL     1       9.288  -1.078  25.632  0.00  0.00    -0.330 OA
ATOM      3  C   UNL     1       9.342  -1.236  24.199  0.00  0.00    +0.191 C 
ATOM      4  C   UNL     1       9.083  -2.656  23.625  0.00  0.00    +0.178 C 
ATOM      5  C   UNL     1       8.387  -3.565  24.646  0.00  0.00    +0.180 C 
ATOM      6  C   UNL     1       9.193  -3.465  25.965  0.00  0.00    +0.214 C 
ENDROOT
BRANCH   4   7
ATOM      7  O   UNL     1       8.422  -2.677  22.362  0.00  0.00    -0.386 OA
ATOM      8  H   UNL     1       8.823  -2.008  21.780  0.00  0.00    +0.210 HD
ENDBRANCH   4   7
BRANCH   5   9
ATOM      9  O   UNL     1       8.239  -4.914  24.186  0.00  0.00    -0.386 OA
ATOM     10  H   UNL     1       8.883  -5.069  23.484  0.00  0.00    +0.210 HD
ENDBRANCH   5   9
BRANCH   6  11
ATOM     11  O   UNL     1       8.878  -4.501  26.901  0.00  0.00    -0.383 OA
ATOM     12  H   UNL     1       9.382  -4.324  27.717  0.00  0.00    +0.210 HD
ENDBRANCH   6  11
BRANCH   1  13
ATOM     13  O   UNL     1       7.395  -2.243  26.818  0.00  0.00    -0.453 OA
BRANCH  13  24
ATOM     14  C   UNL     1       5.426  -1.371  25.664  0.00  0.00    +0.181 A 
ATOM     15  O   UNL     1       4.653  -0.231  25.348  0.00  0.00    -0.451 OA
ATOM     16  C   UNL     1       5.182   1.010  25.548  0.00  0.00    +0.147 A 
ATOM     17  C   UNL     1       6.175   1.215  26.486  0.00  0.00    +0.109 A 
ATOM     18  C   UNL     1       6.698   2.485  26.709  0.00  0.00    +0.135 A 
ATOM     19  C   UNL     1       6.220   3.570  25.986  0.00  0.00    +0.091 A 
ATOM     20  C   UNL     1       5.205   3.358  25.052  0.00  0.00    +0.124 A 
ATOM     21  C   UNL     1       6.630   0.050  27.228  0.00  0.00    +0.238 A 
ATOM     22  O   UNL     1       7.180   0.227  28.305  0.00  0.00    -0.283 OA
ATOM     23  C   UNL     1       4.691   2.086  24.814  0.00  0.00    +0.092 A 
ATOM     24  C   UNL     1       6.449  -1.279  26.571  0.00  0.00    +0.214 A 
BRANCH  14  26
ATOM     25  C   UNL     1       4.106  -3.592  25.232  0.00  0.00    +0.015 A 
ATOM     26  C   UNL     1       4.916  -2.530  24.802  0.00  0.00    +0.025 A 
ATOM     27  C   UNL     1       5.369  -2.617  23.451  0.00  0.00    +0.060 A 
ATOM     28  C   UNL     1       5.138  -3.745  22.655  0.00  0.00    +0.159 A 
ATOM     29  C   UNL     1       4.435  -4.819  23.151  0.00  0.00    +0.158 A 
ATOM     30  C   UNL     1       3.874  -4.735  24.421  0.00  0.00    +0.050 A 
BRANCH  28  31
ATOM     31  O   UNL     1       5.655  -3.790  21.385  0.00  0.00    -0.503 OA
ATOM     32  H   UNL     1       5.008  -4.322  20.871  0.00  0.00    +0.292 HD
ENDBRANCH  28  31
BRANCH  29  33
ATOM     33  O   UNL     1       4.339  -5.937  22.363  0.00  0.00    -0.503 OA
ATOM     34  H   UNL     1       5.237  -6.273  22.196  0.00  0.00    +0.292 HD
ENDBRANCH  29  33
ENDBRANCH  14  26
BRANCH  20  35
ATOM     35  O   UNL     1       4.684   4.395  24.336  0.00  0.00    -0.507 OA
ATOM     36  H   UNL     1       4.734   4.180  23.390  0.00  0.00    +0.292 HD
ENDBRANCH  20  35
BRANCH  18  37
ATOM     37  O   UNL     1       7.697   2.723  27.614  0.00  0.00    -0.506 OA
ATOM     38  H   UNL     1       7.809   3.698  27.692  0.00  0.00    +0.292 HD
ENDBRANCH  18  37
ENDBRANCH  13  24
ENDBRANCH   1  13
BRANCH   3  39
ATOM     39  C   UNL     1       8.510  -0.066  23.662  0.00  0.00    +0.266 C 
BRANCH  39  40
ATOM     40  O   UNL     1       9.214   0.883  22.860  0.00  0.00    -0.458 OA
BRANCH  40  41
ATOM     41  C   UNL     1       9.928   1.834  23.509  0.00  0.00    +0.340 C 
ATOM     42  O   UNL     1      10.941   1.654  24.167  0.00  0.00    -0.245 OA
BRANCH  41  43
ATOM     43  C   UNL     1       9.266   3.158  23.336  0.00  0.00    +0.066 A 
ATOM     44  C   UNL     1       8.047   3.268  22.645  0.00  0.00    +0.064 A 
ATOM     45  C   UNL     1       7.454   4.509  22.492  0.00  0.00    +0.163 A 
ATOM     46  C   UNL     1       8.055   5.644  23.014  0.00  0.00    +0.201 A 
ATOM     47  C   UNL     1       9.259   5.545  23.703  0.00  0.00    +0.163 A 
ATOM     48  C   UNL     1       9.871   4.308  23.884  0.00  0.00    +0.064 A 
BRANCH  45  49
ATOM     49  O   UNL     1       6.279   4.600  21.808  0.00  0.00    -0.503 OA
ATOM     50  H   UNL     1       5.926   3.689  21.795  0.00  0.00    +0.292 HD
ENDBRANCH  45  49
BRANCH  46  51
ATOM     51  O   UNL     1       7.450   6.856  22.825  0.00  0.00    -0.501 OA
ATOM     52  H   UNL     1       7.169   7.129  23.723  0.00  0.00    +0.292 HD
ENDBRANCH  46  51
BRANCH  47  53
ATOM     53  O   UNL     1       9.811   6.707  24.173  0.00  0.00    -0.503 OA
ATOM     54  H   UNL     1      10.674   6.835  23.744  0.00  0.00    +0.292 HD
ENDBRANCH  47  53
ENDBRANCH  41  43
ENDBRANCH  40  41
ENDBRANCH  39  40
ENDBRANCH   3  39
TORSDOF 17
ENDMDL
MODEL 8
REMARK VINA RESULT:      -7.0      2.446      8.646
REMARK  Name = 
REMARK  17 active torsions:
REMARK  status: ('A' for Active; 'I' for Inactive)
REMARK    1  A    between atoms: C_3  and  O_47
REMARK    2  A    between atoms: C_4  and  O_46
REMARK    3  A    between atoms: C_6  and  C_7
REMARK    4  A    between atoms: C_8  and  O_20
REMARK    5  A    between atoms: C_12  and  O_19
REMARK    6  A    between atoms: C_14  and  O_18
REMARK    7  A    between atoms: O_20  and  C_21
REMARK    8  A    between atoms: C_23  and  O_45
REMARK    9  A    between atoms: C_24  and  O_44
REMARK   10  A    between atoms: C_25  and  O_43
REMARK   11  A    between atoms: C_27  and  C_30
REMARK   12  A    between atoms: C_30  and  O_31
REMARK   13  A    between atoms: O_31  and  C_32
REMARK   14  A    between atoms: C_32  and  C_34
REMARK   15  A    between atoms: C_36  and  O_42
REMARK   16  A    between atoms: C_37  and  O_41
REMARK   17  A    between atoms: C_38  and  O_40
REMARK                            x       y       z     vdW  Elec       q    Type
REMARK                         _______ _______ _______ _____ _____    ______ ____
ROOT
ATOM      1  C   UNL     1       8.559  -0.840  24.346  0.00  0.00    +0.340 C 
ATOM      2  O   UNL     1       9.191   0.334  24.857  0.00  0.00    -0.330 OA
ATOM      3  C   UNL     1       9.864   1.308  24.033  0.00  0.00    +0.191 C 
ATOM      4  C   UNL     1      10.089   0.948  22.539  0.00  0.00    +0.178 C 
ATOM      5  C   UNL     1       9.176  -0.199  22.086  0.00  0.00    +0.180 C 
ATOM      6  C   UNL     1       9.330  -1.337  23.125  0.00  0.00    +0.214 C 
ENDROOT
BRANCH   4   7
ATOM      7  O   UNL     1      10.029   2.057  21.643  0.00  0.00    -0.386 OA
ATOM      8  H   UNL     1      10.150   1.738  20.732  0.00  0.00    +0.210 HD
ENDBRANCH   4   7
BRANCH   5   9
ATOM      9  O   UNL     1       9.443  -0.630  20.746  0.00  0.00    -0.386 OA
ATOM     10  H   UNL     1       9.360  -1.591  20.712  0.00  0.00    +0.210 HD
ENDBRANCH   5   9
BRANCH   6  11
ATOM     11  O   UNL     1       8.815  -2.593  22.670  0.00  0.00    -0.383 OA
ATOM     12  H   UNL     1       9.571  -3.196  22.550  0.00  0.00    +0.210 HD
ENDBRANCH   6  11
BRANCH   1  13
ATOM     13  O   UNL     1       7.178  -0.792  23.846  0.00  0.00    -0.453 OA
BRANCH  13  24
ATOM     14  C   UNL     1       5.545  -1.443  25.543  0.00  0.00    +0.181 A 
ATOM     15  O   UNL     1       4.656  -2.442  26.003  0.00  0.00    -0.451 OA
ATOM     16  C   UNL     1       4.757  -3.706  25.501  0.00  0.00    +0.147 A 
ATOM     17  C   UNL     1       5.299  -3.933  24.252  0.00  0.00    +0.109 A 
ATOM     18  C   UNL     1       5.380  -5.219  23.728  0.00  0.00    +0.135 A 
ATOM     19  C   UNL     1       4.908  -6.299  24.464  0.00  0.00    +0.091 A 
ATOM     20  C   UNL     1       4.345  -6.060  25.718  0.00  0.00    +0.124 A 
ATOM     21  C   UNL     1       5.765  -2.768  23.515  0.00  0.00    +0.238 A 
ATOM     22  O   UNL     1       5.866  -2.853  22.300  0.00  0.00    -0.283 OA
ATOM     23  C   UNL     1       4.278  -4.776  26.252  0.00  0.00    +0.092 A 
ATOM     24  C   UNL     1       6.154  -1.573  24.322  0.00  0.00    +0.214 A 
BRANCH  14  26
ATOM     25  C   UNL     1       4.743   0.650  26.898  0.00  0.00    +0.015 A 
ATOM     26  C   UNL     1       5.659  -0.383  26.642  0.00  0.00    +0.025 A 
ATOM     27  C   UNL     1       6.844  -0.358  27.438  0.00  0.00    +0.060 A 
ATOM     28  C   UNL     1       7.138   0.695  28.311  0.00  0.00    +0.159 A 
ATOM     29  C   UNL     1       6.266   1.750  28.452  0.00  0.00    +0.158 A 
ATOM     30  C   UNL     1       5.045   1.717  27.787  0.00  0.00    +0.050 A 
BRANCH  28  31
ATOM     31  O   UNL     1       8.324   0.687  29.000  0.00  0.00    -0.503 OA
ATOM     32  H   UNL     1       8.643   1.616  28.959  0.00  0.00    +0.292 HD
ENDBRANCH  28  31
BRANCH  29  33
ATOM     33  O   UNL     1       6.662   2.803  29.236  0.00  0.00    -0.503 OA
ATOM     34  H   UNL     1       6.816   2.474  30.139  0.00  0.00    +0.292 HD
ENDBRANCH  29  33
ENDBRANCH  14  26
BRANCH  20  35
ATOM     35  O   UNL     1       3.844  -7.084  26.468  0.00  0.00    -0.507 OA
ATOM     36  H   UNL     1       4.518  -7.779  26.540  0.00  0.00    +0.292 HD
ENDBRANCH  20  35
BRANCH  18  37
ATOM     37  O   UNL     1       5.931  -5.486  22.504  0.00  0.00    -0.506 OA
ATOM     38  H   UNL     1       5.974  -4.641  22.001  0.00  0.00    +0.292 HD
ENDBRANCH  18  37
ENDBRANCH  13  24
ENDBRANCH   1  13
BRANCH   3  39
ATOM     39  C   UNL     1       9.165   2.631  24.371  0.00  0.00    +0.266 C 
BRANCH  39  40
ATOM     40  O   UNL     1       8.175   2.568  25.397  0.00  0.00    -0.458 OA
BRANCH  40  41
ATOM     41  C   UNL     1       7.531   3.719  25.708  0.00  0.00    +0.340 C 
ATOM     42  O   UNL     1       7.719   4.408  26.700  0.00  0.00    -0.245 OA
BRANCH  41  43
ATOM     43  C   UNL     1       6.507   4.013  24.666  0.00  0.00    +0.066 A 
ATOM     44  C   UNL     1       5.395   3.170  24.492  0.00  0.00    +0.064 A 
ATOM     45  C   UNL     1       4.461   3.460  23.514  0.00  0.00    +0.163 A 
ATOM     46  C   UNL     1       4.614   4.575  22.704  0.00  0.00    +0.201 A 
ATOM     47  C   UNL     1       5.708   5.417  22.871  0.00  0.00    +0.163 A 
ATOM     48  C   UNL     1       6.656   5.157  23.856  0.00  0.00    +0.064 A 
BRANCH  45  49
ATOM     49  O   UNL     1       3.396   2.626  23.349  0.00  0.00    -0.503 OA
ATOM     50  H   UNL     1       2.642   3.218  23.157  0.00  0.00    +0.292 HD
ENDBRANCH  45  49
BRANCH  46  51
ATOM     51  O   UNL     1       3.681   4.817  21.733  0.00  0.00    -0.501 OA
ATOM     52  H   UNL     1       2.947   5.260  22.209  0.00  0.00    +0.292 HD
ENDBRANCH  46  51
BRANCH  47  53
ATOM     53  O   UNL     1       5.812   6.487  22.023  0.00  0.00    -0.503 OA
ATOM     54  H   UNL     1       5.443   7.270  22.465  0.00  0.00    +0.292 HD
ENDBRANCH  47  53
ENDBRANCH  41  43
ENDBRANCH  40  41
ENDBRANCH  39  40
ENDBRANCH   3  39
TORSDOF 17
ENDMDL
MODEL 9
REMARK VINA RESULT:      -6.9      2.187      3.531
REMARK  Name = 
REMARK  17 active torsions:
REMARK  status: ('A' for Active; 'I' for Inactive)
REMARK    1  A    between atoms: C_3  and  O_47
REMARK    2  A    between atoms: C_4  and  O_46
REMARK    3  A    between atoms: C_6  and  C_7
REMARK    4  A    between atoms: C_8  and  O_20
REMARK    5  A    between atoms: C_12  and  O_19
REMARK    6  A    between atoms: C_14  and  O_18
REMARK    7  A    between atoms: O_20  and  C_21
REMARK    8  A    between atoms: C_23  and  O_45
REMARK    9  A    between atoms: C_24  and  O_44
REMARK   10  A    between atoms: C_25  and  O_43
REMARK   11  A    between atoms: C_27  and  C_30
REMARK   12  A    between atoms: C_30  and  O_31
REMARK   13  A    between atoms: O_31  and  C_32
REMARK   14  A    between atoms: C_32  and  C_34
REMARK   15  A    between atoms: C_36  and  O_42
REMARK   16  A    between atoms: C_37  and  O_41
REMARK   17  A    between atoms: C_38  and  O_40
REMARK                            x       y       z     vdW  Elec       q    Type
REMARK                         _______ _______ _______ _____ _____    ______ ____
ROOT
ATOM      1  C   UNL     1       5.377   0.308  26.803  0.00  0.00    +0.340 C 
ATOM      2  O   UNL     1       5.775  -0.900  27.454  0.00  0.00    -0.330 OA
ATOM      3  C   UNL     1       4.855  -1.929  27.871  0.00  0.00    +0.191 C 
ATOM      4  C   UNL     1       3.337  -1.607  27.793  0.00  0.00    +0.178 C 
ATOM      5  C   UNL     1       3.056  -0.407  26.880  0.00  0.00    +0.180 C 
ATOM      6  C   UNL     1       4.005   0.733  27.325  0.00  0.00    +0.214 C 
ENDROOT
BRANCH   4   7
ATOM      7  O   UNL     1       2.507  -2.721  27.472  0.00  0.00    -0.386 OA
ATOM      8  H   UNL     1       3.064  -3.453  27.153  0.00  0.00    +0.210 HD
ENDBRANCH   4   7
BRANCH   5   9
ATOM      9  O   UNL     1       1.678  -0.015  26.880  0.00  0.00    -0.386 OA
ATOM     10  H   UNL     1       1.605   0.846  27.311  0.00  0.00    +0.210 HD
ENDBRANCH   5   9
BRANCH   6  11
ATOM     11  O   UNL     1       3.635   2.014  26.805  0.00  0.00    -0.383 OA
ATOM     12  H   UNL     1       3.493   1.914  25.845  0.00  0.00    +0.210 HD
ENDBRANCH   6  11
BRANCH   1  13
ATOM     13  O   UNL     1       5.184   0.347  25.347  0.00  0.00    -0.453 OA
BRANCH  13  24
ATOM     14  C   UNL     1       6.992   0.043  23.732  0.00  0.00    +0.181 A 
ATOM     15  O   UNL     1       8.047   0.652  23.014  0.00  0.00    -0.451 OA
ATOM     16  C   UNL     1       8.487   1.885  23.394  0.00  0.00    +0.147 A 
ATOM     17  C   UNL     1       7.657   2.758  24.071  0.00  0.00    +0.109 A 
ATOM     18  C   UNL     1       8.097   4.026  24.438  0.00  0.00    +0.135 A 
ATOM     19  C   UNL     1       9.386   4.432  24.120  0.00  0.00    +0.091 A 
ATOM     20  C   UNL     1      10.213   3.552  23.420  0.00  0.00    +0.124 A 
ATOM     21  C   UNL     1       6.312   2.290  24.367  0.00  0.00    +0.238 A 
ATOM     22  O   UNL     1       5.444   3.123  24.583  0.00  0.00    -0.283 OA
ATOM     23  C   UNL     1       9.782   2.276  23.067  0.00  0.00    +0.092 A 
ATOM     24  C   UNL     1       6.117   0.813  24.454  0.00  0.00    +0.214 A 
BRANCH  14  26
ATOM     25  C   UNL     1       8.144  -2.285  24.068  0.00  0.00    +0.015 A 
ATOM     26  C   UNL     1       7.123  -1.472  23.552  0.00  0.00    +0.025 A 
ATOM     27  C   UNL     1       6.185  -2.135  22.703  0.00  0.00    +0.060 A 
ATOM     28  C   UNL     1       6.349  -3.466  22.302  0.00  0.00    +0.159 A 
ATOM     29  C   UNL     1       7.427  -4.200  22.740  0.00  0.00    +0.158 A 
ATOM     30  C   UNL     1       8.306  -3.636  23.659  0.00  0.00    +0.050 A 
BRANCH  28  31
ATOM     31  O   UNL     1       5.444  -4.024  21.436  0.00  0.00    -0.503 OA
ATOM     32  H   UNL     1       5.866  -4.860  21.138  0.00  0.00    +0.292 HD
ENDBRANCH  28  31
BRANCH  29  33
ATOM     33  O   UNL     1       7.592  -5.460  22.224  0.00  0.00    -0.503 OA
ATOM     34  H   UNL     1       6.934  -5.593  21.520  0.00  0.00    +0.292 HD
ENDBRANCH  29  33
ENDBRANCH  14  26
BRANCH  20  35
ATOM     35  O   UNL     1      11.478   3.914  23.062  0.00  0.00    -0.507 OA
ATOM     36  H   UNL     1      11.546   3.906  22.093  0.00  0.00    +0.292 HD
ENDBRANCH  20  35
BRANCH  18  37
ATOM     37  O   UNL     1       7.312   4.909  25.128  0.00  0.00    -0.506 OA
ATOM     38  H   UNL     1       7.592   4.892  26.071  0.00  0.00    +0.292 HD
ENDBRANCH  18  37
ENDBRANCH  13  24
ENDBRANCH   1  13
BRANCH   3  39
ATOM     39  C   UNL     1       5.371  -3.196  27.179  0.00  0.00    +0.266 C 
BRANCH  39  40
ATOM     40  O   UNL     1       5.552  -4.336  28.019  0.00  0.00    -0.458 OA
BRANCH  40  41
ATOM     41  C   UNL     1       6.205  -5.399  27.489  0.00  0.00    +0.340 C 
ATOM     42  O   UNL     1       7.352  -5.738  27.736  0.00  0.00    -0.245 OA
BRANCH  41  43
ATOM     43  C   UNL     1       5.320  -6.088  26.509  0.00  0.00    +0.066 A 
ATOM     44  C   UNL     1       5.613  -6.065  25.134  0.00  0.00    +0.064 A 
ATOM     45  C   UNL     1       4.772  -6.707  24.242  0.00  0.00    +0.163 A 
ATOM     46  C   UNL     1       3.642  -7.371  24.695  0.00  0.00    +0.201 A 
ATOM     47  C   UNL     1       3.345  -7.403  26.053  0.00  0.00    +0.163 A 
ATOM     48  C   UNL     1       4.181  -6.777  26.974  0.00  0.00    +0.064 A 
BRANCH  45  49
ATOM     49  O   UNL     1       5.064  -6.665  22.912  0.00  0.00    -0.503 OA
ATOM     50  H   UNL     1       4.548  -7.397  22.519  0.00  0.00    +0.292 HD
ENDBRANCH  45  49
BRANCH  46  51
ATOM     51  O   UNL     1       2.824  -7.976  23.781  0.00  0.00    -0.501 OA
ATOM     52  H   UNL     1       3.395  -8.112  22.997  0.00  0.00    +0.292 HD
ENDBRANCH  46  51
BRANCH  47  53
ATOM     53  O   UNL     1       2.202  -8.055  26.431  0.00  0.00    -0.503 OA
ATOM     54  H   UNL     1       2.305  -8.351  27.351  0.00  0.00    +0.292 HD
ENDBRANCH  47  53
ENDBRANCH  41  43
ENDBRANCH  40  41
ENDBRANCH  39  40
ENDBRANCH   3  39
TORSDOF 17
ENDMDL
