MODEL 1
REMARK VINA RESULT:      -7.2      0.000      0.000
REMARK  Name = 
REMARK  16 active torsions:
REMARK  status: ('A' for Active; 'I' for Inactive)
REMARK    1  A    between atoms: C_2  and  O_42
REMARK    2  A    between atoms: C_3  and  O_41
REMARK    3  A    between atoms: C_4  and  O_40
REMARK    4  A    between atoms: C_5  and  O_7
REMARK    5  A    between atoms: O_7  and  C_8
REMARK    6  A    between atoms: C_8  and  C_9
REMARK    7  A    between atoms: C_10  and  O_39
REMARK    8  A    between atoms: C_11  and  O_38
REMARK    9  A    between atoms: C_12  and  O_37
REMARK   10  A    between atoms: C_13  and  O_15
REMARK   11  A    between atoms: O_15  and  C_16
REMARK   12  A    between atoms: C_17  and  C_29
REMARK   13  A    between atoms: C_21  and  O_28
REMARK   14  A    between atoms: C_23  and  O_27
REMARK   15  A    between atoms: C_31  and  O_36
REMARK   16  A    between atoms: C_32  and  O_35
REMARK                            x       y       z     vdW  Elec       q    Type
REMARK                         _______ _______ _______ _____ _____    ______ ____
ROOT
ATOM      1  C   UNL     1       9.710  -0.362  22.768  0.00  0.00    +0.179 C 
ATOM      2  O   UNL     1       9.764  -0.611  24.190  0.00  0.00    -0.331 OA
ATOM      3  C   UNL     1       8.505  -0.295  24.815  0.00  0.00    +0.340 C 
ATOM      4  C   UNL     1       8.295   1.232  24.734  0.00  0.00    +0.214 C 
ATOM      5  C   UNL     1       8.241   1.650  23.252  0.00  0.00    +0.180 C 
ATOM      6  C   UNL     1       9.494   1.142  22.506  0.00  0.00    +0.177 C 
ENDROOT
BRANCH   6   7
ATOM      7  O   UNL     1       9.469   1.425  21.110  0.00  0.00    -0.386 OA
ATOM      8  H   UNL     1       8.567   1.695  20.858  0.00  0.00    +0.210 HD
ENDBRANCH   6   7
BRANCH   5   9
ATOM      9  O   UNL     1       8.157   3.076  23.147  0.00  0.00    -0.386 OA
ATOM     10  H   UNL     1       7.546   3.258  22.404  0.00  0.00    +0.210 HD
ENDBRANCH   5   9
BRANCH   4  11
ATOM     11  O   UNL     1       9.390   1.949  25.357  0.00  0.00    -0.383 OA
ATOM     12  H   UNL     1       9.017   2.424  26.125  0.00  0.00    +0.210 HD
ENDBRANCH   4  11
BRANCH   3  13
ATOM     13  O   UNL     1       8.489  -0.763  26.166  0.00  0.00    -0.453 OA
BRANCH  13  14
ATOM     14  C   UNL     1       7.504  -1.718  26.438  0.00  0.00    +0.214 A 
ATOM     15  C   UNL     1       7.829  -3.182  26.358  0.00  0.00    +0.238 A 
ATOM     16  O   UNL     1       8.910  -3.561  25.920  0.00  0.00    -0.283 OA
ATOM     17  C   UNL     1       6.808  -4.136  26.802  0.00  0.00    +0.109 A 
ATOM     18  C   UNL     1       5.536  -3.640  27.067  0.00  0.00    +0.147 A 
ATOM     19  C   UNL     1       4.494  -4.520  27.375  0.00  0.00    +0.092 A 
ATOM     20  C   UNL     1       4.753  -5.892  27.416  0.00  0.00    +0.124 A 
ATOM     21  C   UNL     1       6.028  -6.392  27.199  0.00  0.00    +0.091 A 
ATOM     22  O   UNL     1       5.230  -2.300  27.027  0.00  0.00    -0.451 OA
ATOM     23  C   UNL     1       7.061  -5.514  26.897  0.00  0.00    +0.135 A 
ATOM     24  C   UNL     1       6.231  -1.374  26.737  0.00  0.00    +0.181 A 
BRANCH  24  25
ATOM     25  C   UNL     1       5.751   0.041  26.810  0.00  0.00    +0.025 A 
ATOM     26  C   UNL     1       6.079   0.853  27.913  0.00  0.00    +0.015 A 
ATOM     27  C   UNL     1       5.663   2.188  27.990  0.00  0.00    +0.050 A 
ATOM     28  C   UNL     1       4.921   2.724  26.954  0.00  0.00    +0.158 A 
ATOM     29  C   UNL     1       4.551   1.943  25.867  0.00  0.00    +0.159 A 
ATOM     30  C   UNL     1       4.943   0.608  25.800  0.00  0.00    +0.060 A 
BRANCH  29  31
ATOM     31  O   UNL     1       3.809   2.531  24.881  0.00  0.00    -0.503 OA
ATOM     32  H   UNL     1       3.735   1.901  24.142  0.00  0.00    +0.292 HD
ENDBRANCH  29  31
BRANCH  28  33
ATOM     33  O   UNL     1       4.538   4.035  27.011  0.00  0.00    -0.503 OA
ATOM     34  H   UNL     1       5.376   4.541  27.002  0.00  0.00    +0.292 HD
ENDBRANCH  28  33
ENDBRANCH  24  25
BRANCH  23  35
ATOM     35  O   UNL     1       8.318  -6.017  26.711  0.00  0.00    -0.506 OA
ATOM     36  H   UNL     1       8.663  -6.384  27.541  0.00  0.00    +0.292 HD
ENDBRANCH  23  35
BRANCH  20  37
ATOM     37  O   UNL     1       3.770  -6.798  27.686  0.00  0.00    -0.507 OA
ATOM     38  H   UNL     1       4.101  -7.455  28.314  0.00  0.00    +0.292 HD
ENDBRANCH  20  37
ENDBRANCH  13  14
ENDBRANCH   3  13
BRANCH   1  39
ATOM     39  C   UNL     1       8.669  -1.286  22.070  0.00  0.00    +0.197 C 
BRANCH  39  40
ATOM     40  O   UNL     1       8.646  -2.642  22.481  0.00  0.00    -0.346 OA
BRANCH  40  43
ATOM     41  C   UNL     1       5.212  -3.392  23.110  0.00  0.00    +0.197 C 
ATOM     42  O   UNL     1       6.536  -2.912  23.331  0.00  0.00    -0.346 OA
ATOM     43  C   UNL     1       7.414  -3.317  22.276  0.00  0.00    +0.281 C 
ATOM     44  C   UNL     1       7.568  -4.851  22.339  0.00  0.00    +0.201 C 
ATOM     45  C   UNL     1       6.194  -5.478  22.109  0.00  0.00    +0.178 C 
ATOM     46  C   UNL     1       5.161  -4.920  23.100  0.00  0.00    +0.171 C 
BRANCH  46  47
ATOM     47  O   UNL     1       3.835  -5.328  22.752  0.00  0.00    -0.387 OA
ATOM     48  H   UNL     1       3.250  -5.111  23.501  0.00  0.00    +0.210 HD
ENDBRANCH  46  47
BRANCH  45  49
ATOM     49  O   UNL     1       6.279  -6.902  22.235  0.00  0.00    -0.386 OA
ATOM     50  H   UNL     1       7.217  -7.127  22.056  0.00  0.00    +0.210 HD
ENDBRANCH  45  49
BRANCH  44  51
ATOM     51  O   UNL     1       8.065  -5.280  23.619  0.00  0.00    -0.384 OA
ATOM     52  H   UNL     1       7.737  -4.625  24.273  0.00  0.00    +0.210 HD
ENDBRANCH  44  51
ENDBRANCH  40  43
ENDBRANCH  39  40
ENDBRANCH   1  39
TORSDOF 16
ENDMDL
MODEL 2
REMARK VINA RESULT:      -7.1      1.413      6.762
REMARK  Name = 
REMARK  16 active torsions:
REMARK  status: ('A' for Active; 'I' for Inactive)
REMARK    1  A    between atoms: C_2  and  O_42
REMARK    2  A    between atoms: C_3  and  O_41
REMARK    3  A    between atoms: C_4  and  O_40
REMARK    4  A    between atoms: C_5  and  O_7
REMARK    5  A    between atoms: O_7  and  C_8
REMARK    6  A    between atoms: C_8  and  C_9
REMARK    7  A    between atoms: C_10  and  O_39
REMARK    8  A    between atoms: C_11  and  O_38
REMARK    9  A    between atoms: C_12  and  O_37
REMARK   10  A    between atoms: C_13  and  O_15
REMARK   11  A    between atoms: O_15  and  C_16
REMARK   12  A    between atoms: C_17  and  C_29
REMARK   13  A    between atoms: C_21  and  O_28
REMARK   14  A    between atoms: C_23  and  O_27
REMARK   15  A    between atoms: C_31  and  O_36
REMARK   16  A    between atoms: C_32  and  O_35
REMARK                            x       y       z     vdW  Elec       q    Type
REMARK                         _______ _______ _______ _____ _____    ______ ____
ROOT
ATOM      1  C   UNL     1       7.547  -3.642  22.650  0.00  0.00    +0.179 C 
ATOM      2  O   UNL     1       6.489  -2.698  22.927  0.00  0.00    -0.331 OA
ATOM      3  C   UNL     1       5.791  -3.049  24.137  0.00  0.00    +0.340 C 
ATOM      4  C   UNL     1       5.028  -4.369  23.890  0.00  0.00    +0.214 C 
ATOM      5  C   UNL     1       6.045  -5.477  23.555  0.00  0.00    +0.180 C 
ATOM      6  C   UNL     1       6.948  -5.038  22.382  0.00  0.00    +0.177 C 
ENDROOT
BRANCH   6   7
ATOM      7  O   UNL     1       7.966  -5.986  22.072  0.00  0.00    -0.386 OA
ATOM      8  H   UNL     1       7.712  -6.853  22.439  0.00  0.00    +0.210 HD
ENDBRANCH   6   7
BRANCH   5   9
ATOM      9  O   UNL     1       5.358  -6.686  23.213  0.00  0.00    -0.386 OA
ATOM     10  H   UNL     1       5.529  -6.837  22.262  0.00  0.00    +0.210 HD
ENDBRANCH   5   9
BRANCH   4  11
ATOM     11  O   UNL     1       4.117  -4.249  22.770  0.00  0.00    -0.383 OA
ATOM     12  H   UNL     1       4.224  -5.057  22.230  0.00  0.00    +0.210 HD
ENDBRANCH   4  11
BRANCH   3  13
ATOM     13  O   UNL     1       4.912  -1.993  24.529  0.00  0.00    -0.453 OA
BRANCH  13  14
ATOM     14  C   UNL     1       5.421  -1.154  25.526  0.00  0.00    +0.214 A 
ATOM     15  C   UNL     1       5.602   0.313  25.260  0.00  0.00    +0.238 A 
ATOM     16  O   UNL     1       5.444   0.769  24.132  0.00  0.00    -0.283 OA
ATOM     17  C   UNL     1       5.991   1.171  26.382  0.00  0.00    +0.109 A 
ATOM     18  C   UNL     1       6.371   0.548  27.566  0.00  0.00    +0.147 A 
ATOM     19  C   UNL     1       6.866   1.311  28.628  0.00  0.00    +0.092 A 
ATOM     20  C   UNL     1       6.967   2.697  28.482  0.00  0.00    +0.124 A 
ATOM     21  C   UNL     1       6.548   3.331  27.322  0.00  0.00    +0.091 A 
ATOM     22  O   UNL     1       6.301  -0.812  27.754  0.00  0.00    -0.451 OA
ATOM     23  C   UNL     1       6.052   2.570  26.271  0.00  0.00    +0.135 A 
ATOM     24  C   UNL     1       5.804  -1.623  26.735  0.00  0.00    +0.181 A 
BRANCH  24  25
ATOM     25  C   UNL     1       5.723  -3.064  27.127  0.00  0.00    +0.025 A 
ATOM     26  C   UNL     1       4.489  -3.640  27.485  0.00  0.00    +0.015 A 
ATOM     27  C   UNL     1       4.385  -4.994  27.831  0.00  0.00    +0.050 A 
ATOM     28  C   UNL     1       5.519  -5.784  27.811  0.00  0.00    +0.158 A 
ATOM     29  C   UNL     1       6.757  -5.242  27.496  0.00  0.00    +0.159 A 
ATOM     30  C   UNL     1       6.867  -3.891  27.175  0.00  0.00    +0.060 A 
BRANCH  29  31
ATOM     31  O   UNL     1       7.840  -6.075  27.503  0.00  0.00    -0.503 OA
ATOM     32  H   UNL     1       7.537  -6.963  27.763  0.00  0.00    +0.292 HD
ENDBRANCH  29  31
BRANCH  28  33
ATOM     33  O   UNL     1       5.417  -7.113  28.118  0.00  0.00    -0.503 OA
ATOM     34  H   UNL     1       4.942  -7.509  27.359  0.00  0.00    +0.292 HD
ENDBRANCH  28  33
ENDBRANCH  24  25
BRANCH  23  35
ATOM     35  O   UNL     1       5.618   3.209  25.143  0.00  0.00    -0.506 OA
ATOM     36  H   UNL     1       5.530   2.579  24.409  0.00  0.00    +0.292 HD
ENDBRANCH  23  35
BRANCH  20  37
ATOM     37  O   UNL     1       7.466   3.488  29.474  0.00  0.00    -0.507 OA
ATOM     38  H   UNL     1       7.656   2.946  30.253  0.00  0.00    +0.292 HD
ENDBRANCH  20  37
ENDBRANCH  13  14
ENDBRANCH   3  13
BRANCH   1  39
ATOM     39  C   UNL     1       8.634  -3.619  23.764  0.00  0.00    +0.197 C 
BRANCH  39  40
ATOM     40  O   UNL     1       9.883  -3.046  23.420  0.00  0.00    -0.346 OA
BRANCH  40  43
ATOM     41  C   UNL     1       9.159  -0.089  25.287  0.00  0.00    +0.197 C 
ATOM     42  O   UNL     1       8.973  -1.369  24.687  0.00  0.00    -0.346 OA
ATOM     43  C   UNL     1      10.061  -1.695  23.816  0.00  0.00    +0.281 C 
ATOM     44  C   UNL     1      10.028  -0.723  22.619  0.00  0.00    +0.201 C 
ATOM     45  C   UNL     1      10.225   0.696  23.150  0.00  0.00    +0.178 C 
ATOM     46  C   UNL     1       9.193   1.025  24.241  0.00  0.00    +0.171 C 
BRANCH  46  47
ATOM     47  O   UNL     1       9.506   2.256  24.897  0.00  0.00    -0.387 OA
ATOM     48  H   UNL     1      10.193   2.072  25.563  0.00  0.00    +0.210 HD
ENDBRANCH  46  47
BRANCH  45  49
ATOM     49  O   UNL     1      10.126   1.638  22.076  0.00  0.00    -0.386 OA
ATOM     50  H   UNL     1      10.957   2.158  22.104  0.00  0.00    +0.210 HD
ENDBRANCH  45  49
BRANCH  44  51
ATOM     51  O   UNL     1       8.771  -0.786  21.921  0.00  0.00    -0.384 OA
ATOM     52  H   UNL     1       8.968  -1.177  21.041  0.00  0.00    +0.210 HD
ENDBRANCH  44  51
ENDBRANCH  40  43
ENDBRANCH  39  40
ENDBRANCH   1  39
TORSDOF 16
ENDMDL
MODEL 3
REMARK VINA RESULT:      -7.0      2.440      7.325
REMARK  Name = 
REMARK  16 active torsions:
REMARK  status: ('A' for Active; 'I' for Inactive)
REMARK    1  A    between atoms: C_2  and  O_42
REMARK    2  A    between atoms: C_3  and  O_41
REMARK    3  A    between atoms: C_4  and  O_40
REMARK    4  A    between atoms: C_5  and  O_7
REMARK    5  A    between atoms: O_7  and  C_8
REMARK    6  A    between atoms: C_8  and  C_9
REMARK    7  A    between atoms: C_10  and  O_39
REMARK    8  A    between atoms: C_11  and  O_38
REMARK    9  A    between atoms: C_12  and  O_37
REMARK   10  A    between atoms: C_13  and  O_15
REMARK   11  A    between atoms: O_15  and  C_16
REMARK   12  A    between atoms: C_17  and  C_29
REMARK   13  A    between atoms: C_21  and  O_28
REMARK   14  A    between atoms: C_23  and  O_27
REMARK   15  A    between atoms: C_31  and  O_36
REMARK   16  A    between atoms: C_32  and  O_35
REMARK                            x       y       z     vdW  Elec       q    Type
REMARK                         _______ _______ _______ _____ _____    ______ ____
ROOT
ATOM      1  C   UNL     1       4.810  -0.563  26.280  0.00  0.00    +0.179 C 
ATOM      2  O   UNL     1       4.968   0.394  25.209  0.00  0.00    -0.331 OA
ATOM      3  C   UNL     1       6.327   0.866  25.138  0.00  0.00    +0.340 C 
ATOM      4  C   UNL     1       6.614   1.704  26.403  0.00  0.00    +0.214 C 
ATOM      5  C   UNL     1       6.458   0.803  27.643  0.00  0.00    +0.180 C 
ATOM      6  C   UNL     1       5.073   0.119  27.637  0.00  0.00    +0.177 C 
ENDROOT
BRANCH   6   7
ATOM      7  O   UNL     1       4.893  -0.792  28.718  0.00  0.00    -0.386 OA
ATOM      8  H   UNL     1       4.961  -1.703  28.377  0.00  0.00    +0.210 HD
ENDBRANCH   6   7
BRANCH   5   9
ATOM      9  O   UNL     1       6.611   1.580  28.836  0.00  0.00    -0.386 OA
ATOM     10  H   UNL     1       5.932   1.256  29.461  0.00  0.00    +0.210 HD
ENDBRANCH   5   9
BRANCH   4  11
ATOM     11  O   UNL     1       5.679   2.803  26.532  0.00  0.00    -0.383 OA
ATOM     12  H   UNL     1       5.652   3.043  27.478  0.00  0.00    +0.210 HD
ENDBRANCH   4  11
BRANCH   3  13
ATOM     13  O   UNL     1       6.529   1.623  23.943  0.00  0.00    -0.453 OA
BRANCH  13  14
ATOM     14  C   UNL     1       7.818   2.148  23.799  0.00  0.00    +0.214 A 
ATOM     15  C   UNL     1       8.027   3.634  23.750  0.00  0.00    +0.238 A 
ATOM     16  O   UNL     1       7.070   4.400  23.691  0.00  0.00    -0.283 OA
ATOM     17  C   UNL     1       9.404   4.134  23.754  0.00  0.00    +0.109 A 
ATOM     18  C   UNL     1      10.426   3.204  23.591  0.00  0.00    +0.147 A 
ATOM     19  C   UNL     1      11.749   3.637  23.466  0.00  0.00    +0.092 A 
ATOM     20  C   UNL     1      12.025   5.005  23.512  0.00  0.00    +0.124 A 
ATOM     21  C   UNL     1      11.019   5.936  23.720  0.00  0.00    +0.091 A 
ATOM     22  O   UNL     1      10.204   1.849  23.527  0.00  0.00    -0.451 OA
ATOM     23  C   UNL     1       9.706   5.502  23.849  0.00  0.00    +0.135 A 
ATOM     24  C   UNL     1       8.905   1.358  23.658  0.00  0.00    +0.181 A 
BRANCH  24  25
ATOM     25  C   UNL     1       8.846  -0.137  23.644  0.00  0.00    +0.025 A 
ATOM     26  C   UNL     1       9.513  -0.890  24.630  0.00  0.00    +0.015 A 
ATOM     27  C   UNL     1       9.450  -2.289  24.651  0.00  0.00    +0.050 A 
ATOM     28  C   UNL     1       8.707  -2.945  23.688  0.00  0.00    +0.158 A 
ATOM     29  C   UNL     1       8.064  -2.237  22.682  0.00  0.00    +0.159 A 
ATOM     30  C   UNL     1       8.146  -0.847  22.644  0.00  0.00    +0.060 A 
BRANCH  29  31
ATOM     31  O   UNL     1       7.353  -2.947  21.755  0.00  0.00    -0.503 OA
ATOM     32  H   UNL     1       7.843  -3.766  21.561  0.00  0.00    +0.292 HD
ENDBRANCH  29  31
BRANCH  28  33
ATOM     33  O   UNL     1       8.618  -4.309  23.724  0.00  0.00    -0.503 OA
ATOM     34  H   UNL     1       8.804  -4.548  24.655  0.00  0.00    +0.292 HD
ENDBRANCH  28  33
ENDBRANCH  24  25
BRANCH  23  35
ATOM     35  O   UNL     1       8.727   6.428  24.080  0.00  0.00    -0.506 OA
ATOM     36  H   UNL     1       7.857   6.069  23.838  0.00  0.00    +0.292 HD
ENDBRANCH  23  35
BRANCH  20  37
ATOM     37  O   UNL     1      13.294   5.485  23.371  0.00  0.00    -0.507 OA
ATOM     38  H   UNL     1      13.711   5.556  24.240  0.00  0.00    +0.292 HD
ENDBRANCH  20  37
ENDBRANCH  13  14
ENDBRANCH   3  13
BRANCH   1  39
ATOM     39  C   UNL     1       5.668  -1.838  26.031  0.00  0.00    +0.197 C 
BRANCH  39  40
ATOM     40  O   UNL     1       5.494  -2.488  24.784  0.00  0.00    -0.346 OA
BRANCH  40  43
ATOM     41  C   UNL     1       5.503  -6.043  25.117  0.00  0.00    +0.197 C 
ATOM     42  O   UNL     1       5.982  -4.725  24.865  0.00  0.00    -0.346 OA
ATOM     43  C   UNL     1       4.908  -3.780  24.850  0.00  0.00    +0.281 C 
ATOM     44  C   UNL     1       4.015  -4.083  23.629  0.00  0.00    +0.201 C 
ATOM     45  C   UNL     1       3.438  -5.487  23.796  0.00  0.00    +0.178 C 
ATOM     46  C   UNL     1       4.555  -6.520  24.016  0.00  0.00    +0.171 C 
BRANCH  46  47
ATOM     47  O   UNL     1       4.020  -7.791  24.395  0.00  0.00    -0.387 OA
ATOM     48  H   UNL     1       3.212  -7.630  24.915  0.00  0.00    +0.210 HD
ENDBRANCH  46  47
BRANCH  45  49
ATOM     49  O   UNL     1       2.662  -5.837  22.645  0.00  0.00    -0.386 OA
ATOM     50  H   UNL     1       3.129  -6.593  22.231  0.00  0.00    +0.210 HD
ENDBRANCH  45  49
BRANCH  44  51
ATOM     51  O   UNL     1       4.764  -4.032  22.401  0.00  0.00    -0.384 OA
ATOM     52  H   UNL     1       5.599  -4.520  22.572  0.00  0.00    +0.210 HD
ENDBRANCH  44  51
ENDBRANCH  40  43
ENDBRANCH  39  40
ENDBRANCH   1  39
TORSDOF 16
ENDMDL
MODEL 4
REMARK VINA RESULT:      -6.8      2.169      6.695
REMARK  Name = 
REMARK  16 active torsions:
REMARK  status: ('A' for Active; 'I' for Inactive)
REMARK    1  A    between atoms: C_2  and  O_42
REMARK    2  A    between atoms: C_3  and  O_41
REMARK    3  A    between atoms: C_4  and  O_40
REMARK    4  A    between atoms: C_5  and  O_7
REMARK    5  A    between atoms: O_7  and  C_8
REMARK    6  A    between atoms: C_8  and  C_9
REMARK    7  A    between atoms: C_10  and  O_39
REMARK    8  A    between atoms: C_11  and  O_38
REMARK    9  A    between atoms: C_12  and  O_37
REMARK   10  A    between atoms: C_13  and  O_15
REMARK   11  A    between atoms: O_15  and  C_16
REMARK   12  A    between atoms: C_17  and  C_29
REMARK   13  A    between atoms: C_21  and  O_28
REMARK   14  A    between atoms: C_23  and  O_27
REMARK   15  A    between atoms: C_31  and  O_36
REMARK   16  A    between atoms: C_32  and  O_35
REMARK                            x       y       z     vdW  Elec       q    Type
REMARK                         _______ _______ _______ _____ _____    ______ ____
ROOT
ATOM      1  C   UNL     1       6.777   1.841  27.491  0.00  0.00    +0.179 C 
ATOM      2  O   UNL     1       7.448   0.562  27.501  0.00  0.00    -0.331 OA
ATOM      3  C   UNL     1       7.110  -0.205  26.330  0.00  0.00    +0.340 C 
ATOM      4  C   UNL     1       5.617  -0.591  26.420  0.00  0.00    +0.214 C 
ATOM      5  C   UNL     1       4.770   0.697  26.442  0.00  0.00    +0.180 C 
ATOM      6  C   UNL     1       5.251   1.635  27.570  0.00  0.00    +0.177 C 
ENDROOT
BRANCH   6   7
ATOM      7  O   UNL     1       4.561   2.881  27.596  0.00  0.00    -0.386 OA
ATOM      8  H   UNL     1       3.705   2.759  28.047  0.00  0.00    +0.210 HD
ENDBRANCH   6   7
BRANCH   5   9
ATOM      9  O   UNL     1       3.389   0.371  26.635  0.00  0.00    -0.386 OA
ATOM     10  H   UNL     1       3.178   0.621  27.557  0.00  0.00    +0.210 HD
ENDBRANCH   5   9
BRANCH   4  11
ATOM     11  O   UNL     1       5.336  -1.328  27.635  0.00  0.00    -0.383 OA
ATOM     12  H   UNL     1       5.153  -2.251  27.370  0.00  0.00    +0.210 HD
ENDBRANCH   4  11
BRANCH   3  13
ATOM     13  O   UNL     1       7.951  -1.356  26.228  0.00  0.00    -0.453 OA
BRANCH  13  14
ATOM     14  C   UNL     1       7.646  -2.205  25.159  0.00  0.00    +0.214 A 
ATOM     15  C   UNL     1       6.958  -3.516  25.409  0.00  0.00    +0.238 A 
ATOM     16  O   UNL     1       6.783  -3.925  26.553  0.00  0.00    -0.283 OA
ATOM     17  C   UNL     1       6.523  -4.296  24.247  0.00  0.00    +0.109 A 
ATOM     18  C   UNL     1       6.959  -3.878  22.993  0.00  0.00    +0.147 A 
ATOM     19  C   UNL     1       6.676  -4.650  21.863  0.00  0.00    +0.092 A 
ATOM     20  C   UNL     1       5.951  -5.835  22.013  0.00  0.00    +0.124 A 
ATOM     21  C   UNL     1       5.474  -6.236  23.251  0.00  0.00    +0.091 A 
ATOM     22  O   UNL     1       7.685  -2.727  22.797  0.00  0.00    -0.451 OA
ATOM     23  C   UNL     1       5.753  -5.463  24.371  0.00  0.00    +0.135 A 
ATOM     24  C   UNL     1       7.987  -1.909  23.885  0.00  0.00    +0.181 A 
BRANCH  24  25
ATOM     25  C   UNL     1       8.712  -0.662  23.491  0.00  0.00    +0.025 A 
ATOM     26  C   UNL     1       9.973  -0.362  24.040  0.00  0.00    +0.015 A 
ATOM     27  C   UNL     1      10.681   0.788  23.667  0.00  0.00    +0.050 A 
ATOM     28  C   UNL     1      10.132   1.642  22.729  0.00  0.00    +0.158 A 
ATOM     29  C   UNL     1       8.876   1.396  22.192  0.00  0.00    +0.159 A 
ATOM     30  C   UNL     1       8.160   0.266  22.581  0.00  0.00    +0.060 A 
BRANCH  29  31
ATOM     31  O   UNL     1       8.387   2.285  21.277  0.00  0.00    -0.503 OA
ATOM     32  H   UNL     1       9.075   2.439  20.606  0.00  0.00    +0.292 HD
ENDBRANCH  29  31
BRANCH  28  33
ATOM     33  O   UNL     1      10.833   2.750  22.339  0.00  0.00    -0.503 OA
ATOM     34  H   UNL     1      11.466   2.915  23.068  0.00  0.00    +0.292 HD
ENDBRANCH  28  33
ENDBRANCH  24  25
BRANCH  23  35
ATOM     35  O   UNL     1       5.254  -5.855  25.582  0.00  0.00    -0.506 OA
ATOM     36  H   UNL     1       4.290  -5.739  25.606  0.00  0.00    +0.292 HD
ENDBRANCH  23  35
BRANCH  20  37
ATOM     37  O   UNL     1       5.669  -6.641  20.950  0.00  0.00    -0.507 OA
ATOM     38  H   UNL     1       5.900  -7.555  21.168  0.00  0.00    +0.292 HD
ENDBRANCH  20  37
ENDBRANCH  13  14
ENDBRANCH   3  13
BRANCH   1  39
ATOM     39  C   UNL     1       7.240   2.716  26.289  0.00  0.00    +0.197 C 
BRANCH  39  40
ATOM     40  O   UNL     1       7.194   4.120  26.469  0.00  0.00    -0.346 OA
BRANCH  40  43
ATOM     41  C   UNL     1       6.405   4.799  23.053  0.00  0.00    +0.197 C 
ATOM     42  O   UNL     1       6.625   4.058  24.250  0.00  0.00    -0.346 OA
ATOM     43  C   UNL     1       7.189   4.885  25.273  0.00  0.00    +0.281 C 
ATOM     44  C   UNL     1       8.610   5.294  24.832  0.00  0.00    +0.201 C 
ATOM     45  C   UNL     1       8.494   6.107  23.544  0.00  0.00    +0.178 C 
ATOM     46  C   UNL     1       7.715   5.331  22.471  0.00  0.00    +0.171 C 
BRANCH  46  47
ATOM     47  O   UNL     1       7.409   6.163  21.348  0.00  0.00    -0.387 OA
ATOM     48  H   UNL     1       6.516   5.928  21.038  0.00  0.00    +0.210 HD
ENDBRANCH  46  47
BRANCH  45  49
ATOM     49  O   UNL     1       9.800   6.443  23.059  0.00  0.00    -0.386 OA
ATOM     50  H   UNL     1      10.099   5.665  22.544  0.00  0.00    +0.210 HD
ENDBRANCH  45  49
BRANCH  44  51
ATOM     51  O   UNL     1       9.438   4.144  24.582  0.00  0.00    -0.384 OA
ATOM     52  H   UNL     1      10.241   4.480  24.127  0.00  0.00    +0.210 HD
ENDBRANCH  44  51
ENDBRANCH  40  43
ENDBRANCH  39  40
ENDBRANCH   1  39
TORSDOF 16
ENDMDL
MODEL 5
REMARK VINA RESULT:      -6.6      1.714      6.820
REMARK  Name = 
REMARK  16 active torsions:
REMARK  status: ('A' for Active; 'I' for Inactive)
REMARK    1  A    between atoms: C_2  and  O_42
REMARK    2  A    between atoms: C_3  and  O_41
REMARK    3  A    between atoms: C_4  and  O_40
REMARK    4  A    between atoms: C_5  and  O_7
REMARK    5  A    between atoms: O_7  and  C_8
REMARK    6  A    between atoms: C_8  and  C_9
REMARK    7  A    between atoms: C_10  and  O_39
REMARK    8  A    between atoms: C_11  and  O_38
REMARK    9  A    between atoms: C_12  and  O_37
REMARK   10  A    between atoms: C_13  and  O_15
REMARK   11  A    between atoms: O_15  and  C_16
REMARK   12  A    between atoms: C_17  and  C_29
REMARK   13  A    between atoms: C_21  and  O_28
REMARK   14  A    between atoms: C_23  and  O_27
REMARK   15  A    between atoms: C_31  and  O_36
REMARK   16  A    between atoms: C_32  and  O_35
REMARK                            x       y       z     vdW  Elec       q    Type
REMARK                         _______ _______ _______ _____ _____    ______ ____
ROOT
ATOM      1  C   UNL     1       5.734  -3.106  22.740  0.00  0.00    +0.179 C 
ATOM      2  O   UNL     1       5.701  -3.353  24.163  0.00  0.00    -0.331 OA
ATOM      3  C   UNL     1       6.878  -4.066  24.588  0.00  0.00    +0.340 C 
ATOM      4  C   UNL     1       6.828  -5.486  23.984  0.00  0.00    +0.214 C 
ATOM      5  C   UNL     1       6.833  -5.374  22.447  0.00  0.00    +0.180 C 
ATOM      6  C   UNL     1       5.696  -4.443  21.974  0.00  0.00    +0.177 C 
ENDROOT
BRANCH   6   7
ATOM      7  O   UNL     1       5.693  -4.232  20.565  0.00  0.00    -0.386 OA
ATOM      8  H   UNL     1       6.610  -4.282  20.236  0.00  0.00    +0.210 HD
ENDBRANCH   6   7
BRANCH   5   9
ATOM      9  O   UNL     1       6.677  -6.671  21.861  0.00  0.00    -0.386 OA
ATOM     10  H   UNL     1       7.550  -7.107  21.929  0.00  0.00    +0.210 HD
ENDBRANCH   5   9
BRANCH   4  11
ATOM     11  O   UNL     1       5.618  -6.182  24.374  0.00  0.00    -0.383 OA
ATOM     12  H   UNL     1       5.146  -6.412  23.550  0.00  0.00    +0.210 HD
ENDBRANCH   4  11
BRANCH   3  13
ATOM     13  O   UNL     1       6.953  -4.098  26.015  0.00  0.00    -0.453 OA
BRANCH  13  14
ATOM     14  C   UNL     1       6.445  -2.959  26.649  0.00  0.00    +0.214 A 
ATOM     15  C   UNL     1       7.227  -1.677  26.639  0.00  0.00    +0.238 A 
ATOM     16  O   UNL     1       8.374  -1.646  26.206  0.00  0.00    -0.283 OA
ATOM     17  C   UNL     1       6.583  -0.477  27.181  0.00  0.00    +0.109 A 
ATOM     18  C   UNL     1       5.379  -0.643  27.858  0.00  0.00    +0.147 A 
ATOM     19  C   UNL     1       4.783   0.447  28.498  0.00  0.00    +0.092 A 
ATOM     20  C   UNL     1       5.409   1.694  28.444  0.00  0.00    +0.124 A 
ATOM     21  C   UNL     1       6.586   1.879  27.733  0.00  0.00    +0.091 A 
ATOM     22  O   UNL     1       4.731  -1.852  27.949  0.00  0.00    -0.451 OA
ATOM     23  C   UNL     1       7.173   0.795  27.094  0.00  0.00    +0.135 A 
ATOM     24  C   UNL     1       5.272  -2.972  27.320  0.00  0.00    +0.181 A 
BRANCH  24  25
ATOM     25  C   UNL     1       4.407  -4.186  27.451  0.00  0.00    +0.025 A 
ATOM     26  C   UNL     1       3.171  -4.260  26.780  0.00  0.00    +0.015 A 
ATOM     27  C   UNL     1       2.357  -5.397  26.868  0.00  0.00    +0.050 A 
ATOM     28  C   UNL     1       2.782  -6.474  27.623  0.00  0.00    +0.158 A 
ATOM     29  C   UNL     1       3.978  -6.422  28.325  0.00  0.00    +0.159 A 
ATOM     30  C   UNL     1       4.778  -5.283  28.259  0.00  0.00    +0.060 A 
BRANCH  29  31
ATOM     31  O   UNL     1       4.336  -7.517  29.060  0.00  0.00    -0.503 OA
ATOM     32  H   UNL     1       4.501  -8.253  28.445  0.00  0.00    +0.292 HD
ENDBRANCH  29  31
BRANCH  28  33
ATOM     33  O   UNL     1       2.004  -7.597  27.686  0.00  0.00    -0.503 OA
ATOM     34  H   UNL     1       1.172  -7.302  28.110  0.00  0.00    +0.292 HD
ENDBRANCH  28  33
ENDBRANCH  24  25
BRANCH  23  35
ATOM     35  O   UNL     1       8.318   0.995  26.376  0.00  0.00    -0.506 OA
ATOM     36  H   UNL     1       8.108   1.334  25.490  0.00  0.00    +0.292 HD
ENDBRANCH  23  35
BRANCH  20  37
ATOM     37  O   UNL     1       4.887   2.787  29.071  0.00  0.00    -0.507 OA
ATOM     38  H   UNL     1       4.966   3.559  28.494  0.00  0.00    +0.292 HD
ENDBRANCH  20  37
ENDBRANCH  13  14
ENDBRANCH   3  13
BRANCH   1  39
ATOM     39  C   UNL     1       6.927  -2.183  22.352  0.00  0.00    +0.197 C 
BRANCH  39  40
ATOM     40  O   UNL     1       7.174  -1.075  23.200  0.00  0.00    -0.346 OA
BRANCH  40  43
ATOM     41  C   UNL     1      10.203   0.815  23.132  0.00  0.00    +0.197 C 
ATOM     42  O   UNL     1       9.144   0.008  23.641  0.00  0.00    -0.346 OA
ATOM     43  C   UNL     1       8.083  -0.112  22.688  0.00  0.00    +0.281 C 
ATOM     44  C   UNL     1       7.432   1.276  22.515  0.00  0.00    +0.201 C 
ATOM     45  C   UNL     1       8.488   2.233  21.965  0.00  0.00    +0.178 C 
ATOM     46  C   UNL     1       9.739   2.245  22.856  0.00  0.00    +0.171 C 
BRANCH  46  47
ATOM     47  O   UNL     1      10.811   2.960  22.235  0.00  0.00    -0.387 OA
ATOM     48  H   UNL     1      10.876   3.832  22.665  0.00  0.00    +0.210 HD
ENDBRANCH  46  47
BRANCH  45  49
ATOM     49  O   UNL     1       7.943   3.554  21.860  0.00  0.00    -0.386 OA
ATOM     50  H   UNL     1       7.086   3.450  21.396  0.00  0.00    +0.210 HD
ENDBRANCH  45  49
BRANCH  44  51
ATOM     51  O   UNL     1       6.946   1.792  23.768  0.00  0.00    -0.384 OA
ATOM     52  H   UNL     1       6.251   2.447  23.541  0.00  0.00    +0.210 HD
ENDBRANCH  44  51
ENDBRANCH  40  43
ENDBRANCH  39  40
ENDBRANCH   1  39
TORSDOF 16
ENDMDL
MODEL 6
REMARK VINA RESULT:      -6.6      1.952      7.063
REMARK  Name = 
REMARK  16 active torsions:
REMARK  status: ('A' for Active; 'I' for Inactive)
REMARK    1  A    between atoms: C_2  and  O_42
REMARK    2  A    between atoms: C_3  and  O_41
REMARK    3  A    between atoms: C_4  and  O_40
REMARK    4  A    between atoms: C_5  and  O_7
REMARK    5  A    between atoms: O_7  and  C_8
REMARK    6  A    between atoms: C_8  and  C_9
REMARK    7  A    between atoms: C_10  and  O_39
REMARK    8  A    between atoms: C_11  and  O_38
REMARK    9  A    between atoms: C_12  and  O_37
REMARK   10  A    between atoms: C_13  and  O_15
REMARK   11  A    between atoms: O_15  and  C_16
REMARK   12  A    between atoms: C_17  and  C_29
REMARK   13  A    between atoms: C_21  and  O_28
REMARK   14  A    between atoms: C_23  and  O_27
REMARK   15  A    between atoms: C_31  and  O_36
REMARK   16  A    between atoms: C_32  and  O_35
REMARK                            x       y       z     vdW  Elec       q    Type
REMARK                         _______ _______ _______ _____ _____    ______ ____
ROOT
ATOM      1  C   UNL     1       7.997  -1.362  22.484  0.00  0.00    +0.179 C 
ATOM      2  O   UNL     1       6.735  -1.874  22.967  0.00  0.00    -0.331 OA
ATOM      3  C   UNL     1       6.766  -2.051  24.396  0.00  0.00    +0.340 C 
ATOM      4  C   UNL     1       7.755  -3.191  24.721  0.00  0.00    +0.214 C 
ATOM      5  C   UNL     1       9.160  -2.786  24.233  0.00  0.00    +0.180 C 
ATOM      6  C   UNL     1       9.115  -2.393  22.741  0.00  0.00    +0.177 C 
ENDROOT
BRANCH   6   7
ATOM      7  O   UNL     1      10.368  -1.930  22.244  0.00  0.00    -0.386 OA
ATOM      8  H   UNL     1      10.640  -1.145  22.755  0.00  0.00    +0.210 HD
ENDBRANCH   6   7
BRANCH   5   9
ATOM      9  O   UNL     1      10.076  -3.870  24.423  0.00  0.00    -0.386 OA
ATOM     10  H   UNL     1      10.635  -3.623  25.187  0.00  0.00    +0.210 HD
ENDBRANCH   5   9
BRANCH   4  11
ATOM     11  O   UNL     1       7.387  -4.418  24.045  0.00  0.00    -0.383 OA
ATOM     12  H   UNL     1       6.781  -4.899  24.641  0.00  0.00    +0.210 HD
ENDBRANCH   4  11
BRANCH   3  13
ATOM     13  O   UNL     1       5.455  -2.328  24.892  0.00  0.00    -0.453 OA
BRANCH  13  14
ATOM     14  C   UNL     1       5.073  -1.552  25.991  0.00  0.00    +0.214 A 
ATOM     15  C   UNL     1       4.917  -0.065  25.848  0.00  0.00    +0.238 A 
ATOM     16  O   UNL     1       5.255   0.504  24.816  0.00  0.00    -0.283 OA
ATOM     17  C   UNL     1       4.367   0.680  26.985  0.00  0.00    +0.109 A 
ATOM     18  C   UNL     1       4.225  -0.001  28.190  0.00  0.00    +0.147 A 
ATOM     19  C   UNL     1       3.821   0.690  29.337  0.00  0.00    +0.092 A 
ATOM     20  C   UNL     1       3.561   2.060  29.250  0.00  0.00    +0.124 A 
ATOM     21  C   UNL     1       3.657   2.736  28.044  0.00  0.00    +0.091 A 
ATOM     22  O   UNL     1       4.479  -1.344  28.328  0.00  0.00    -0.451 OA
ATOM     23  C   UNL     1       4.054   2.046  26.905  0.00  0.00    +0.135 A 
ATOM     24  C   UNL     1       4.874  -2.088  27.216  0.00  0.00    +0.181 A 
BRANCH  24  25
ATOM     25  C   UNL     1       5.034  -3.544  27.518  0.00  0.00    +0.025 A 
ATOM     26  C   UNL     1       3.910  -4.349  27.783  0.00  0.00    +0.015 A 
ATOM     27  C   UNL     1       4.035  -5.720  28.043  0.00  0.00    +0.050 A 
ATOM     28  C   UNL     1       5.291  -6.297  28.030  0.00  0.00    +0.158 A 
ATOM     29  C   UNL     1       6.424  -5.527  27.807  0.00  0.00    +0.159 A 
ATOM     30  C   UNL     1       6.304  -4.159  27.572  0.00  0.00    +0.060 A 
BRANCH  29  31
ATOM     31  O   UNL     1       7.636  -6.157  27.816  0.00  0.00    -0.503 OA
ATOM     32  H   UNL     1       7.625  -6.846  27.128  0.00  0.00    +0.292 HD
ENDBRANCH  29  31
BRANCH  28  33
ATOM     33  O   UNL     1       5.414  -7.640  28.254  0.00  0.00    -0.503 OA
ATOM     34  H   UNL     1       5.734  -8.006  27.404  0.00  0.00    +0.292 HD
ENDBRANCH  28  33
ENDBRANCH  24  25
BRANCH  23  35
ATOM     35  O   UNL     1       4.119   2.718  25.718  0.00  0.00    -0.506 OA
ATOM     36  H   UNL     1       3.436   3.409  25.681  0.00  0.00    +0.292 HD
ENDBRANCH  23  35
BRANCH  20  37
ATOM     37  O   UNL     1       3.189   2.789  30.341  0.00  0.00    -0.507 OA
ATOM     38  H   UNL     1       2.270   3.073  30.241  0.00  0.00    +0.292 HD
ENDBRANCH  20  37
ENDBRANCH  13  14
ENDBRANCH   3  13
BRANCH   1  39
ATOM     39  C   UNL     1       8.292   0.054  23.059  0.00  0.00    +0.197 C 
BRANCH  39  40
ATOM     40  O   UNL     1       9.588   0.268  23.587  0.00  0.00    -0.346 OA
BRANCH  40  43
ATOM     41  C   UNL     1       8.749   3.575  24.642  0.00  0.00    +0.197 C 
ATOM     42  O   UNL     1       8.606   2.285  24.052  0.00  0.00    -0.346 OA
ATOM     43  C   UNL     1       9.860   1.597  24.009  0.00  0.00    +0.281 C 
ATOM     44  C   UNL     1      10.788   2.345  23.030  0.00  0.00    +0.201 C 
ATOM     45  C   UNL     1      11.015   3.756  23.571  0.00  0.00    +0.178 C 
ATOM     46  C   UNL     1       9.678   4.471  23.824  0.00  0.00    +0.171 C 
BRANCH  46  47
ATOM     47  O   UNL     1       9.872   5.696  24.536  0.00  0.00    -0.387 OA
ATOM     48  H   UNL     1       9.145   5.786  25.178  0.00  0.00    +0.210 HD
ENDBRANCH  46  47
BRANCH  45  49
ATOM     49  O   UNL     1      11.812   4.510  22.652  0.00  0.00    -0.386 OA
ATOM     50  H   UNL     1      11.883   5.408  23.038  0.00  0.00    +0.210 HD
ENDBRANCH  45  49
BRANCH  44  51
ATOM     51  O   UNL     1      10.206   2.440  21.718  0.00  0.00    -0.384 OA
ATOM     52  H   UNL     1       9.252   2.233  21.827  0.00  0.00    +0.210 HD
ENDBRANCH  44  51
ENDBRANCH  40  43
ENDBRANCH  39  40
ENDBRANCH   1  39
TORSDOF 16
ENDMDL
MODEL 7
REMARK VINA RESULT:      -6.6      2.427      6.842
REMARK  Name = 
REMARK  16 active torsions:
REMARK  status: ('A' for Active; 'I' for Inactive)
REMARK    1  A    between atoms: C_2  and  O_42
REMARK    2  A    between atoms: C_3  and  O_41
REMARK    3  A    between atoms: C_4  and  O_40
REMARK    4  A    between atoms: C_5  and  O_7
REMARK    5  A    between atoms: O_7  and  C_8
REMARK    6  A    between atoms: C_8  and  C_9
REMARK    7  A    between atoms: C_10  and  O_39
REMARK    8  A    between atoms: C_11  and  O_38
REMARK    9  A    between atoms: C_12  and  O_37
REMARK   10  A    between atoms: C_13  and  O_15
REMARK   11  A    between atoms: O_15  and  C_16
REMARK   12  A    between atoms: C_17  and  C_29
REMARK   13  A    between atoms: C_21  and  O_28
REMARK   14  A    between atoms: C_23  and  O_27
REMARK   15  A    between atoms: C_31  and  O_36
REMARK   16  A    between atoms: C_32  and  O_35
REMARK                            x       y       z     vdW  Elec       q    Type
REMARK                         _______ _______ _______ _____ _____    ______ ____
ROOT
ATOM      1  C   UNL     1       6.827   2.770  26.973  0.00  0.00    +0.179 C 
ATOM      2  O   UNL     1       7.338   1.429  27.143  0.00  0.00    -0.331 OA
ATOM      3  C   UNL     1       6.596   0.491  26.341  0.00  0.00    +0.340 C 
ATOM      4  C   UNL     1       5.164   0.395  26.910  0.00  0.00    +0.214 C 
ATOM      5  C   UNL     1       4.495   1.780  26.814  0.00  0.00    +0.180 C 
ATOM      6  C   UNL     1       5.378   2.849  27.495  0.00  0.00    +0.177 C 
ENDROOT
BRANCH   6   7
ATOM      7  O   UNL     1       4.855   4.169  27.372  0.00  0.00    -0.386 OA
ATOM      8  H   UNL     1       4.413   4.413  28.206  0.00  0.00    +0.210 HD
ENDBRANCH   6   7
BRANCH   5   9
ATOM      9  O   UNL     1       3.205   1.746  27.435  0.00  0.00    -0.386 OA
ATOM     10  H   UNL     1       3.246   1.037  28.107  0.00  0.00    +0.210 HD
ENDBRANCH   5   9
BRANCH   4  11
ATOM     11  O   UNL     1       5.176   0.005  28.306  0.00  0.00    -0.383 OA
ATOM     12  H   UNL     1       5.923   0.476  28.725  0.00  0.00    +0.210 HD
ENDBRANCH   4  11
BRANCH   3  13
ATOM     13  O   UNL     1       7.249  -0.780  26.329  0.00  0.00    -0.453 OA
BRANCH  13  14
ATOM     14  C   UNL     1       6.662  -1.727  25.483  0.00  0.00    +0.214 A 
ATOM     15  C   UNL     1       5.836  -2.843  26.057  0.00  0.00    +0.238 A 
ATOM     16  O   UNL     1       5.783  -3.024  27.269  0.00  0.00    -0.283 OA
ATOM     17  C   UNL     1       5.118  -3.715  25.123  0.00  0.00    +0.109 A 
ATOM     18  C   UNL     1       5.412  -3.587  23.769  0.00  0.00    +0.147 A 
ATOM     19  C   UNL     1       4.848  -4.473  22.846  0.00  0.00    +0.092 A 
ATOM     20  C   UNL     1       3.990  -5.476  23.302  0.00  0.00    +0.124 A 
ATOM     21  C   UNL     1       3.656  -5.582  24.644  0.00  0.00    +0.091 A 
ATOM     22  O   UNL     1       6.259  -2.625  23.273  0.00  0.00    -0.451 OA
ATOM     23  C   UNL     1       4.214  -4.697  25.557  0.00  0.00    +0.135 A 
ATOM     24  C   UNL     1       6.842  -1.705  24.144  0.00  0.00    +0.181 A 
BRANCH  24  25
ATOM     25  C   UNL     1       7.672  -0.681  23.437  0.00  0.00    +0.025 A 
ATOM     26  C   UNL     1       9.074  -0.805  23.386  0.00  0.00    +0.015 A 
ATOM     27  C   UNL     1       9.868   0.128  22.709  0.00  0.00    +0.050 A 
ATOM     28  C   UNL     1       9.261   1.191  22.067  0.00  0.00    +0.158 A 
ATOM     29  C   UNL     1       7.885   1.364  22.125  0.00  0.00    +0.159 A 
ATOM     30  C   UNL     1       7.095   0.450  22.819  0.00  0.00    +0.060 A 
BRANCH  29  31
ATOM     31  O   UNL     1       7.348   2.440  21.477  0.00  0.00    -0.503 OA
ATOM     32  H   UNL     1       6.663   2.828  22.050  0.00  0.00    +0.292 HD
ENDBRANCH  29  31
BRANCH  28  33
ATOM     33  O   UNL     1      10.030   2.088  21.378  0.00  0.00    -0.503 OA
ATOM     34  H   UNL     1       9.399   2.572  20.807  0.00  0.00    +0.292 HD
ENDBRANCH  28  33
ENDBRANCH  24  25
BRANCH  23  35
ATOM     35  O   UNL     1       3.856  -4.796  26.872  0.00  0.00    -0.506 OA
ATOM     36  H   UNL     1       3.226  -5.525  26.999  0.00  0.00    +0.292 HD
ENDBRANCH  23  35
BRANCH  20  37
ATOM     37  O   UNL     1       3.432  -6.384  22.451  0.00  0.00    -0.507 OA
ATOM     38  H   UNL     1       3.111  -5.929  21.660  0.00  0.00    +0.292 HD
ENDBRANCH  20  37
ENDBRANCH  13  14
ENDBRANCH   3  13
BRANCH   1  39
ATOM     39  C   UNL     1       7.004   3.263  25.507  0.00  0.00    +0.197 C 
BRANCH  39  40
ATOM     40  O   UNL     1       7.355   4.624  25.333  0.00  0.00    -0.346 OA
BRANCH  40  43
ATOM     41  C   UNL     1      10.272   6.679  25.194  0.00  0.00    +0.197 C 
ATOM     42  O   UNL     1       8.900   6.302  25.115  0.00  0.00    -0.346 OA
ATOM     43  C   UNL     1       8.747   4.884  25.232  0.00  0.00    +0.281 C 
ATOM     44  C   UNL     1       9.379   4.226  23.989  0.00  0.00    +0.201 C 
ATOM     45  C   UNL     1      10.868   4.565  23.974  0.00  0.00    +0.178 C 
ATOM     46  C   UNL     1      11.088   6.084  24.048  0.00  0.00    +0.171 C 
BRANCH  46  47
ATOM     47  O   UNL     1      12.467   6.399  24.260  0.00  0.00    -0.387 OA
ATOM     48  H   UNL     1      12.965   6.102  23.476  0.00  0.00    +0.210 HD
ENDBRANCH  46  47
BRANCH  45  49
ATOM     49  O   UNL     1      11.479   4.035  22.792  0.00  0.00    -0.386 OA
ATOM     50  H   UNL     1      10.752   3.930  22.143  0.00  0.00    +0.210 HD
ENDBRANCH  45  49
BRANCH  44  51
ATOM     51  O   UNL     1       8.781   4.710  22.773  0.00  0.00    -0.384 OA
ATOM     52  H   UNL     1       8.458   5.617  22.970  0.00  0.00    +0.210 HD
ENDBRANCH  44  51
ENDBRANCH  40  43
ENDBRANCH  39  40
ENDBRANCH   1  39
TORSDOF 16
ENDMDL
MODEL 8
REMARK VINA RESULT:      -6.5      2.195      4.834
REMARK  Name = 
REMARK  16 active torsions:
REMARK  status: ('A' for Active; 'I' for Inactive)
REMARK    1  A    between atoms: C_2  and  O_42
REMARK    2  A    between atoms: C_3  and  O_41
REMARK    3  A    between atoms: C_4  and  O_40
REMARK    4  A    between atoms: C_5  and  O_7
REMARK    5  A    between atoms: O_7  and  C_8
REMARK    6  A    between atoms: C_8  and  C_9
REMARK    7  A    between atoms: C_10  and  O_39
REMARK    8  A    between atoms: C_11  and  O_38
REMARK    9  A    between atoms: C_12  and  O_37
REMARK   10  A    between atoms: C_13  and  O_15
REMARK   11  A    between atoms: O_15  and  C_16
REMARK   12  A    between atoms: C_17  and  C_29
REMARK   13  A    between atoms: C_21  and  O_28
REMARK   14  A    between atoms: C_23  and  O_27
REMARK   15  A    between atoms: C_31  and  O_36
REMARK   16  A    between atoms: C_32  and  O_35
REMARK                            x       y       z     vdW  Elec       q    Type
REMARK                         _______ _______ _______ _____ _____    ______ ____
ROOT
ATOM      1  C   UNL     1       8.495   0.104  22.655  0.00  0.00    +0.179 C 
ATOM      2  O   UNL     1       8.904  -0.683  23.796  0.00  0.00    -0.331 OA
ATOM      3  C   UNL     1       8.934   0.121  24.991  0.00  0.00    +0.340 C 
ATOM      4  C   UNL     1      10.072   1.155  24.850  0.00  0.00    +0.214 C 
ATOM      5  C   UNL     1       9.776   2.061  23.640  0.00  0.00    +0.180 C 
ATOM      6  C   UNL     1       9.537   1.205  22.376  0.00  0.00    +0.177 C 
ENDROOT
BRANCH   6   7
ATOM      7  O   UNL     1       9.179   1.979  21.235  0.00  0.00    -0.386 OA
ATOM      8  H   UNL     1       9.061   1.382  20.472  0.00  0.00    +0.210 HD
ENDBRANCH   6   7
BRANCH   5   9
ATOM      9  O   UNL     1      10.871   2.958  23.420  0.00  0.00    -0.386 OA
ATOM     10  H   UNL     1      11.684   2.426  23.531  0.00  0.00    +0.210 HD
ENDBRANCH   5   9
BRANCH   4  11
ATOM     11  O   UNL     1      11.347   0.506  24.618  0.00  0.00    -0.383 OA
ATOM     12  H   UNL     1      12.023   1.035  25.085  0.00  0.00    +0.210 HD
ENDBRANCH   4  11
BRANCH   3  13
ATOM     13  O   UNL     1       9.106  -0.706  26.144  0.00  0.00    -0.453 OA
BRANCH  13  14
ATOM     14  C   UNL     1       8.009  -1.521  26.442  0.00  0.00    +0.214 A 
ATOM     15  C   UNL     1       8.102  -3.009  26.256  0.00  0.00    +0.238 A 
ATOM     16  O   UNL     1       9.078  -3.513  25.711  0.00  0.00    -0.283 OA
ATOM     17  C   UNL     1       6.983  -3.830  26.728  0.00  0.00    +0.109 A 
ATOM     18  C   UNL     1       5.824  -3.171  27.122  0.00  0.00    +0.147 A 
ATOM     19  C   UNL     1       4.686  -3.907  27.465  0.00  0.00    +0.092 A 
ATOM     20  C   UNL     1       4.735  -5.302  27.410  0.00  0.00    +0.124 A 
ATOM     21  C   UNL     1       5.900  -5.968  27.062  0.00  0.00    +0.091 A 
ATOM     22  O   UNL     1       5.722  -1.801  27.181  0.00  0.00    -0.451 OA
ATOM     23  C   UNL     1       7.030  -5.234  26.726  0.00  0.00    +0.135 A 
ATOM     24  C   UNL     1       6.828  -1.015  26.862  0.00  0.00    +0.181 A 
BRANCH  24  25
ATOM     25  C   UNL     1       6.576   0.447  27.051  0.00  0.00    +0.025 A 
ATOM     26  C   UNL     1       5.672   1.132  26.216  0.00  0.00    +0.015 A 
ATOM     27  C   UNL     1       5.402   2.496  26.392  0.00  0.00    +0.050 A 
ATOM     28  C   UNL     1       6.029   3.181  27.415  0.00  0.00    +0.158 A 
ATOM     29  C   UNL     1       6.950   2.546  28.236  0.00  0.00    +0.159 A 
ATOM     30  C   UNL     1       7.240   1.196  28.048  0.00  0.00    +0.060 A 
BRANCH  29  31
ATOM     31  O   UNL     1       7.542   3.283  29.223  0.00  0.00    -0.503 OA
ATOM     32  H   UNL     1       8.441   2.937  29.361  0.00  0.00    +0.292 HD
ENDBRANCH  29  31
BRANCH  28  33
ATOM     33  O   UNL     1       5.744   4.505  27.609  0.00  0.00    -0.503 OA
ATOM     34  H   UNL     1       5.718   4.889  26.709  0.00  0.00    +0.292 HD
ENDBRANCH  28  33
ENDBRANCH  24  25
BRANCH  23  35
ATOM     35  O   UNL     1       8.179  -5.902  26.410  0.00  0.00    -0.506 OA
ATOM     36  H   UNL     1       8.555  -5.559  25.583  0.00  0.00    +0.292 HD
ENDBRANCH  23  35
BRANCH  20  37
ATOM     37  O   UNL     1       3.648  -6.070  27.709  0.00  0.00    -0.507 OA
ATOM     38  H   UNL     1       2.998  -5.998  26.997  0.00  0.00    +0.292 HD
ENDBRANCH  20  37
ENDBRANCH  13  14
ENDBRANCH   3  13
BRANCH   1  39
ATOM     39  C   UNL     1       7.040   0.631  22.823  0.00  0.00    +0.197 C 
BRANCH  39  40
ATOM     40  O   UNL     1       6.697   1.793  22.089  0.00  0.00    -0.346 OA
BRANCH  40  43
ATOM     41  C   UNL     1       4.127   4.137  22.895  0.00  0.00    +0.197 C 
ATOM     42  O   UNL     1       4.912   3.229  22.127  0.00  0.00    -0.346 OA
ATOM     43  C   UNL     1       6.085   2.829  22.843  0.00  0.00    +0.281 C 
ATOM     44  C   UNL     1       7.000   4.061  22.998  0.00  0.00    +0.201 C 
ATOM     45  C   UNL     1       6.252   5.111  23.818  0.00  0.00    +0.178 C 
ATOM     46  C   UNL     1       4.886   5.430  23.190  0.00  0.00    +0.171 C 
BRANCH  46  47
ATOM     47  O   UNL     1       4.090   6.237  24.063  0.00  0.00    -0.387 OA
ATOM     48  H   UNL     1       3.165   5.943  23.979  0.00  0.00    +0.210 HD
ENDBRANCH  46  47
BRANCH  45  49
ATOM     49  O   UNL     1       7.039   6.303  23.922  0.00  0.00    -0.386 OA
ATOM     50  H   UNL     1       6.614   6.840  24.622  0.00  0.00    +0.210 HD
ENDBRANCH  45  49
BRANCH  44  51
ATOM     51  O   UNL     1       7.343   4.629  21.721  0.00  0.00    -0.384 OA
ATOM     52  H   UNL     1       7.885   3.953  21.259  0.00  0.00    +0.210 HD
ENDBRANCH  44  51
ENDBRANCH  40  43
ENDBRANCH  39  40
ENDBRANCH   1  39
TORSDOF 16
ENDMDL
MODEL 9
REMARK VINA RESULT:      -6.5      1.671      6.514
REMARK  Name = 
REMARK  16 active torsions:
REMARK  status: ('A' for Active; 'I' for Inactive)
REMARK    1  A    between atoms: C_2  and  O_42
REMARK    2  A    between atoms: C_3  and  O_41
REMARK    3  A    between atoms: C_4  and  O_40
REMARK    4  A    between atoms: C_5  and  O_7
REMARK    5  A    between atoms: O_7  and  C_8
REMARK    6  A    between atoms: C_8  and  C_9
REMARK    7  A    between atoms: C_10  and  O_39
REMARK    8  A    between atoms: C_11  and  O_38
REMARK    9  A    between atoms: C_12  and  O_37
REMARK   10  A    between atoms: C_13  and  O_15
REMARK   11  A    between atoms: O_15  and  C_16
REMARK   12  A    between atoms: C_17  and  C_29
REMARK   13  A    between atoms: C_21  and  O_28
REMARK   14  A    between atoms: C_23  and  O_27
REMARK   15  A    between atoms: C_31  and  O_36
REMARK   16  A    between atoms: C_32  and  O_35
REMARK                            x       y       z     vdW  Elec       q    Type
REMARK                         _______ _______ _______ _____ _____    ______ ____
ROOT
ATOM      1  C   UNL     1       6.583  -4.598  23.901  0.00  0.00    +0.179 C 
ATOM      2  O   UNL     1       6.116  -4.250  25.223  0.00  0.00    -0.331 OA
ATOM      3  C   UNL     1       7.079  -3.429  25.909  0.00  0.00    +0.340 C 
ATOM      4  C   UNL     1       8.331  -4.287  26.193  0.00  0.00    +0.214 C 
ATOM      5  C   UNL     1       8.930  -4.754  24.852  0.00  0.00    +0.180 C 
ATOM      6  C   UNL     1       7.853  -5.465  24.004  0.00  0.00    +0.177 C 
ENDROOT
BRANCH   6   7
ATOM      7  O   UNL     1       8.321  -5.853  22.715  0.00  0.00    -0.386 OA
ATOM      8  H   UNL     1       9.223  -6.213  22.801  0.00  0.00    +0.210 HD
ENDBRANCH   6   7
BRANCH   5   9
ATOM      9  O   UNL     1      10.028  -5.642  25.089  0.00  0.00    -0.386 OA
ATOM     10  H   UNL     1      10.123  -5.704  26.061  0.00  0.00    +0.210 HD
ENDBRANCH   5   9
BRANCH   4  11
ATOM     11  O   UNL     1       7.997  -5.467  26.965  0.00  0.00    -0.383 OA
ATOM     12  H   UNL     1       8.825  -5.974  27.079  0.00  0.00    +0.210 HD
ENDBRANCH   4  11
BRANCH   3  13
ATOM     13  O   UNL     1       6.516  -2.897  27.110  0.00  0.00    -0.453 OA
BRANCH  13  14
ATOM     14  C   UNL     1       5.856  -1.675  26.950  0.00  0.00    +0.214 A 
ATOM     15  C   UNL     1       6.636  -0.391  26.938  0.00  0.00    +0.238 A 
ATOM     16  O   UNL     1       7.832  -0.383  27.209  0.00  0.00    -0.283 OA
ATOM     17  C   UNL     1       5.919   0.845  26.614  0.00  0.00    +0.109 A 
ATOM     18  C   UNL     1       4.530   0.783  26.546  0.00  0.00    +0.147 A 
ATOM     19  C   UNL     1       3.789   1.954  26.360  0.00  0.00    +0.092 A 
ATOM     20  C   UNL     1       4.460   3.173  26.241  0.00  0.00    +0.124 A 
ATOM     21  C   UNL     1       5.845   3.238  26.262  0.00  0.00    +0.091 A 
ATOM     22  O   UNL     1       3.824  -0.390  26.669  0.00  0.00    -0.451 OA
ATOM     23  C   UNL     1       6.578   2.072  26.442  0.00  0.00    +0.135 A 
ATOM     24  C   UNL     1       4.511  -1.591  26.844  0.00  0.00    +0.181 A 
BRANCH  24  25
ATOM     25  C   UNL     1       3.602  -2.779  26.882  0.00  0.00    +0.025 A 
ATOM     26  C   UNL     1       2.920  -3.197  25.723  0.00  0.00    +0.015 A 
ATOM     27  C   UNL     1       2.084  -4.321  25.730  0.00  0.00    +0.050 A 
ATOM     28  C   UNL     1       1.934  -5.042  26.900  0.00  0.00    +0.158 A 
ATOM     29  C   UNL     1       2.565  -4.639  28.068  0.00  0.00    +0.159 A 
ATOM     30  C   UNL     1       3.377  -3.508  28.070  0.00  0.00    +0.060 A 
BRANCH  29  31
ATOM     31  O   UNL     1       2.368  -5.391  29.193  0.00  0.00    -0.503 OA
ATOM     32  H   UNL     1       1.849  -6.177  28.944  0.00  0.00    +0.292 HD
ENDBRANCH  29  31
BRANCH  28  33
ATOM     33  O   UNL     1       1.144  -6.158  26.903  0.00  0.00    -0.503 OA
ATOM     34  H   UNL     1       1.112  -6.445  25.967  0.00  0.00    +0.292 HD
ENDBRANCH  28  33
ENDBRANCH  24  25
BRANCH  23  35
ATOM     35  O   UNL     1       7.943   2.146  26.435  0.00  0.00    -0.506 OA
ATOM     36  H   UNL     1       8.316   1.605  27.151  0.00  0.00    +0.292 HD
ENDBRANCH  23  35
BRANCH  20  37
ATOM     37  O   UNL     1       3.787   4.349  26.084  0.00  0.00    -0.507 OA
ATOM     38  H   UNL     1       3.310   4.337  25.243  0.00  0.00    +0.292 HD
ENDBRANCH  20  37
ENDBRANCH  13  14
ENDBRANCH   3  13
BRANCH   1  39
ATOM     39  C   UNL     1       6.745  -3.334  23.006  0.00  0.00    +0.197 C 
BRANCH  39  40
ATOM     40  O   UNL     1       8.068  -2.967  22.659  0.00  0.00    -0.346 OA
BRANCH  40  43
ATOM     41  C   UNL     1       9.371  -0.024  21.111  0.00  0.00    +0.197 C 
ATOM     42  O   UNL     1       9.220  -1.401  21.447  0.00  0.00    -0.346 OA
ATOM     43  C   UNL     1       8.296  -1.572  22.526  0.00  0.00    +0.281 C 
ATOM     44  C   UNL     1       8.917  -0.953  23.795  0.00  0.00    +0.201 C 
ATOM     45  C   UNL     1       9.121   0.540  23.548  0.00  0.00    +0.178 C 
ATOM     46  C   UNL     1       9.949   0.780  22.276  0.00  0.00    +0.171 C 
BRANCH  46  47
ATOM     47  O   UNL     1       9.956   2.164  21.914  0.00  0.00    -0.387 OA
ATOM     48  H   UNL     1       9.283   2.294  21.223  0.00  0.00    +0.210 HD
ENDBRANCH  46  47
BRANCH  45  49
ATOM     49  O   UNL     1       9.767   1.139  24.677  0.00  0.00    -0.386 OA
ATOM     50  H   UNL     1       9.348   0.734  25.466  0.00  0.00    +0.210 HD
ENDBRANCH  45  49
BRANCH  44  51
ATOM     51  O   UNL     1      10.189  -1.550  24.106  0.00  0.00    -0.384 OA
ATOM     52  H   UNL     1      10.750  -0.826  24.461  0.00  0.00    +0.210 HD
ENDBRANCH  44  51
ENDBRANCH  40  43
ENDBRANCH  39  40
ENDBRANCH   1  39
TORSDOF 16
ENDMDL
