MODEL 1
REMARK VINA RESULT:      -7.4      0.000      0.000
REMARK  Name = 
REMARK  23 active torsions:
REMARK  status: ('A' for Active; 'I' for Inactive)
REMARK    1  A    between atoms: C_1  and  C_2
REMARK    2  A    between atoms: C_3  and  O_54
REMARK    3  A    between atoms: C_4  and  O_53
REMARK    4  A    between atoms: C_5  and  O_52
REMARK    5  A    between atoms: C_6  and  O_8
REMARK    6  A    between atoms: O_8  and  C_9
REMARK    7  A    between atoms: C_11  and  O_51
REMARK    8  A    between atoms: C_16  and  C_43
REMARK    9  A    between atoms: C_17  and  O_20
REMARK   10  A    between atoms: O_20  and  C_21
REMARK   11  A    between atoms: C_22  and  O_42
REMARK   12  A    between atoms: C_23  and  O_41
REMARK   13  A    between atoms: C_24  and  O_40
REMARK   14  A    between atoms: C_25  and  C_27
REMARK   15  A    between atoms: C_27  and  O_28
REMARK   16  A    between atoms: O_28  and  C_29
REMARK   17  A    between atoms: C_30  and  O_39
REMARK   18  A    between atoms: C_31  and  O_38
REMARK   19  A    between atoms: C_32  and  O_37
REMARK   20  A    between atoms: C_33  and  C_35
REMARK   21  A    between atoms: C_35  and  O_36
REMARK   22  A    between atoms: C_45  and  O_50
REMARK   23  A    between atoms: C_46  and  O_49
REMARK                            x       y       z     vdW  Elec       q    Type
REMARK                         _______ _______ _______ _____ _____    ______ ____
ROOT
ATOM      1  C   UNL     1       5.913   2.872  24.841  0.00  0.00    +0.131 A 
ATOM      2  C   UNL     1       5.690   1.607  24.283  0.00  0.00    +0.093 A 
ATOM      3  C   UNL     1       5.475   0.501  25.112  0.00  0.00    +0.147 A 
ATOM      4  O   UNL     1       5.262  -0.720  24.516  0.00  0.00    -0.451 OA
ATOM      5  C   UNL     1       4.897  -1.794  25.322  0.00  0.00    +0.181 A 
ATOM      6  C   UNL     1       4.927  -1.798  26.674  0.00  0.00    +0.214 A 
ATOM      7  C   UNL     1       5.443  -0.545  27.321  0.00  0.00    +0.238 A 
ATOM      8  O   UNL     1       5.864  -0.502  28.470  0.00  0.00    -0.283 OA
ATOM      9  C   UNL     1       5.503   0.661  26.492  0.00  0.00    +0.109 A 
ATOM     10  C   UNL     1       5.665   1.934  27.049  0.00  0.00    +0.135 A 
ATOM     11  C   UNL     1       5.873   3.032  26.226  0.00  0.00    +0.092 A 
ENDROOT
BRANCH   5  12
ATOM     12  C   UNL     1       4.527  -3.006  24.554  0.00  0.00    +0.025 A 
ATOM     13  C   UNL     1       3.445  -3.792  24.990  0.00  0.00    +0.015 A 
ATOM     14  C   UNL     1       3.058  -4.930  24.270  0.00  0.00    +0.050 A 
ATOM     15  C   UNL     1       3.750  -5.269  23.117  0.00  0.00    +0.158 A 
ATOM     16  C   UNL     1       4.829  -4.504  22.684  0.00  0.00    +0.159 A 
ATOM     17  C   UNL     1       5.228  -3.370  23.395  0.00  0.00    +0.060 A 
BRANCH  16  18
ATOM     18  O   UNL     1       5.467  -4.914  21.545  0.00  0.00    -0.503 OA
ATOM     19  H   UNL     1       5.351  -5.874  21.449  0.00  0.00    +0.292 HD
ENDBRANCH  16  18
BRANCH  15  20
ATOM     20  O   UNL     1       3.361  -6.372  22.412  0.00  0.00    -0.503 OA
ATOM     21  H   UNL     1       4.081  -7.021  22.546  0.00  0.00    +0.292 HD
ENDBRANCH  15  20
ENDBRANCH   5  12
BRANCH  10  22
ATOM     22  O   UNL     1       5.593   2.129  28.401  0.00  0.00    -0.506 OA
ATOM     23  H   UNL     1       5.361   3.051  28.595  0.00  0.00    +0.292 HD
ENDBRANCH  10  22
BRANCH   6  24
ATOM     24  O   UNL     1       4.535  -2.931  27.394  0.00  0.00    -0.453 OA
BRANCH  24  25
ATOM     25  C   UNL     1       5.548  -3.551  28.200  0.00  0.00    +0.340 C 
ATOM     26  O   UNL     1       6.829  -3.547  27.538  0.00  0.00    -0.331 OA
ATOM     27  C   UNL     1       6.855  -4.333  26.335  0.00  0.00    +0.179 C 
ATOM     28  C   UNL     1       6.642  -5.788  26.770  0.00  0.00    +0.177 C 
ATOM     29  C   UNL     1       5.284  -5.966  27.452  0.00  0.00    +0.180 C 
ATOM     30  C   UNL     1       5.135  -4.983  28.616  0.00  0.00    +0.214 C 
BRANCH  30  31
ATOM     31  O   UNL     1       3.816  -5.015  29.180  0.00  0.00    -0.383 OA
ATOM     32  H   UNL     1       3.759  -4.305  29.843  0.00  0.00    +0.210 HD
ENDBRANCH  30  31
BRANCH  29  33
ATOM     33  O   UNL     1       5.197  -7.313  27.944  0.00  0.00    -0.386 OA
ATOM     34  H   UNL     1       4.765  -7.247  28.822  0.00  0.00    +0.210 HD
ENDBRANCH  29  33
BRANCH  28  35
ATOM     35  O   UNL     1       7.660  -6.150  27.736  0.00  0.00    -0.386 OA
ATOM     36  H   UNL     1       8.341  -6.672  27.261  0.00  0.00    +0.210 HD
ENDBRANCH  28  35
BRANCH  27  37
ATOM     37  C   UNL     1       8.240  -4.231  25.658  0.00  0.00    +0.197 C 
BRANCH  37  38
ATOM     38  O   UNL     1       8.987  -3.038  25.955  0.00  0.00    -0.346 OA
BRANCH  38  39
ATOM     39  C   UNL     1       8.281  -1.890  25.428  0.00  0.00    +0.282 C 
ATOM     40  O   UNL     1       8.104  -1.953  24.008  0.00  0.00    -0.341 OA
ATOM     41  C   UNL     1       9.337  -1.893  23.264  0.00  0.00    +0.178 C 
ATOM     42  C   UNL     1      10.027  -0.552  23.538  0.00  0.00    +0.177 C 
ATOM     43  C   UNL     1      10.268  -0.376  25.044  0.00  0.00    +0.179 C 
ATOM     44  C   UNL     1       8.956  -0.562  25.824  0.00  0.00    +0.201 C 
BRANCH  44  45
ATOM     45  O   UNL     1       9.159  -0.489  27.240  0.00  0.00    -0.384 OA
ATOM     46  H   UNL     1       8.863   0.396  27.516  0.00  0.00    +0.210 HD
ENDBRANCH  44  45
BRANCH  43  47
ATOM     47  O   UNL     1      10.807   0.937  25.274  0.00  0.00    -0.386 OA
ATOM     48  H   UNL     1      10.046   1.503  25.513  0.00  0.00    +0.210 HD
ENDBRANCH  43  47
BRANCH  42  49
ATOM     49  O   UNL     1       9.215   0.551  23.085  0.00  0.00    -0.386 OA
ATOM     50  H   UNL     1       8.378   0.184  22.735  0.00  0.00    +0.210 HD
ENDBRANCH  42  49
BRANCH  41  51
ATOM     51  C   UNL     1       8.998  -2.053  21.770  0.00  0.00    +0.190 C 
BRANCH  51  52
ATOM     52  O   UNL     1       9.665  -1.077  20.970  0.00  0.00    -0.392 OA
ATOM     53  H   UNL     1       9.059  -0.791  20.268  0.00  0.00    +0.210 HD
ENDBRANCH  51  52
ENDBRANCH  41  51
ENDBRANCH  38  39
ENDBRANCH  37  38
ENDBRANCH  27  37
ENDBRANCH  24  25
ENDBRANCH   6  24
BRANCH   1  54
ATOM     54  O   UNL     1       6.189   4.034  24.178  0.00  0.00    -0.461 OA
BRANCH  54  58
ATOM     55  C   UNL     1       9.201   6.943  25.081  0.00  0.00    +0.041 C 
ATOM     56  C   UNL     1       8.889   6.447  23.666  0.00  0.00    +0.150 C 
ATOM     57  O   UNL     1       7.599   5.831  23.600  0.00  0.00    -0.334 OA
ATOM     58  C   UNL     1       7.501   4.584  24.294  0.00  0.00    +0.339 C 
ATOM     59  C   UNL     1       8.482   3.575  23.656  0.00  0.00    +0.214 C 
ATOM     60  C   UNL     1       9.904   4.134  23.745  0.00  0.00    +0.180 C 
ATOM     61  C   UNL     1       9.976   5.525  23.089  0.00  0.00    +0.174 C 
BRANCH  59  62
ATOM     62  O   UNL     1       8.192   3.346  22.258  0.00  0.00    -0.383 OA
ATOM     63  H   UNL     1       8.478   2.431  22.054  0.00  0.00    +0.210 HD
ENDBRANCH  59  62
BRANCH  60  64
ATOM     64  O   UNL     1      10.829   3.252  23.099  0.00  0.00    -0.386 OA
ATOM     65  H   UNL     1      10.302   2.475  22.812  0.00  0.00    +0.210 HD
ENDBRANCH  60  64
BRANCH  61  66
ATOM     66  O   UNL     1      11.260   6.129  23.257  0.00  0.00    -0.387 OA
ATOM     67  H   UNL     1      11.562   5.950  24.165  0.00  0.00    +0.210 HD
ENDBRANCH  61  66
ENDBRANCH  54  58
ENDBRANCH   1  54
TORSDOF 22
ENDMDL
MODEL 2
REMARK VINA RESULT:      -7.4      2.225      8.823
REMARK  Name = 
REMARK  23 active torsions:
REMARK  status: ('A' for Active; 'I' for Inactive)
REMARK    1  A    between atoms: C_1  and  C_2
REMARK    2  A    between atoms: C_3  and  O_54
REMARK    3  A    between atoms: C_4  and  O_53
REMARK    4  A    between atoms: C_5  and  O_52
REMARK    5  A    between atoms: C_6  and  O_8
REMARK    6  A    between atoms: O_8  and  C_9
REMARK    7  A    between atoms: C_11  and  O_51
REMARK    8  A    between atoms: C_16  and  C_43
REMARK    9  A    between atoms: C_17  and  O_20
REMARK   10  A    between atoms: O_20  and  C_21
REMARK   11  A    between atoms: C_22  and  O_42
REMARK   12  A    between atoms: C_23  and  O_41
REMARK   13  A    between atoms: C_24  and  O_40
REMARK   14  A    between atoms: C_25  and  C_27
REMARK   15  A    between atoms: C_27  and  O_28
REMARK   16  A    between atoms: O_28  and  C_29
REMARK   17  A    between atoms: C_30  and  O_39
REMARK   18  A    between atoms: C_31  and  O_38
REMARK   19  A    between atoms: C_32  and  O_37
REMARK   20  A    between atoms: C_33  and  C_35
REMARK   21  A    between atoms: C_35  and  O_36
REMARK   22  A    between atoms: C_45  and  O_50
REMARK   23  A    between atoms: C_46  and  O_49
REMARK                            x       y       z     vdW  Elec       q    Type
REMARK                         _______ _______ _______ _____ _____    ______ ____
ROOT
ATOM      1  C   UNL     1       3.635  -2.769  27.123  0.00  0.00    +0.131 A 
ATOM      2  C   UNL     1       3.343  -1.466  26.702  0.00  0.00    +0.093 A 
ATOM      3  C   UNL     1       4.380  -0.567  26.428  0.00  0.00    +0.147 A 
ATOM      4  O   UNL     1       4.041   0.702  26.018  0.00  0.00    -0.451 OA
ATOM      5  C   UNL     1       5.058   1.553  25.597  0.00  0.00    +0.181 A 
ATOM      6  C   UNL     1       6.381   1.317  25.744  0.00  0.00    +0.214 A 
ATOM      7  C   UNL     1       6.745   0.049  26.461  0.00  0.00    +0.238 A 
ATOM      8  O   UNL     1       7.836  -0.144  26.982  0.00  0.00    -0.283 OA
ATOM      9  C   UNL     1       5.699  -0.969  26.594  0.00  0.00    +0.109 A 
ATOM     10  C   UNL     1       5.993  -2.287  26.955  0.00  0.00    +0.135 A 
ATOM     11  C   UNL     1       4.964  -3.180  27.222  0.00  0.00    +0.092 A 
ENDROOT
BRANCH   5  12
ATOM     12  C   UNL     1       4.560   2.824  25.020  0.00  0.00    +0.025 A 
ATOM     13  C   UNL     1       4.403   3.944  25.857  0.00  0.00    +0.015 A 
ATOM     14  C   UNL     1       3.958   5.165  25.333  0.00  0.00    +0.050 A 
ATOM     15  C   UNL     1       3.681   5.259  23.978  0.00  0.00    +0.158 A 
ATOM     16  C   UNL     1       3.823   4.154  23.144  0.00  0.00    +0.159 A 
ATOM     17  C   UNL     1       4.261   2.930  23.653  0.00  0.00    +0.060 A 
BRANCH  16  18
ATOM     18  O   UNL     1       3.516   4.327  21.822  0.00  0.00    -0.503 OA
ATOM     19  H   UNL     1       3.910   3.599  21.312  0.00  0.00    +0.292 HD
ENDBRANCH  16  18
BRANCH  15  20
ATOM     20  O   UNL     1       3.260   6.455  23.470  0.00  0.00    -0.503 OA
ATOM     21  H   UNL     1       2.803   6.225  22.636  0.00  0.00    +0.292 HD
ENDBRANCH  15  20
ENDBRANCH   5  12
BRANCH  10  22
ATOM     22  O   UNL     1       7.284  -2.732  27.024  0.00  0.00    -0.506 OA
ATOM     23  H   UNL     1       7.508  -3.237  26.226  0.00  0.00    +0.292 HD
ENDBRANCH  10  22
BRANCH   6  24
ATOM     24  O   UNL     1       7.328   2.238  25.282  0.00  0.00    -0.453 OA
BRANCH  24  25
ATOM     25  C   UNL     1       7.545   2.266  23.863  0.00  0.00    +0.340 C 
ATOM     26  O   UNL     1       8.271   1.105  23.414  0.00  0.00    -0.331 OA
ATOM     27  C   UNL     1       9.607   1.025  23.939  0.00  0.00    +0.179 C 
ATOM     28  C   UNL     1      10.370   2.218  23.348  0.00  0.00    +0.177 C 
ATOM     29  C   UNL     1       9.742   3.543  23.784  0.00  0.00    +0.180 C 
ATOM     30  C   UNL     1       8.252   3.573  23.431  0.00  0.00    +0.214 C 
BRANCH  30  31
ATOM     31  O   UNL     1       7.598   4.735  23.961  0.00  0.00    -0.383 OA
ATOM     32  H   UNL     1       6.640   4.619  23.837  0.00  0.00    +0.210 HD
ENDBRANCH  30  31
BRANCH  29  33
ATOM     33  O   UNL     1      10.420   4.611  23.103  0.00  0.00    -0.386 OA
ATOM     34  H   UNL     1       9.887   5.416  23.275  0.00  0.00    +0.210 HD
ENDBRANCH  29  33
BRANCH  28  35
ATOM     35  O   UNL     1      10.296   2.161  21.902  0.00  0.00    -0.386 OA
ATOM     36  H   UNL     1      11.056   2.673  21.550  0.00  0.00    +0.210 HD
ENDBRANCH  28  35
BRANCH  27  37
ATOM     37  C   UNL     1      10.295  -0.272  23.458  0.00  0.00    +0.197 C 
BRANCH  37  38
ATOM     38  O   UNL     1       9.410  -1.300  22.977  0.00  0.00    -0.346 OA
BRANCH  38  39
ATOM     39  C   UNL     1       8.505  -1.683  24.040  0.00  0.00    +0.282 C 
ATOM     40  O   UNL     1       9.061  -2.675  24.910  0.00  0.00    -0.341 OA
ATOM     41  C   UNL     1       9.300  -3.944  24.270  0.00  0.00    +0.178 C 
ATOM     42  C   UNL     1       7.967  -4.522  23.780  0.00  0.00    +0.177 C 
ATOM     43  C   UNL     1       7.276  -3.531  22.830  0.00  0.00    +0.179 C 
ATOM     44  C   UNL     1       7.140  -2.153  23.497  0.00  0.00    +0.201 C 
BRANCH  44  45
ATOM     45  O   UNL     1       6.577  -1.180  22.609  0.00  0.00    -0.384 OA
ATOM     46  H   UNL     1       5.835  -0.768  23.086  0.00  0.00    +0.210 HD
ENDBRANCH  44  45
BRANCH  43  47
ATOM     47  O   UNL     1       5.981  -4.052  22.485  0.00  0.00    -0.386 OA
ATOM     48  H   UNL     1       6.033  -4.299  21.540  0.00  0.00    +0.210 HD
ENDBRANCH  43  47
BRANCH  42  49
ATOM     49  O   UNL     1       7.075  -4.775  24.885  0.00  0.00    -0.386 OA
ATOM     50  H   UNL     1       6.498  -5.526  24.639  0.00  0.00    +0.210 HD
ENDBRANCH  42  49
BRANCH  41  51
ATOM     51  C   UNL     1       9.969  -4.877  25.297  0.00  0.00    +0.190 C 
BRANCH  51  52
ATOM     52  O   UNL     1       9.327  -4.807  26.570  0.00  0.00    -0.392 OA
ATOM     53  H   UNL     1       9.893  -5.250  27.222  0.00  0.00    +0.210 HD
ENDBRANCH  51  52
ENDBRANCH  41  51
ENDBRANCH  38  39
ENDBRANCH  37  38
ENDBRANCH  27  37
ENDBRANCH  24  25
ENDBRANCH   6  24
BRANCH   1  54
ATOM     54  O   UNL     1       2.746  -3.744  27.478  0.00  0.00    -0.461 OA
BRANCH  54  58
ATOM     55  C   UNL     1       4.474  -6.895  25.146  0.00  0.00    +0.041 C 
ATOM     56  C   UNL     1       2.984  -6.541  25.133  0.00  0.00    +0.150 C 
ATOM     57  O   UNL     1       2.756  -5.224  25.644  0.00  0.00    -0.334 OA
ATOM     58  C   UNL     1       3.001  -5.081  27.046  0.00  0.00    +0.339 C 
ATOM     59  C   UNL     1       2.037  -6.007  27.823  0.00  0.00    +0.214 C 
ATOM     60  C   UNL     1       2.265  -7.453  27.378  0.00  0.00    +0.180 C 
ATOM     61  C   UNL     1       2.105  -7.578  25.852  0.00  0.00    +0.174 C 
BRANCH  59  62
ATOM     62  O   UNL     1       0.651  -5.687  27.565  0.00  0.00    -0.383 OA
ATOM     63  H   UNL     1       0.578  -4.710  27.577  0.00  0.00    +0.210 HD
ENDBRANCH  59  62
BRANCH  60  64
ATOM     64  O   UNL     1       1.338  -8.329  28.030  0.00  0.00    -0.386 OA
ATOM     65  H   UNL     1       0.449  -7.953  27.856  0.00  0.00    +0.210 HD
ENDBRANCH  60  64
BRANCH  61  66
ATOM     66  O   UNL     1       2.426  -8.889  25.386  0.00  0.00    -0.387 OA
ATOM     67  H   UNL     1       2.061  -8.989  24.488  0.00  0.00    +0.210 HD
ENDBRANCH  61  66
ENDBRANCH  54  58
ENDBRANCH   1  54
TORSDOF 22
ENDMDL
MODEL 3
REMARK VINA RESULT:      -7.0      1.550      2.716
REMARK  Name = 
REMARK  23 active torsions:
REMARK  status: ('A' for Active; 'I' for Inactive)
REMARK    1  A    between atoms: C_1  and  C_2
REMARK    2  A    between atoms: C_3  and  O_54
REMARK    3  A    between atoms: C_4  and  O_53
REMARK    4  A    between atoms: C_5  and  O_52
REMARK    5  A    between atoms: C_6  and  O_8
REMARK    6  A    between atoms: O_8  and  C_9
REMARK    7  A    between atoms: C_11  and  O_51
REMARK    8  A    between atoms: C_16  and  C_43
REMARK    9  A    between atoms: C_17  and  O_20
REMARK   10  A    between atoms: O_20  and  C_21
REMARK   11  A    between atoms: C_22  and  O_42
REMARK   12  A    between atoms: C_23  and  O_41
REMARK   13  A    between atoms: C_24  and  O_40
REMARK   14  A    between atoms: C_25  and  C_27
REMARK   15  A    between atoms: C_27  and  O_28
REMARK   16  A    between atoms: O_28  and  C_29
REMARK   17  A    between atoms: C_30  and  O_39
REMARK   18  A    between atoms: C_31  and  O_38
REMARK   19  A    between atoms: C_32  and  O_37
REMARK   20  A    between atoms: C_33  and  C_35
REMARK   21  A    between atoms: C_35  and  O_36
REMARK   22  A    between atoms: C_45  and  O_50
REMARK   23  A    between atoms: C_46  and  O_49
REMARK                            x       y       z     vdW  Elec       q    Type
REMARK                         _______ _______ _______ _____ _____    ______ ____
ROOT
ATOM      1  C   UNL     1       5.510   2.310  25.986  0.00  0.00    +0.131 A 
ATOM      2  C   UNL     1       5.279   1.086  25.344  0.00  0.00    +0.093 A 
ATOM      3  C   UNL     1       4.816  -0.014  26.075  0.00  0.00    +0.147 A 
ATOM      4  O   UNL     1       4.605  -1.193  25.399  0.00  0.00    -0.451 OA
ATOM      5  C   UNL     1       4.003  -2.246  26.080  0.00  0.00    +0.181 A 
ATOM      6  C   UNL     1       3.784  -2.286  27.414  0.00  0.00    +0.214 A 
ATOM      7  C   UNL     1       4.285  -1.106  28.196  0.00  0.00    +0.238 A 
ATOM      8  O   UNL     1       4.490  -1.133  29.402  0.00  0.00    -0.283 OA
ATOM      9  C   UNL     1       4.605   0.109  27.442  0.00  0.00    +0.109 A 
ATOM     10  C   UNL     1       4.777   1.346  28.072  0.00  0.00    +0.135 A 
ATOM     11  C   UNL     1       5.231   2.438  27.346  0.00  0.00    +0.092 A 
ENDROOT
BRANCH   5  12
ATOM     12  C   UNL     1       3.671  -3.398  25.209  0.00  0.00    +0.025 A 
ATOM     13  C   UNL     1       2.487  -4.120  25.445  0.00  0.00    +0.015 A 
ATOM     14  C   UNL     1       2.137  -5.197  24.620  0.00  0.00    +0.050 A 
ATOM     15  C   UNL     1       2.967  -5.540  23.564  0.00  0.00    +0.158 A 
ATOM     16  C   UNL     1       4.146  -4.839  23.330  0.00  0.00    +0.159 A 
ATOM     17  C   UNL     1       4.510  -3.766  24.145  0.00  0.00    +0.060 A 
BRANCH  16  18
ATOM     18  O   UNL     1       4.916  -5.249  22.276  0.00  0.00    -0.503 OA
ATOM     19  H   UNL     1       5.614  -5.838  22.608  0.00  0.00    +0.292 HD
ENDBRANCH  16  18
BRANCH  15  20
ATOM     20  O   UNL     1       2.614  -6.584  22.757  0.00  0.00    -0.503 OA
ATOM     21  H   UNL     1       3.454  -7.051  22.571  0.00  0.00    +0.292 HD
ENDBRANCH  15  20
ENDBRANCH   5  12
BRANCH  10  22
ATOM     22  O   UNL     1       4.477   1.513  29.396  0.00  0.00    -0.506 OA
ATOM     23  H   UNL     1       3.754   2.153  29.497  0.00  0.00    +0.292 HD
ENDBRANCH  10  22
BRANCH   6  24
ATOM     24  O   UNL     1       3.165  -3.394  28.004  0.00  0.00    -0.453 OA
BRANCH  24  25
ATOM     25  C   UNL     1       3.896  -4.042  29.056  0.00  0.00    +0.340 C 
ATOM     26  O   UNL     1       5.255  -4.323  28.663  0.00  0.00    -0.331 OA
ATOM     27  C   UNL     1       5.355  -5.263  27.580  0.00  0.00    +0.179 C 
ATOM     28  C   UNL     1       4.818  -6.595  28.119  0.00  0.00    +0.177 C 
ATOM     29  C   UNL     1       3.351  -6.469  28.534  0.00  0.00    +0.180 C 
ATOM     30  C   UNL     1       3.172  -5.323  29.534  0.00  0.00    +0.214 C 
BRANCH  30  31
ATOM     31  O   UNL     1       1.790  -5.077  29.827  0.00  0.00    -0.383 OA
ATOM     32  H   UNL     1       1.467  -4.409  29.197  0.00  0.00    +0.210 HD
ENDBRANCH  30  31
BRANCH  29  33
ATOM     33  O   UNL     1       2.945  -7.706  29.141  0.00  0.00    -0.386 OA
ATOM     34  H   UNL     1       2.010  -7.576  29.409  0.00  0.00    +0.210 HD
ENDBRANCH  29  33
BRANCH  28  35
ATOM     35  O   UNL     1       5.570  -6.969  29.299  0.00  0.00    -0.386 OA
ATOM     36  H   UNL     1       6.243  -7.627  29.021  0.00  0.00    +0.210 HD
ENDBRANCH  28  35
BRANCH  27  37
ATOM     37  C   UNL     1       6.834  -5.466  27.182  0.00  0.00    +0.197 C 
BRANCH  37  38
ATOM     38  O   UNL     1       7.160  -5.131  25.821  0.00  0.00    -0.346 OA
BRANCH  38  39
ATOM     39  C   UNL     1       8.506  -4.599  25.773  0.00  0.00    +0.282 C 
ATOM     40  O   UNL     1       8.667  -3.425  26.576  0.00  0.00    -0.341 OA
ATOM     41  C   UNL     1       7.900  -2.295  26.118  0.00  0.00    +0.178 C 
ATOM     42  C   UNL     1       8.368  -1.903  24.712  0.00  0.00    +0.177 C 
ATOM     43  C   UNL     1       8.238  -3.099  23.756  0.00  0.00    +0.179 C 
ATOM     44  C   UNL     1       8.968  -4.325  24.327  0.00  0.00    +0.201 C 
BRANCH  44  45
ATOM     45  O   UNL     1       8.796  -5.484  23.503  0.00  0.00    -0.384 OA
ATOM     46  H   UNL     1       8.443  -6.184  24.080  0.00  0.00    +0.210 HD
ENDBRANCH  44  45
BRANCH  43  47
ATOM     47  O   UNL     1       8.793  -2.732  22.482  0.00  0.00    -0.386 OA
ATOM     48  H   UNL     1       8.928  -1.763  22.515  0.00  0.00    +0.210 HD
ENDBRANCH  43  47
BRANCH  42  49
ATOM     49  O   UNL     1       9.750  -1.490  24.722  0.00  0.00    -0.386 OA
ATOM     50  H   UNL     1       9.893  -0.902  23.954  0.00  0.00    +0.210 HD
ENDBRANCH  42  49
BRANCH  41  51
ATOM     51  C   UNL     1       8.107  -1.142  27.118  0.00  0.00    +0.190 C 
BRANCH  51  52
ATOM     52  O   UNL     1       8.406   0.085  26.453  0.00  0.00    -0.392 OA
ATOM     53  H   UNL     1       7.974   0.808  26.937  0.00  0.00    +0.210 HD
ENDBRANCH  51  52
ENDBRANCH  41  51
ENDBRANCH  38  39
ENDBRANCH  37  38
ENDBRANCH  27  37
ENDBRANCH  24  25
ENDBRANCH   6  24
BRANCH   1  54
ATOM     54  O   UNL     1       6.007   3.455  25.432  0.00  0.00    -0.461 OA
BRANCH  54  58
ATOM     55  C   UNL     1       9.036   1.538  23.085  0.00  0.00    +0.041 C 
ATOM     56  C   UNL     1       9.331   2.470  24.265  0.00  0.00    +0.150 C 
ATOM     57  O   UNL     1       8.187   2.619  25.112  0.00  0.00    -0.334 OA
ATOM     58  C   UNL     1       7.104   3.347  24.525  0.00  0.00    +0.339 C 
ATOM     59  C   UNL     1       7.579   4.782  24.203  0.00  0.00    +0.214 C 
ATOM     60  C   UNL     1       8.769   4.713  23.243  0.00  0.00    +0.180 C 
ATOM     61  C   UNL     1       9.888   3.838  23.837  0.00  0.00    +0.174 C 
BRANCH  59  62
ATOM     62  O   UNL     1       8.017   5.487  25.387  0.00  0.00    -0.383 OA
ATOM     63  H   UNL     1       8.589   6.223  25.085  0.00  0.00    +0.210 HD
ENDBRANCH  59  62
BRANCH  60  64
ATOM     64  O   UNL     1       9.276   6.026  22.979  0.00  0.00    -0.386 OA
ATOM     65  H   UNL     1       8.728   6.636  23.518  0.00  0.00    +0.210 HD
ENDBRANCH  60  64
BRANCH  61  66
ATOM     66  O   UNL     1      10.966   3.653  22.918  0.00  0.00    -0.387 OA
ATOM     67  H   UNL     1      11.681   4.267  23.164  0.00  0.00    +0.210 HD
ENDBRANCH  61  66
ENDBRANCH  54  58
ENDBRANCH   1  54
TORSDOF 22
ENDMDL
MODEL 4
REMARK VINA RESULT:      -7.0      2.087      8.521
REMARK  Name = 
REMARK  23 active torsions:
REMARK  status: ('A' for Active; 'I' for Inactive)
REMARK    1  A    between atoms: C_1  and  C_2
REMARK    2  A    between atoms: C_3  and  O_54
REMARK    3  A    between atoms: C_4  and  O_53
REMARK    4  A    between atoms: C_5  and  O_52
REMARK    5  A    between atoms: C_6  and  O_8
REMARK    6  A    between atoms: O_8  and  C_9
REMARK    7  A    between atoms: C_11  and  O_51
REMARK    8  A    between atoms: C_16  and  C_43
REMARK    9  A    between atoms: C_17  and  O_20
REMARK   10  A    between atoms: O_20  and  C_21
REMARK   11  A    between atoms: C_22  and  O_42
REMARK   12  A    between atoms: C_23  and  O_41
REMARK   13  A    between atoms: C_24  and  O_40
REMARK   14  A    between atoms: C_25  and  C_27
REMARK   15  A    between atoms: C_27  and  O_28
REMARK   16  A    between atoms: O_28  and  C_29
REMARK   17  A    between atoms: C_30  and  O_39
REMARK   18  A    between atoms: C_31  and  O_38
REMARK   19  A    between atoms: C_32  and  O_37
REMARK   20  A    between atoms: C_33  and  C_35
REMARK   21  A    between atoms: C_35  and  O_36
REMARK   22  A    between atoms: C_45  and  O_50
REMARK   23  A    between atoms: C_46  and  O_49
REMARK                            x       y       z     vdW  Elec       q    Type
REMARK                         _______ _______ _______ _____ _____    ______ ____
ROOT
ATOM      1  C   UNL     1       4.770  -2.943  26.729  0.00  0.00    +0.131 A 
ATOM      2  C   UNL     1       4.140  -1.755  26.337  0.00  0.00    +0.093 A 
ATOM      3  C   UNL     1       4.896  -0.598  26.118  0.00  0.00    +0.147 A 
ATOM      4  O   UNL     1       4.231   0.543  25.736  0.00  0.00    -0.451 OA
ATOM      5  C   UNL     1       4.983   1.654  25.368  0.00  0.00    +0.181 A 
ATOM      6  C   UNL     1       6.318   1.783  25.544  0.00  0.00    +0.214 A 
ATOM      7  C   UNL     1       7.001   0.639  26.236  0.00  0.00    +0.238 A 
ATOM      8  O   UNL     1       8.093   0.733  26.780  0.00  0.00    -0.283 OA
ATOM      9  C   UNL     1       6.271  -0.630  26.309  0.00  0.00    +0.109 A 
ATOM     10  C   UNL     1       6.908  -1.830  26.641  0.00  0.00    +0.135 A 
ATOM     11  C   UNL     1       6.158  -2.979  26.853  0.00  0.00    +0.092 A 
ENDROOT
BRANCH   5  12
ATOM     12  C   UNL     1       4.168   2.760  24.813  0.00  0.00    +0.025 A 
ATOM     13  C   UNL     1       3.525   3.649  25.695  0.00  0.00    +0.015 A 
ATOM     14  C   UNL     1       2.768   4.718  25.198  0.00  0.00    +0.050 A 
ATOM     15  C   UNL     1       2.665   4.895  23.827  0.00  0.00    +0.158 A 
ATOM     16  C   UNL     1       3.288   4.015  22.947  0.00  0.00    +0.159 A 
ATOM     17  C   UNL     1       4.042   2.943  23.428  0.00  0.00    +0.060 A 
BRANCH  16  18
ATOM     18  O   UNL     1       3.127   4.252  21.609  0.00  0.00    -0.503 OA
ATOM     19  H   UNL     1       2.176   4.268  21.406  0.00  0.00    +0.292 HD
ENDBRANCH  16  18
BRANCH  15  20
ATOM     20  O   UNL     1       1.936   5.947  23.348  0.00  0.00    -0.503 OA
ATOM     21  H   UNL     1       2.501   6.731  23.500  0.00  0.00    +0.292 HD
ENDBRANCH  15  20
ENDBRANCH   5  12
BRANCH  10  22
ATOM     22  O   UNL     1       8.271  -1.907  26.734  0.00  0.00    -0.506 OA
ATOM     23  H   UNL     1       8.532  -2.156  27.634  0.00  0.00    +0.292 HD
ENDBRANCH  10  22
BRANCH   6  24
ATOM     24  O   UNL     1       6.984   2.944  25.136  0.00  0.00    -0.453 OA
BRANCH  24  25
ATOM     25  C   UNL     1       7.264   3.053  23.732  0.00  0.00    +0.340 C 
ATOM     26  O   UNL     1       7.748   1.808  23.189  0.00  0.00    -0.331 OA
ATOM     27  C   UNL     1       9.013   1.397  23.735  0.00  0.00    +0.179 C 
ATOM     28  C   UNL     1      10.035   2.448  23.281  0.00  0.00    +0.177 C 
ATOM     29  C   UNL     1       9.682   3.832  23.829  0.00  0.00    +0.180 C 
ATOM     30  C   UNL     1       8.249   4.212  23.446  0.00  0.00    +0.214 C 
BRANCH  30  31
ATOM     31  O   UNL     1       7.832   5.433  24.071  0.00  0.00    -0.383 OA
ATOM     32  H   UNL     1       6.859   5.456  24.059  0.00  0.00    +0.210 HD
ENDBRANCH  30  31
BRANCH  29  33
ATOM     33  O   UNL     1      10.599   4.787  23.271  0.00  0.00    -0.386 OA
ATOM     34  H   UNL     1      10.967   4.363  22.467  0.00  0.00    +0.210 HD
ENDBRANCH  29  33
BRANCH  28  35
ATOM     35  O   UNL     1      10.015   2.538  21.835  0.00  0.00    -0.386 OA
ATOM     36  H   UNL     1      10.069   3.490  21.600  0.00  0.00    +0.210 HD
ENDBRANCH  28  35
BRANCH  27  37
ATOM     37  C   UNL     1       9.433   0.032  23.146  0.00  0.00    +0.197 C 
BRANCH  37  38
ATOM     38  O   UNL     1       8.698  -1.104  23.635  0.00  0.00    -0.346 OA
BRANCH  38  39
ATOM     39  C   UNL     1       8.825  -2.194  22.690  0.00  0.00    +0.282 C 
ATOM     40  O   UNL     1       7.570  -2.581  22.119  0.00  0.00    -0.341 OA
ATOM     41  C   UNL     1       6.644  -3.139  23.072  0.00  0.00    +0.178 C 
ATOM     42  C   UNL     1       7.241  -4.418  23.668  0.00  0.00    +0.177 C 
ATOM     43  C   UNL     1       8.602  -4.119  24.314  0.00  0.00    +0.179 C 
ATOM     44  C   UNL     1       9.531  -3.417  23.309  0.00  0.00    +0.201 C 
BRANCH  44  45
ATOM     45  O   UNL     1      10.780  -3.046  23.903  0.00  0.00    -0.384 OA
ATOM     46  H   UNL     1      10.716  -3.274  24.847  0.00  0.00    +0.210 HD
ENDBRANCH  44  45
BRANCH  43  47
ATOM     47  O   UNL     1       9.184  -5.356  24.757  0.00  0.00    -0.386 OA
ATOM     48  H   UNL     1       9.865  -5.587  24.093  0.00  0.00    +0.210 HD
ENDBRANCH  43  47
BRANCH  42  49
ATOM     49  O   UNL     1       7.442  -5.420  22.650  0.00  0.00    -0.386 OA
ATOM     50  H   UNL     1       7.899  -6.180  23.062  0.00  0.00    +0.210 HD
ENDBRANCH  42  49
BRANCH  41  51
ATOM     51  C   UNL     1       5.322  -3.429  22.336  0.00  0.00    +0.190 C 
BRANCH  51  52
ATOM     52  O   UNL     1       5.549  -3.869  20.997  0.00  0.00    -0.392 OA
ATOM     53  H   UNL     1       5.838  -4.795  21.024  0.00  0.00    +0.210 HD
ENDBRANCH  51  52
ENDBRANCH  41  51
ENDBRANCH  38  39
ENDBRANCH  37  38
ENDBRANCH  27  37
ENDBRANCH  24  25
ENDBRANCH   6  24
BRANCH   1  54
ATOM     54  O   UNL     1       4.176  -4.135  27.031  0.00  0.00    -0.461 OA
BRANCH  54  58
ATOM     55  C   UNL     1       1.127  -5.790  24.518  0.00  0.00    +0.041 C 
ATOM     56  C   UNL     1       2.019  -6.626  25.441  0.00  0.00    +0.150 C 
ATOM     57  O   UNL     1       2.628  -5.815  26.451  0.00  0.00    -0.334 OA
ATOM     58  C   UNL     1       3.614  -4.900  25.964  0.00  0.00    +0.339 C 
ATOM     59  C   UNL     1       4.767  -5.701  25.315  0.00  0.00    +0.214 C 
ATOM     60  C   UNL     1       4.205  -6.551  24.174  0.00  0.00    +0.180 C 
ATOM     61  C   UNL     1       3.069  -7.456  24.686  0.00  0.00    +0.174 C 
BRANCH  59  62
ATOM     62  O   UNL     1       5.399  -6.600  26.255  0.00  0.00    -0.383 OA
ATOM     63  H   UNL     1       4.840  -7.404  26.300  0.00  0.00    +0.210 HD
ENDBRANCH  59  62
BRANCH  60  64
ATOM     64  O   UNL     1       5.237  -7.359  23.597  0.00  0.00    -0.386 OA
ATOM     65  H   UNL     1       4.796  -8.183  23.299  0.00  0.00    +0.210 HD
ENDBRANCH  60  64
BRANCH  61  66
ATOM     66  O   UNL     1       2.441  -8.178  23.625  0.00  0.00    -0.387 OA
ATOM     67  H   UNL     1       1.607  -8.548  23.964  0.00  0.00    +0.210 HD
ENDBRANCH  61  66
ENDBRANCH  54  58
ENDBRANCH   1  54
TORSDOF 22
ENDMDL
MODEL 5
REMARK VINA RESULT:      -7.0      2.157      3.476
REMARK  Name = 
REMARK  23 active torsions:
REMARK  status: ('A' for Active; 'I' for Inactive)
REMARK    1  A    between atoms: C_1  and  C_2
REMARK    2  A    between atoms: C_3  and  O_54
REMARK    3  A    between atoms: C_4  and  O_53
REMARK    4  A    between atoms: C_5  and  O_52
REMARK    5  A    between atoms: C_6  and  O_8
REMARK    6  A    between atoms: O_8  and  C_9
REMARK    7  A    between atoms: C_11  and  O_51
REMARK    8  A    between atoms: C_16  and  C_43
REMARK    9  A    between atoms: C_17  and  O_20
REMARK   10  A    between atoms: O_20  and  C_21
REMARK   11  A    between atoms: C_22  and  O_42
REMARK   12  A    between atoms: C_23  and  O_41
REMARK   13  A    between atoms: C_24  and  O_40
REMARK   14  A    between atoms: C_25  and  C_27
REMARK   15  A    between atoms: C_27  and  O_28
REMARK   16  A    between atoms: O_28  and  C_29
REMARK   17  A    between atoms: C_30  and  O_39
REMARK   18  A    between atoms: C_31  and  O_38
REMARK   19  A    between atoms: C_32  and  O_37
REMARK   20  A    between atoms: C_33  and  C_35
REMARK   21  A    between atoms: C_35  and  O_36
REMARK   22  A    between atoms: C_45  and  O_50
REMARK   23  A    between atoms: C_46  and  O_49
REMARK                            x       y       z     vdW  Elec       q    Type
REMARK                         _______ _______ _______ _____ _____    ______ ____
ROOT
ATOM      1  C   UNL     1       5.936   1.300  26.285  0.00  0.00    +0.131 A 
ATOM      2  C   UNL     1       5.335   0.232  25.608  0.00  0.00    +0.093 A 
ATOM      3  C   UNL     1       4.619  -0.737  26.319  0.00  0.00    +0.147 A 
ATOM      4  O   UNL     1       4.048  -1.767  25.608  0.00  0.00    -0.451 OA
ATOM      5  C   UNL     1       3.209  -2.649  26.282  0.00  0.00    +0.181 A 
ATOM      6  C   UNL     1       3.060  -2.708  27.625  0.00  0.00    +0.214 A 
ATOM      7  C   UNL     1       3.915  -1.766  28.421  0.00  0.00    +0.238 A 
ATOM      8  O   UNL     1       4.169  -1.923  29.609  0.00  0.00    -0.283 OA
ATOM      9  C   UNL     1       4.525  -0.645  27.702  0.00  0.00    +0.109 A 
ATOM     10  C   UNL     1       5.074   0.453  28.372  0.00  0.00    +0.135 A 
ATOM     11  C   UNL     1       5.779   1.417  27.666  0.00  0.00    +0.092 A 
ENDROOT
BRANCH   5  12
ATOM     12  C   UNL     1       2.519  -3.606  25.386  0.00  0.00    +0.025 A 
ATOM     13  C   UNL     1       1.125  -3.762  25.489  0.00  0.00    +0.015 A 
ATOM     14  C   UNL     1       0.443  -4.641  24.637  0.00  0.00    +0.050 A 
ATOM     15  C   UNL     1       1.158  -5.352  23.685  0.00  0.00    +0.158 A 
ATOM     16  C   UNL     1       2.539  -5.213  23.583  0.00  0.00    +0.159 A 
ATOM     17  C   UNL     1       3.232  -4.343  24.428  0.00  0.00    +0.060 A 
BRANCH  16  18
ATOM     18  O   UNL     1       3.172  -5.959  22.626  0.00  0.00    -0.503 OA
ATOM     19  H   UNL     1       2.852  -6.875  22.681  0.00  0.00    +0.292 HD
ENDBRANCH  16  18
BRANCH  15  20
ATOM     20  O   UNL     1       0.488  -6.198  22.849  0.00  0.00    -0.503 OA
ATOM     21  H   UNL     1       0.999  -6.182  22.015  0.00  0.00    +0.292 HD
ENDBRANCH  15  20
ENDBRANCH   5  12
BRANCH  10  22
ATOM     22  O   UNL     1       4.904   0.616  29.720  0.00  0.00    -0.506 OA
ATOM     23  H   UNL     1       4.593   1.515  29.912  0.00  0.00    +0.292 HD
ENDBRANCH  10  22
BRANCH   6  24
ATOM     24  O   UNL     1       2.185  -3.633  28.207  0.00  0.00    -0.453 OA
BRANCH  24  25
ATOM     25  C   UNL     1       2.739  -4.465  29.238  0.00  0.00    +0.340 C 
ATOM     26  O   UNL     1       4.009  -5.022  28.845  0.00  0.00    -0.331 OA
ATOM     27  C   UNL     1       3.921  -5.918  27.725  0.00  0.00    +0.179 C 
ATOM     28  C   UNL     1       3.097  -7.120  28.203  0.00  0.00    +0.177 C 
ATOM     29  C   UNL     1       1.685  -6.692  28.610  0.00  0.00    +0.180 C 
ATOM     30  C   UNL     1       1.743  -5.574  29.655  0.00  0.00    +0.214 C 
BRANCH  30  31
ATOM     31  O   UNL     1       0.443  -5.044  29.946  0.00  0.00    -0.383 OA
ATOM     32  H   UNL     1      -0.102  -5.770  30.297  0.00  0.00    +0.210 HD
ENDBRANCH  30  31
BRANCH  29  33
ATOM     33  O   UNL     1       1.008  -7.833  29.162  0.00  0.00    -0.386 OA
ATOM     34  H   UNL     1       1.297  -7.886  30.097  0.00  0.00    +0.210 HD
ENDBRANCH  29  33
BRANCH  28  35
ATOM     35  O   UNL     1       3.728  -7.695  29.374  0.00  0.00    -0.386 OA
ATOM     36  H   UNL     1       4.135  -6.958  29.878  0.00  0.00    +0.210 HD
ENDBRANCH  28  35
BRANCH  27  37
ATOM     37  C   UNL     1       5.327  -6.425  27.332  0.00  0.00    +0.197 C 
BRANCH  37  38
ATOM     38  O   UNL     1       5.772  -6.057  26.015  0.00  0.00    -0.346 OA
BRANCH  38  39
ATOM     39  C   UNL     1       6.493  -4.804  26.089  0.00  0.00    +0.282 C 
ATOM     40  O   UNL     1       6.314  -3.991  24.924  0.00  0.00    -0.341 OA
ATOM     41  C   UNL     1       6.868  -4.565  23.724  0.00  0.00    +0.178 C 
ATOM     42  C   UNL     1       8.383  -4.723  23.891  0.00  0.00    +0.177 C 
ATOM     43  C   UNL     1       8.694  -5.585  25.124  0.00  0.00    +0.179 C 
ATOM     44  C   UNL     1       7.995  -5.016  26.368  0.00  0.00    +0.201 C 
BRANCH  44  45
ATOM     45  O   UNL     1       8.193  -5.843  27.521  0.00  0.00    -0.384 OA
ATOM     46  H   UNL     1       8.191  -6.763  27.204  0.00  0.00    +0.210 HD
ENDBRANCH  44  45
BRANCH  43  47
ATOM     47  O   UNL     1      10.119  -5.615  25.318  0.00  0.00    -0.386 OA
ATOM     48  H   UNL     1      10.294  -6.372  25.911  0.00  0.00    +0.210 HD
ENDBRANCH  43  47
BRANCH  42  49
ATOM     49  O   UNL     1       9.021  -3.442  24.071  0.00  0.00    -0.386 OA
ATOM     50  H   UNL     1       9.179  -3.317  25.028  0.00  0.00    +0.210 HD
ENDBRANCH  42  49
BRANCH  41  51
ATOM     51  C   UNL     1       6.530  -3.627  22.549  0.00  0.00    +0.190 C 
BRANCH  51  52
ATOM     52  O   UNL     1       5.458  -4.138  21.758  0.00  0.00    -0.392 OA
ATOM     53  H   UNL     1       4.628  -4.009  22.246  0.00  0.00    +0.210 HD
ENDBRANCH  51  52
ENDBRANCH  41  51
ENDBRANCH  38  39
ENDBRANCH  37  38
ENDBRANCH  27  37
ENDBRANCH  24  25
ENDBRANCH   6  24
BRANCH   1  54
ATOM     54  O   UNL     1       6.707   2.293  25.749  0.00  0.00    -0.461 OA
BRANCH  54  58
ATOM     55  C   UNL     1      10.540   1.005  24.335  0.00  0.00    +0.041 C 
ATOM     56  C   UNL     1       9.961   2.400  24.082  0.00  0.00    +0.150 C 
ATOM     57  O   UNL     1       8.903   2.700  24.998  0.00  0.00    -0.334 OA
ATOM     58  C   UNL     1       7.713   1.931  24.802  0.00  0.00    +0.339 C 
ATOM     59  C   UNL     1       7.147   2.228  23.394  0.00  0.00    +0.214 C 
ATOM     60  C   UNL     1       8.202   1.870  22.345  0.00  0.00    +0.180 C 
ATOM     61  C   UNL     1       9.517   2.621  22.627  0.00  0.00    +0.174 C 
BRANCH  59  62
ATOM     62  O   UNL     1       6.823   3.627  23.224  0.00  0.00    -0.383 OA
ATOM     63  H   UNL     1       7.022   4.071  24.075  0.00  0.00    +0.210 HD
ENDBRANCH  59  62
BRANCH  60  64
ATOM     64  O   UNL     1       7.734   2.200  21.033  0.00  0.00    -0.386 OA
ATOM     65  H   UNL     1       6.762   2.068  21.056  0.00  0.00    +0.210 HD
ENDBRANCH  60  64
BRANCH  61  66
ATOM     66  O   UNL     1      10.561   2.222  21.738  0.00  0.00    -0.387 OA
ATOM     67  H   UNL     1      10.888   1.352  22.027  0.00  0.00    +0.210 HD
ENDBRANCH  61  66
ENDBRANCH  54  58
ENDBRANCH   1  54
TORSDOF 22
ENDMDL
MODEL 6
REMARK VINA RESULT:      -6.9      2.193      8.807
REMARK  Name = 
REMARK  23 active torsions:
REMARK  status: ('A' for Active; 'I' for Inactive)
REMARK    1  A    between atoms: C_1  and  C_2
REMARK    2  A    between atoms: C_3  and  O_54
REMARK    3  A    between atoms: C_4  and  O_53
REMARK    4  A    between atoms: C_5  and  O_52
REMARK    5  A    between atoms: C_6  and  O_8
REMARK    6  A    between atoms: O_8  and  C_9
REMARK    7  A    between atoms: C_11  and  O_51
REMARK    8  A    between atoms: C_16  and  C_43
REMARK    9  A    between atoms: C_17  and  O_20
REMARK   10  A    between atoms: O_20  and  C_21
REMARK   11  A    between atoms: C_22  and  O_42
REMARK   12  A    between atoms: C_23  and  O_41
REMARK   13  A    between atoms: C_24  and  O_40
REMARK   14  A    between atoms: C_25  and  C_27
REMARK   15  A    between atoms: C_27  and  O_28
REMARK   16  A    between atoms: O_28  and  C_29
REMARK   17  A    between atoms: C_30  and  O_39
REMARK   18  A    between atoms: C_31  and  O_38
REMARK   19  A    between atoms: C_32  and  O_37
REMARK   20  A    between atoms: C_33  and  C_35
REMARK   21  A    between atoms: C_35  and  O_36
REMARK   22  A    between atoms: C_45  and  O_50
REMARK   23  A    between atoms: C_46  and  O_49
REMARK                            x       y       z     vdW  Elec       q    Type
REMARK                         _______ _______ _______ _____ _____    ______ ____
ROOT
ATOM      1  C   UNL     1       3.761  -2.066  27.668  0.00  0.00    +0.131 A 
ATOM      2  C   UNL     1       3.478  -0.820  27.093  0.00  0.00    +0.093 A 
ATOM      3  C   UNL     1       4.500  -0.071  26.500  0.00  0.00    +0.147 A 
ATOM      4  O   UNL     1       4.171   1.146  25.951  0.00  0.00    -0.451 OA
ATOM      5  C   UNL     1       5.144   1.828  25.227  0.00  0.00    +0.181 A 
ATOM      6  C   UNL     1       6.454   1.497  25.180  0.00  0.00    +0.214 A 
ATOM      7  C   UNL     1       6.864   0.325  26.024  0.00  0.00    +0.238 A 
ATOM      8  O   UNL     1       8.019   0.115  26.374  0.00  0.00    -0.283 OA
ATOM      9  C   UNL     1       5.799  -0.561  26.501  0.00  0.00    +0.109 A 
ATOM     10  C   UNL     1       6.072  -1.831  27.019  0.00  0.00    +0.135 A 
ATOM     11  C   UNL     1       5.057  -2.576  27.603  0.00  0.00    +0.092 A 
ENDROOT
BRANCH   5  12
ATOM     12  C   UNL     1       4.628   3.036  24.541  0.00  0.00    +0.025 A 
ATOM     13  C   UNL     1       4.672   4.275  25.207  0.00  0.00    +0.015 A 
ATOM     14  C   UNL     1       4.214   5.438  24.574  0.00  0.00    +0.050 A 
ATOM     15  C   UNL     1       3.724   5.356  23.279  0.00  0.00    +0.158 A 
ATOM     16  C   UNL     1       3.666   4.134  22.617  0.00  0.00    +0.159 A 
ATOM     17  C   UNL     1       4.115   2.966  23.237  0.00  0.00    +0.060 A 
BRANCH  16  18
ATOM     18  O   UNL     1       3.157   4.136  21.347  0.00  0.00    -0.503 OA
ATOM     19  H   UNL     1       3.816   4.524  20.746  0.00  0.00    +0.292 HD
ENDBRANCH  16  18
BRANCH  15  20
ATOM     20  O   UNL     1       3.291   6.495  22.662  0.00  0.00    -0.503 OA
ATOM     21  H   UNL     1       2.571   6.830  23.234  0.00  0.00    +0.292 HD
ENDBRANCH  15  20
ENDBRANCH   5  12
BRANCH  10  22
ATOM     22  O   UNL     1       7.324  -2.375  26.938  0.00  0.00    -0.506 OA
ATOM     23  H   UNL     1       7.265  -3.333  26.790  0.00  0.00    +0.292 HD
ENDBRANCH  10  22
BRANCH   6  24
ATOM     24  O   UNL     1       7.355   2.248  24.416  0.00  0.00    -0.453 OA
BRANCH  24  25
ATOM     25  C   UNL     1       7.316   2.032  22.998  0.00  0.00    +0.340 C 
ATOM     26  O   UNL     1       7.305   0.627  22.675  0.00  0.00    -0.331 OA
ATOM     27  C   UNL     1       8.503  -0.062  23.070  0.00  0.00    +0.179 C 
ATOM     28  C   UNL     1       9.635   0.527  22.218  0.00  0.00    +0.177 C 
ATOM     29  C   UNL     1       9.808   2.023  22.491  0.00  0.00    +0.180 C 
ATOM     30  C   UNL     1       8.482   2.762  22.289  0.00  0.00    +0.214 C 
BRANCH  30  31
ATOM     31  O   UNL     1       8.569   4.138  22.684  0.00  0.00    -0.383 OA
ATOM     32  H   UNL     1       9.504   4.335  22.871  0.00  0.00    +0.210 HD
ENDBRANCH  30  31
BRANCH  29  33
ATOM     33  O   UNL     1      10.791   2.539  21.580  0.00  0.00    -0.386 OA
ATOM     34  H   UNL     1      11.320   1.764  21.294  0.00  0.00    +0.210 HD
ENDBRANCH  29  33
BRANCH  28  35
ATOM     35  O   UNL     1       9.302   0.381  20.816  0.00  0.00    -0.386 OA
ATOM     36  H   UNL     1       9.196   1.283  20.444  0.00  0.00    +0.210 HD
ENDBRANCH  28  35
BRANCH  27  37
ATOM     37  C   UNL     1       8.389  -1.568  22.742  0.00  0.00    +0.197 C 
BRANCH  37  38
ATOM     38  O   UNL     1       7.961  -2.407  23.829  0.00  0.00    -0.346 OA
BRANCH  38  39
ATOM     39  C   UNL     1       7.740  -3.749  23.335  0.00  0.00    +0.282 C 
ATOM     40  O   UNL     1       6.361  -4.017  23.056  0.00  0.00    -0.341 OA
ATOM     41  C   UNL     1       5.516  -4.002  24.223  0.00  0.00    +0.178 C 
ATOM     42  C   UNL     1       5.966  -5.106  25.187  0.00  0.00    +0.177 C 
ATOM     43  C   UNL     1       7.445  -4.917  25.558  0.00  0.00    +0.179 C 
ATOM     44  C   UNL     1       8.309  -4.818  24.290  0.00  0.00    +0.201 C 
BRANCH  44  45
ATOM     45  O   UNL     1       9.683  -4.556  24.597  0.00  0.00    -0.384 OA
ATOM     46  H   UNL     1      10.032  -5.364  25.012  0.00  0.00    +0.210 HD
ENDBRANCH  44  45
BRANCH  43  47
ATOM     47  O   UNL     1       7.863  -6.031  26.365  0.00  0.00    -0.386 OA
ATOM     48  H   UNL     1       8.205  -6.703  25.741  0.00  0.00    +0.210 HD
ENDBRANCH  43  47
BRANCH  42  49
ATOM     49  O   UNL     1       5.821  -6.409  24.585  0.00  0.00    -0.386 OA
ATOM     50  H   UNL     1       4.885  -6.678  24.674  0.00  0.00    +0.210 HD
ENDBRANCH  42  49
BRANCH  41  51
ATOM     51  C   UNL     1       4.064  -4.222  23.761  0.00  0.00    +0.190 C 
BRANCH  51  52
ATOM     52  O   UNL     1       3.991  -5.122  22.655  0.00  0.00    -0.392 OA
ATOM     53  H   UNL     1       4.810  -5.039  22.140  0.00  0.00    +0.210 HD
ENDBRANCH  51  52
ENDBRANCH  41  51
ENDBRANCH  38  39
ENDBRANCH  37  38
ENDBRANCH  27  37
ENDBRANCH  24  25
ENDBRANCH   6  24
BRANCH   1  54
ATOM     54  O   UNL     1       2.894  -2.891  28.326  0.00  0.00    -0.461 OA
BRANCH  54  58
ATOM     55  C   UNL     1       1.498  -6.042  25.782  0.00  0.00    +0.041 C 
ATOM     56  C   UNL     1       1.097  -5.891  27.253  0.00  0.00    +0.150 C 
ATOM     57  O   UNL     1       1.346  -4.564  27.728  0.00  0.00    -0.334 OA
ATOM     58  C   UNL     1       2.731  -4.225  27.844  0.00  0.00    +0.339 C 
ATOM     59  C   UNL     1       3.396  -5.171  28.869  0.00  0.00    +0.214 C 
ATOM     60  C   UNL     1       3.230  -6.617  28.398  0.00  0.00    +0.180 C 
ATOM     61  C   UNL     1       1.741  -6.941  28.173  0.00  0.00    +0.174 C 
BRANCH  59  62
ATOM     62  O   UNL     1       2.788  -5.067  30.177  0.00  0.00    -0.383 OA
ATOM     63  H   UNL     1       2.177  -4.302  30.147  0.00  0.00    +0.210 HD
ENDBRANCH  59  62
BRANCH  60  64
ATOM     64  O   UNL     1       3.776  -7.523  29.364  0.00  0.00    -0.386 OA
ATOM     65  H   UNL     1       4.152  -6.960  30.075  0.00  0.00    +0.210 HD
ENDBRANCH  60  64
BRANCH  61  66
ATOM     66  O   UNL     1       1.556  -8.245  27.620  0.00  0.00    -0.387 OA
ATOM     67  H   UNL     1       0.768  -8.221  27.048  0.00  0.00    +0.210 HD
ENDBRANCH  61  66
ENDBRANCH  54  58
ENDBRANCH   1  54
TORSDOF 22
ENDMDL
MODEL 7
REMARK VINA RESULT:      -6.7      1.959      4.384
REMARK  Name = 
REMARK  23 active torsions:
REMARK  status: ('A' for Active; 'I' for Inactive)
REMARK    1  A    between atoms: C_1  and  C_2
REMARK    2  A    between atoms: C_3  and  O_54
REMARK    3  A    between atoms: C_4  and  O_53
REMARK    4  A    between atoms: C_5  and  O_52
REMARK    5  A    between atoms: C_6  and  O_8
REMARK    6  A    between atoms: O_8  and  C_9
REMARK    7  A    between atoms: C_11  and  O_51
REMARK    8  A    between atoms: C_16  and  C_43
REMARK    9  A    between atoms: C_17  and  O_20
REMARK   10  A    between atoms: O_20  and  C_21
REMARK   11  A    between atoms: C_22  and  O_42
REMARK   12  A    between atoms: C_23  and  O_41
REMARK   13  A    between atoms: C_24  and  O_40
REMARK   14  A    between atoms: C_25  and  C_27
REMARK   15  A    between atoms: C_27  and  O_28
REMARK   16  A    between atoms: O_28  and  C_29
REMARK   17  A    between atoms: C_30  and  O_39
REMARK   18  A    between atoms: C_31  and  O_38
REMARK   19  A    between atoms: C_32  and  O_37
REMARK   20  A    between atoms: C_33  and  C_35
REMARK   21  A    between atoms: C_35  and  O_36
REMARK   22  A    between atoms: C_45  and  O_50
REMARK   23  A    between atoms: C_46  and  O_49
REMARK                            x       y       z     vdW  Elec       q    Type
REMARK                         _______ _______ _______ _____ _____    ______ ____
ROOT
ATOM      1  C   UNL     1       7.487  -0.510  23.656  0.00  0.00    +0.131 A 
ATOM      2  C   UNL     1       6.538  -1.478  23.304  0.00  0.00    +0.093 A 
ATOM      3  C   UNL     1       6.172  -2.470  24.221  0.00  0.00    +0.147 A 
ATOM      4  O   UNL     1       5.237  -3.398  23.828  0.00  0.00    -0.451 OA
ATOM      5  C   UNL     1       4.754  -4.293  24.778  0.00  0.00    +0.181 A 
ATOM      6  C   UNL     1       5.270  -4.468  26.015  0.00  0.00    +0.214 A 
ATOM      7  C   UNL     1       6.486  -3.649  26.340  0.00  0.00    +0.238 A 
ATOM      8  O   UNL     1       7.268  -3.927  27.240  0.00  0.00    -0.283 OA
ATOM      9  C   UNL     1       6.769  -2.500  25.475  0.00  0.00    +0.109 A 
ATOM     10  C   UNL     1       7.671  -1.498  25.849  0.00  0.00    +0.135 A 
ATOM     11  C   UNL     1       8.029  -0.512  24.941  0.00  0.00    +0.092 A 
ENDROOT
BRANCH   5  12
ATOM     12  C   UNL     1       3.633  -5.127  24.284  0.00  0.00    +0.025 A 
ATOM     13  C   UNL     1       2.471  -4.498  23.801  0.00  0.00    +0.015 A 
ATOM     14  C   UNL     1       1.405  -5.261  23.305  0.00  0.00    +0.050 A 
ATOM     15  C   UNL     1       1.512  -6.644  23.288  0.00  0.00    +0.158 A 
ATOM     16  C   UNL     1       2.653  -7.275  23.774  0.00  0.00    +0.159 A 
ATOM     17  C   UNL     1       3.721  -6.527  24.275  0.00  0.00    +0.060 A 
BRANCH  16  18
ATOM     18  O   UNL     1       2.675  -8.642  23.735  0.00  0.00    -0.503 OA
ATOM     19  H   UNL     1       1.857  -8.956  23.314  0.00  0.00    +0.292 HD
ENDBRANCH  16  18
BRANCH  15  20
ATOM     20  O   UNL     1       0.476  -7.382  22.792  0.00  0.00    -0.503 OA
ATOM     21  H   UNL     1      -0.281  -6.762  22.765  0.00  0.00    +0.292 HD
ENDBRANCH  15  20
ENDBRANCH   5  12
BRANCH  10  22
ATOM     22  O   UNL     1       8.192  -1.450  27.113  0.00  0.00    -0.506 OA
ATOM     23  H   UNL     1       9.036  -0.971  27.110  0.00  0.00    +0.292 HD
ENDBRANCH  10  22
BRANCH   6  24
ATOM     24  O   UNL     1       4.708  -5.394  26.900  0.00  0.00    -0.453 OA
BRANCH  24  25
ATOM     25  C   UNL     1       3.388  -5.093  27.379  0.00  0.00    +0.340 C 
ATOM     26  O   UNL     1       3.364  -3.862  28.129  0.00  0.00    -0.331 OA
ATOM     27  C   UNL     1       4.138  -3.913  29.340  0.00  0.00    +0.179 C 
ATOM     28  C   UNL     1       3.447  -4.939  30.246  0.00  0.00    +0.177 C 
ATOM     29  C   UNL     1       3.440  -6.327  29.601  0.00  0.00    +0.180 C 
ATOM     30  C   UNL     1       2.812  -6.267  28.206  0.00  0.00    +0.214 C 
BRANCH  30  31
ATOM     31  O   UNL     1       2.928  -7.517  27.512  0.00  0.00    -0.383 OA
ATOM     32  H   UNL     1       3.642  -8.026  27.934  0.00  0.00    +0.210 HD
ENDBRANCH  30  31
BRANCH  29  33
ATOM     33  O   UNL     1       2.675  -7.210  30.437  0.00  0.00    -0.386 OA
ATOM     34  H   UNL     1       1.955  -7.557  29.867  0.00  0.00    +0.210 HD
ENDBRANCH  29  33
BRANCH  28  35
ATOM     35  O   UNL     1       2.065  -4.548  30.442  0.00  0.00    -0.386 OA
ATOM     36  H   UNL     1       1.765  -4.945  31.288  0.00  0.00    +0.210 HD
ENDBRANCH  28  35
BRANCH  27  37
ATOM     37  C   UNL     1       4.107  -2.543  30.053  0.00  0.00    +0.197 C 
BRANCH  37  38
ATOM     38  O   UNL     1       3.649  -1.439  29.253  0.00  0.00    -0.346 OA
BRANCH  38  39
ATOM     39  C   UNL     1       4.568  -1.236  28.152  0.00  0.00    +0.282 C 
ATOM     40  O   UNL     1       5.710  -0.455  28.521  0.00  0.00    -0.341 OA
ATOM     41  C   UNL     1       5.394   0.905  28.880  0.00  0.00    +0.178 C 
ATOM     42  C   UNL     1       4.776   1.616  27.671  0.00  0.00    +0.177 C 
ATOM     43  C   UNL     1       3.532   0.857  27.186  0.00  0.00    +0.179 C 
ATOM     44  C   UNL     1       3.872  -0.619  26.923  0.00  0.00    +0.201 C 
BRANCH  44  45
ATOM     45  O   UNL     1       2.715  -1.377  26.551  0.00  0.00    -0.384 OA
ATOM     46  H   UNL     1       2.682  -1.370  25.578  0.00  0.00    +0.210 HD
ENDBRANCH  44  45
BRANCH  43  47
ATOM     47  O   UNL     1       3.050   1.483  25.985  0.00  0.00    -0.386 OA
ATOM     48  H   UNL     1       2.116   1.719  26.161  0.00  0.00    +0.210 HD
ENDBRANCH  43  47
BRANCH  42  49
ATOM     49  O   UNL     1       5.712   1.683  26.575  0.00  0.00    -0.386 OA
ATOM     50  H   UNL     1       6.568   1.997  26.930  0.00  0.00    +0.210 HD
ENDBRANCH  42  49
BRANCH  41  51
ATOM     51  C   UNL     1       6.697   1.593  29.328  0.00  0.00    +0.190 C 
BRANCH  51  52
ATOM     52  O   UNL     1       7.827   1.107  28.604  0.00  0.00    -0.392 OA
ATOM     53  H   UNL     1       8.611   1.600  28.894  0.00  0.00    +0.210 HD
ENDBRANCH  51  52
ENDBRANCH  41  51
ENDBRANCH  38  39
ENDBRANCH  37  38
ENDBRANCH  27  37
ENDBRANCH  24  25
ENDBRANCH   6  24
BRANCH   1  54
ATOM     54  O   UNL     1       7.987   0.485  22.866  0.00  0.00    -0.461 OA
BRANCH  54  58
ATOM     55  C   UNL     1       7.760   3.982  25.331  0.00  0.00    +0.041 C 
ATOM     56  C   UNL     1       7.907   4.020  23.807  0.00  0.00    +0.150 C 
ATOM     57  O   UNL     1       7.532   2.771  23.216  0.00  0.00    -0.334 OA
ATOM     58  C   UNL     1       8.427   1.690  23.494  0.00  0.00    +0.339 C 
ATOM     59  C   UNL     1       9.820   2.029  22.916  0.00  0.00    +0.214 C 
ATOM     60  C   UNL     1      10.324   3.327  23.551  0.00  0.00    +0.180 C 
ATOM     61  C   UNL     1       9.303   4.460  23.339  0.00  0.00    +0.174 C 
BRANCH  59  62
ATOM     62  O   UNL     1       9.778   2.233  21.485  0.00  0.00    -0.383 OA
ATOM     63  H   UNL     1      10.589   2.728  21.244  0.00  0.00    +0.210 HD
ENDBRANCH  59  62
BRANCH  60  64
ATOM     64  O   UNL     1      11.584   3.704  22.984  0.00  0.00    -0.386 OA
ATOM     65  H   UNL     1      12.267   3.291  23.554  0.00  0.00    +0.210 HD
ENDBRANCH  60  64
BRANCH  61  66
ATOM     66  O   UNL     1       9.685   5.657  24.020  0.00  0.00    -0.387 OA
ATOM     67  H   UNL     1       8.914   5.978  24.520  0.00  0.00    +0.210 HD
ENDBRANCH  61  66
ENDBRANCH  54  58
ENDBRANCH   1  54
TORSDOF 22
ENDMDL
MODEL 8
REMARK VINA RESULT:      -6.5      1.917      5.678
REMARK  Name = 
REMARK  23 active torsions:
REMARK  status: ('A' for Active; 'I' for Inactive)
REMARK    1  A    between atoms: C_1  and  C_2
REMARK    2  A    between atoms: C_3  and  O_54
REMARK    3  A    between atoms: C_4  and  O_53
REMARK    4  A    between atoms: C_5  and  O_52
REMARK    5  A    between atoms: C_6  and  O_8
REMARK    6  A    between atoms: O_8  and  C_9
REMARK    7  A    between atoms: C_11  and  O_51
REMARK    8  A    between atoms: C_16  and  C_43
REMARK    9  A    between atoms: C_17  and  O_20
REMARK   10  A    between atoms: O_20  and  C_21
REMARK   11  A    between atoms: C_22  and  O_42
REMARK   12  A    between atoms: C_23  and  O_41
REMARK   13  A    between atoms: C_24  and  O_40
REMARK   14  A    between atoms: C_25  and  C_27
REMARK   15  A    between atoms: C_27  and  O_28
REMARK   16  A    between atoms: O_28  and  C_29
REMARK   17  A    between atoms: C_30  and  O_39
REMARK   18  A    between atoms: C_31  and  O_38
REMARK   19  A    between atoms: C_32  and  O_37
REMARK   20  A    between atoms: C_33  and  C_35
REMARK   21  A    between atoms: C_35  and  O_36
REMARK   22  A    between atoms: C_45  and  O_50
REMARK   23  A    between atoms: C_46  and  O_49
REMARK                            x       y       z     vdW  Elec       q    Type
REMARK                         _______ _______ _______ _____ _____    ______ ____
ROOT
ATOM      1  C   UNL     1       9.893  -0.032  24.240  0.00  0.00    +0.131 A 
ATOM      2  C   UNL     1       9.204  -0.666  25.281  0.00  0.00    +0.093 A 
ATOM      3  C   UNL     1       8.349  -1.739  25.006  0.00  0.00    +0.147 A 
ATOM      4  O   UNL     1       7.694  -2.328  26.063  0.00  0.00    -0.451 OA
ATOM      5  C   UNL     1       6.963  -3.488  25.823  0.00  0.00    +0.181 A 
ATOM      6  C   UNL     1       6.669  -3.984  24.600  0.00  0.00    +0.214 A 
ATOM      7  C   UNL     1       7.144  -3.169  23.431  0.00  0.00    +0.238 A 
ATOM      8  O   UNL     1       6.678  -3.269  22.304  0.00  0.00    -0.283 OA
ATOM      9  C   UNL     1       8.173  -2.159  23.694  0.00  0.00    +0.109 A 
ATOM     10  C   UNL     1       8.907  -1.567  22.661  0.00  0.00    +0.135 A 
ATOM     11  C   UNL     1       9.759  -0.506  22.935  0.00  0.00    +0.092 A 
ENDROOT
BRANCH   5  12
ATOM     12  C   UNL     1       6.447  -4.124  27.058  0.00  0.00    +0.025 A 
ATOM     13  C   UNL     1       5.461  -3.461  27.812  0.00  0.00    +0.015 A 
ATOM     14  C   UNL     1       4.937  -4.051  28.970  0.00  0.00    +0.050 A 
ATOM     15  C   UNL     1       5.397  -5.299  29.362  0.00  0.00    +0.158 A 
ATOM     16  C   UNL     1       6.380  -5.957  28.629  0.00  0.00    +0.159 A 
ATOM     17  C   UNL     1       6.914  -5.380  27.475  0.00  0.00    +0.060 A 
BRANCH  16  18
ATOM     18  O   UNL     1       6.789  -7.179  29.089  0.00  0.00    -0.503 OA
ATOM     19  H   UNL     1       6.519  -7.269  30.019  0.00  0.00    +0.292 HD
ENDBRANCH  16  18
BRANCH  15  20
ATOM     20  O   UNL     1       4.874  -5.875  30.484  0.00  0.00    -0.503 OA
ATOM     21  H   UNL     1       3.911  -5.922  30.315  0.00  0.00    +0.292 HD
ENDBRANCH  15  20
ENDBRANCH   5  12
BRANCH  10  22
ATOM     22  O   UNL     1       8.827  -2.032  21.378  0.00  0.00    -0.506 OA
ATOM     23  H   UNL     1       9.532  -2.678  21.210  0.00  0.00    +0.292 HD
ENDBRANCH  10  22
BRANCH   6  24
ATOM     24  O   UNL     1       5.928  -5.163  24.465  0.00  0.00    -0.453 OA
BRANCH  24  25
ATOM     25  C   UNL     1       4.841  -5.124  23.529  0.00  0.00    +0.340 C 
ATOM     26  O   UNL     1       3.786  -4.248  23.976  0.00  0.00    -0.331 OA
ATOM     27  C   UNL     1       3.148  -4.690  25.186  0.00  0.00    +0.179 C 
ATOM     28  C   UNL     1       2.444  -6.009  24.841  0.00  0.00    +0.177 C 
ATOM     29  C   UNL     1       3.452  -7.070  24.393  0.00  0.00    +0.180 C 
ATOM     30  C   UNL     1       4.305  -6.545  23.234  0.00  0.00    +0.214 C 
BRANCH  30  31
ATOM     31  O   UNL     1       5.360  -7.454  22.891  0.00  0.00    -0.383 OA
ATOM     32  H   UNL     1       5.173  -8.304  23.326  0.00  0.00    +0.210 HD
ENDBRANCH  30  31
BRANCH  29  33
ATOM     33  O   UNL     1       2.725  -8.234  23.968  0.00  0.00    -0.386 OA
ATOM     34  H   UNL     1       3.217  -8.587  23.197  0.00  0.00    +0.210 HD
ENDBRANCH  29  33
BRANCH  28  35
ATOM     35  O   UNL     1       1.532  -5.787  23.737  0.00  0.00    -0.386 OA
ATOM     36  H   UNL     1       0.670  -5.516  24.120  0.00  0.00    +0.210 HD
ENDBRANCH  28  35
BRANCH  27  37
ATOM     37  C   UNL     1       2.073  -3.672  25.628  0.00  0.00    +0.197 C 
BRANCH  37  38
ATOM     38  O   UNL     1       2.244  -3.125  26.947  0.00  0.00    -0.346 OA
BRANCH  38  39
ATOM     39  C   UNL     1       1.807  -1.745  26.950  0.00  0.00    +0.282 C 
ATOM     40  O   UNL     1       2.771  -0.858  26.371  0.00  0.00    -0.341 OA
ATOM     41  C   UNL     1       4.001  -0.767  27.117  0.00  0.00    +0.178 C 
ATOM     42  C   UNL     1       3.705  -0.206  28.513  0.00  0.00    +0.177 C 
ATOM     43  C   UNL     1       2.673  -1.087  29.232  0.00  0.00    +0.179 C 
ATOM     44  C   UNL     1       1.418  -1.264  28.362  0.00  0.00    +0.201 C 
BRANCH  44  45
ATOM     45  O   UNL     1       0.468  -2.151  28.965  0.00  0.00    -0.384 OA
ATOM     46  H   UNL     1       0.977  -2.900  29.320  0.00  0.00    +0.210 HD
ENDBRANCH  44  45
BRANCH  43  47
ATOM     47  O   UNL     1       2.334  -0.470  30.485  0.00  0.00    -0.386 OA
ATOM     48  H   UNL     1       1.386  -0.235  30.421  0.00  0.00    +0.210 HD
ENDBRANCH  43  47
BRANCH  42  49
ATOM     49  O   UNL     1       3.170   1.131  28.431  0.00  0.00    -0.386 OA
ATOM     50  H   UNL     1       2.317   1.143  28.911  0.00  0.00    +0.210 HD
ENDBRANCH  42  49
BRANCH  41  51
ATOM     51  C   UNL     1       4.962   0.150  26.338  0.00  0.00    +0.190 C 
BRANCH  51  52
ATOM     52  O   UNL     1       5.237  -0.360  25.033  0.00  0.00    -0.392 OA
ATOM     53  H   UNL     1       6.033   0.080  24.694  0.00  0.00    +0.210 HD
ENDBRANCH  51  52
ENDBRANCH  41  51
ENDBRANCH  38  39
ENDBRANCH  37  38
ENDBRANCH  27  37
ENDBRANCH  24  25
ENDBRANCH   6  24
BRANCH   1  54
ATOM     54  O   UNL     1      10.718   1.053  24.332  0.00  0.00    -0.461 OA
BRANCH  54  58
ATOM     55  C   UNL     1       7.882   3.952  25.714  0.00  0.00    +0.041 C 
ATOM     56  C   UNL     1       8.092   3.598  24.239  0.00  0.00    +0.150 C 
ATOM     57  O   UNL     1       8.757   2.339  24.093  0.00  0.00    -0.334 OA
ATOM     58  C   UNL     1      10.125   2.339  24.513  0.00  0.00    +0.339 C 
ATOM     59  C   UNL     1      10.919   3.339  23.641  0.00  0.00    +0.214 C 
ATOM     60  C   UNL     1      10.305   4.733  23.792  0.00  0.00    +0.180 C 
ATOM     61  C   UNL     1       8.806   4.701  23.442  0.00  0.00    +0.174 C 
BRANCH  59  62
ATOM     62  O   UNL     1      10.870   2.993  22.238  0.00  0.00    -0.383 OA
ATOM     63  H   UNL     1      10.660   2.037  22.188  0.00  0.00    +0.210 HD
ENDBRANCH  59  62
BRANCH  60  64
ATOM     64  O   UNL     1      10.977   5.669  22.942  0.00  0.00    -0.386 OA
ATOM     65  H   UNL     1      10.450   5.703  22.115  0.00  0.00    +0.210 HD
ENDBRANCH  60  64
BRANCH  61  66
ATOM     66  O   UNL     1       8.174   5.958  23.685  0.00  0.00    -0.387 OA
ATOM     67  H   UNL     1       8.793   6.663  23.424  0.00  0.00    +0.210 HD
ENDBRANCH  61  66
ENDBRANCH  54  58
ENDBRANCH   1  54
TORSDOF 22
ENDMDL
MODEL 9
REMARK VINA RESULT:      -6.4      2.240      5.130
REMARK  Name = 
REMARK  23 active torsions:
REMARK  status: ('A' for Active; 'I' for Inactive)
REMARK    1  A    between atoms: C_1  and  C_2
REMARK    2  A    between atoms: C_3  and  O_54
REMARK    3  A    between atoms: C_4  and  O_53
REMARK    4  A    between atoms: C_5  and  O_52
REMARK    5  A    between atoms: C_6  and  O_8
REMARK    6  A    between atoms: O_8  and  C_9
REMARK    7  A    between atoms: C_11  and  O_51
REMARK    8  A    between atoms: C_16  and  C_43
REMARK    9  A    between atoms: C_17  and  O_20
REMARK   10  A    between atoms: O_20  and  C_21
REMARK   11  A    between atoms: C_22  and  O_42
REMARK   12  A    between atoms: C_23  and  O_41
REMARK   13  A    between atoms: C_24  and  O_40
REMARK   14  A    between atoms: C_25  and  C_27
REMARK   15  A    between atoms: C_27  and  O_28
REMARK   16  A    between atoms: O_28  and  C_29
REMARK   17  A    between atoms: C_30  and  O_39
REMARK   18  A    between atoms: C_31  and  O_38
REMARK   19  A    between atoms: C_32  and  O_37
REMARK   20  A    between atoms: C_33  and  C_35
REMARK   21  A    between atoms: C_35  and  O_36
REMARK   22  A    between atoms: C_45  and  O_50
REMARK   23  A    between atoms: C_46  and  O_49
REMARK                            x       y       z     vdW  Elec       q    Type
REMARK                         _______ _______ _______ _____ _____    ______ ____
ROOT
ATOM      1  C   UNL     1       8.825  -3.072  23.551  0.00  0.00    +0.131 A 
ATOM      2  C   UNL     1       7.730  -3.889  23.244  0.00  0.00    +0.093 A 
ATOM      3  C   UNL     1       6.900  -4.364  24.266  0.00  0.00    +0.147 A 
ATOM      4  O   UNL     1       5.838  -5.164  23.914  0.00  0.00    -0.451 OA
ATOM      5  C   UNL     1       4.920  -5.515  24.899  0.00  0.00    +0.181 A 
ATOM      6  C   UNL     1       5.084  -5.306  26.225  0.00  0.00    +0.214 A 
ATOM      7  C   UNL     1       6.389  -4.687  26.634  0.00  0.00    +0.238 A 
ATOM      8  O   UNL     1       6.842  -4.754  27.770  0.00  0.00    -0.283 OA
ATOM      9  C   UNL     1       7.178  -4.035  25.586  0.00  0.00    +0.109 A 
ATOM     10  C   UNL     1       8.235  -3.169  25.888  0.00  0.00    +0.135 A 
ATOM     11  C   UNL     1       9.055  -2.695  24.873  0.00  0.00    +0.092 A 
ENDROOT
BRANCH   5  12
ATOM     12  C   UNL     1       3.735  -6.230  24.371  0.00  0.00    +0.025 A 
ATOM     13  C   UNL     1       2.921  -5.597  23.412  0.00  0.00    +0.015 A 
ATOM     14  C   UNL     1       1.809  -6.260  22.877  0.00  0.00    +0.050 A 
ATOM     15  C   UNL     1       1.522  -7.550  23.297  0.00  0.00    +0.158 A 
ATOM     16  C   UNL     1       2.314  -8.180  24.253  0.00  0.00    +0.159 A 
ATOM     17  C   UNL     1       3.423  -7.530  24.797  0.00  0.00    +0.060 A 
BRANCH  16  18
ATOM     18  O   UNL     1       1.956  -9.447  24.623  0.00  0.00    -0.503 OA
ATOM     19  H   UNL     1       2.580 -10.077  24.226  0.00  0.00    +0.292 HD
ENDBRANCH  16  18
BRANCH  15  20
ATOM     20  O   UNL     1       0.444  -8.196  22.763  0.00  0.00    -0.503 OA
ATOM     21  H   UNL     1       0.795  -9.055  22.454  0.00  0.00    +0.292 HD
ENDBRANCH  15  20
ENDBRANCH   5  12
BRANCH  10  22
ATOM     22  O   UNL     1       8.464  -2.751  27.169  0.00  0.00    -0.506 OA
ATOM     23  H   UNL     1       9.417  -2.660  27.328  0.00  0.00    +0.292 HD
ENDBRANCH  10  22
BRANCH   6  24
ATOM     24  O   UNL     1       4.097  -5.694  27.137  0.00  0.00    -0.453 OA
BRANCH  24  25
ATOM     25  C   UNL     1       2.891  -4.915  27.136  0.00  0.00    +0.340 C 
ATOM     26  O   UNL     1       3.140  -3.550  27.527  0.00  0.00    -0.331 OA
ATOM     27  C   UNL     1       3.604  -3.418  28.882  0.00  0.00    +0.179 C 
ATOM     28  C   UNL     1       2.445  -3.877  29.776  0.00  0.00    +0.177 C 
ATOM     29  C   UNL     1       2.093  -5.343  29.511  0.00  0.00    +0.180 C 
ATOM     30  C   UNL     1       1.804  -5.565  28.024  0.00  0.00    +0.214 C 
BRANCH  30  31
ATOM     31  O   UNL     1       1.621  -6.954  27.715  0.00  0.00    -0.383 OA
ATOM     32  H   UNL     1       0.935  -7.303  28.311  0.00  0.00    +0.210 HD
ENDBRANCH  30  31
BRANCH  29  33
ATOM     33  O   UNL     1       0.929  -5.675  30.284  0.00  0.00    -0.386 OA
ATOM     34  H   UNL     1       0.240  -5.925  29.632  0.00  0.00    +0.210 HD
ENDBRANCH  29  33
BRANCH  28  35
ATOM     35  O   UNL     1       1.267  -3.089  29.472  0.00  0.00    -0.386 OA
ATOM     36  H   UNL     1       1.377  -2.739  28.562  0.00  0.00    +0.210 HD
ENDBRANCH  28  35
BRANCH  27  37
ATOM     37  C   UNL     1       3.901  -1.936  29.204  0.00  0.00    +0.197 C 
BRANCH  37  38
ATOM     38  O   UNL     1       3.974  -1.059  28.066  0.00  0.00    -0.346 OA
BRANCH  38  39
ATOM     39  C   UNL     1       5.330  -1.046  27.561  0.00  0.00    +0.282 C 
ATOM     40  O   UNL     1       6.164  -0.099  28.238  0.00  0.00    -0.341 OA
ATOM     41  C   UNL     1       5.773   1.273  28.032  0.00  0.00    +0.178 C 
ATOM     42  C   UNL     1       5.884   1.612  26.541  0.00  0.00    +0.177 C 
ATOM     43  C   UNL     1       5.021   0.649  25.712  0.00  0.00    +0.179 C 
ATOM     44  C   UNL     1       5.379  -0.810  26.038  0.00  0.00    +0.201 C 
BRANCH  44  45
ATOM     45  O   UNL     1       4.535  -1.737  25.345  0.00  0.00    -0.384 OA
ATOM     46  H   UNL     1       4.361  -1.350  24.469  0.00  0.00    +0.210 HD
ENDBRANCH  44  45
BRANCH  43  47
ATOM     47  O   UNL     1       5.240   0.920  24.317  0.00  0.00    -0.386 OA
ATOM     48  H   UNL     1       4.651   1.669  24.092  0.00  0.00    +0.210 HD
ENDBRANCH  43  47
BRANCH  42  49
ATOM     49  O   UNL     1       7.247   1.496  26.083  0.00  0.00    -0.386 OA
ATOM     50  H   UNL     1       7.227   1.180  25.158  0.00  0.00    +0.210 HD
ENDBRANCH  42  49
BRANCH  41  51
ATOM     51  C   UNL     1       6.702   2.164  28.879  0.00  0.00    +0.190 C 
BRANCH  51  52
ATOM     52  O   UNL     1       7.450   3.069  28.067  0.00  0.00    -0.392 OA
ATOM     53  H   UNL     1       7.248   2.882  27.135  0.00  0.00    +0.210 HD
ENDBRANCH  51  52
ENDBRANCH  41  51
ENDBRANCH  38  39
ENDBRANCH  37  38
ENDBRANCH  27  37
ENDBRANCH  24  25
ENDBRANCH   6  24
BRANCH   1  54
ATOM     54  O   UNL     1       9.755  -2.573  22.684  0.00  0.00    -0.461 OA
BRANCH  54  58
ATOM     55  C   UNL     1      11.846   0.721  24.454  0.00  0.00    +0.041 C 
ATOM     56  C   UNL     1      10.320   0.584  24.443  0.00  0.00    +0.150 C 
ATOM     57  O   UNL     1       9.919  -0.765  24.188  0.00  0.00    -0.334 OA
ATOM     58  C   UNL     1      10.188  -1.223  22.859  0.00  0.00    +0.339 C 
ATOM     59  C   UNL     1       9.397  -0.352  21.856  0.00  0.00    +0.214 C 
ATOM     60  C   UNL     1       9.819   1.110  22.022  0.00  0.00    +0.180 C 
ATOM     61  C   UNL     1       9.627   1.563  23.481  0.00  0.00    +0.174 C 
BRANCH  59  62
ATOM     62  O   UNL     1       7.971  -0.420  22.085  0.00  0.00    -0.383 OA
ATOM     63  H   UNL     1       7.621  -1.115  21.490  0.00  0.00    +0.210 HD
ENDBRANCH  59  62
BRANCH  60  64
ATOM     64  O   UNL     1       9.054   1.953  21.154  0.00  0.00    -0.386 OA
ATOM     65  H   UNL     1       8.855   2.761  21.674  0.00  0.00    +0.210 HD
ENDBRANCH  60  64
BRANCH  61  66
ATOM     66  O   UNL     1      10.121   2.885  23.699  0.00  0.00    -0.387 OA
ATOM     67  H   UNL     1      10.896   2.825  24.286  0.00  0.00    +0.210 HD
ENDBRANCH  61  66
ENDBRANCH  54  58
ENDBRANCH   1  54
TORSDOF 22
ENDMDL
