MODEL 1
REMARK VINA RESULT:      -7.2      0.000      0.000
REMARK  Name = 
REMARK  14 active torsions:
REMARK  status: ('A' for Active; 'I' for Inactive)
REMARK    1  A    between atoms: C_4  and  O_43
REMARK    2  A    between atoms: C_6  and  C_7
REMARK    3  A    between atoms: C_8  and  O_20
REMARK    4  A    between atoms: C_12  and  O_19
REMARK    5  A    between atoms: C_14  and  O_18
REMARK    6  A    between atoms: O_20  and  C_21
REMARK    7  A    between atoms: C_23  and  O_42
REMARK    8  A    between atoms: C_25  and  O_41
REMARK    9  A    between atoms: C_27  and  O_40
REMARK   10  A    between atoms: C_29  and  C_32
REMARK   11  A    between atoms: C_32  and  O_33
REMARK   12  A    between atoms: O_33  and  C_34
REMARK   13  A    between atoms: C_34  and  C_36
REMARK   14  A    between atoms: C_36  and  C_37
REMARK                            x       y       z     vdW  Elec       q    Type
REMARK                         _______ _______ _______ _____ _____    ______ ____
ROOT
ATOM      1  C   UNL     1       6.430  -1.246  26.782  0.00  0.00    +0.181 A 
ATOM      2  O   UNL     1       5.384  -2.008  27.310  0.00  0.00    -0.451 OA
ATOM      3  C   UNL     1       5.596  -3.323  27.605  0.00  0.00    +0.147 A 
ATOM      4  C   UNL     1       6.708  -4.001  27.154  0.00  0.00    +0.109 A 
ATOM      5  C   UNL     1       6.881  -5.361  27.438  0.00  0.00    +0.135 A 
ATOM      6  C   UNL     1       5.951  -6.035  28.209  0.00  0.00    +0.091 A 
ATOM      7  C   UNL     1       4.838  -5.341  28.669  0.00  0.00    +0.124 A 
ATOM      8  C   UNL     1       7.701  -3.276  26.396  0.00  0.00    +0.238 A 
ATOM      9  O   UNL     1       8.610  -3.946  25.902  0.00  0.00    -0.283 OA
ATOM     10  C   UNL     1       4.649  -3.991  28.375  0.00  0.00    +0.092 A 
ATOM     11  C   UNL     1       7.586  -1.783  26.315  0.00  0.00    +0.214 A 
ENDROOT
BRANCH   1  13
ATOM     12  C   UNL     1       5.371   0.875  25.938  0.00  0.00    +0.011 A 
ATOM     13  C   UNL     1       6.104   0.203  26.923  0.00  0.00    +0.024 A 
ATOM     14  C   UNL     1       6.754   0.988  27.887  0.00  0.00    +0.056 A 
ATOM     15  C   UNL     1       6.745   2.382  27.773  0.00  0.00    +0.110 A 
ATOM     16  C   UNL     1       6.096   3.100  26.749  0.00  0.00    -0.066 A 
ATOM     17  O   UNL     1       6.179   4.373  26.646  0.00  0.00    -0.871 OA
ATOM     18  C   UNL     1       5.379   2.284  25.860  0.00  0.00    -0.004 A 
BRANCH  15  19
ATOM     19  O   UNL     1       7.462   3.142  28.673  0.00  0.00    -0.507 OA
ATOM     20  H   UNL     1       8.223   3.369  28.079  0.00  0.00    +0.292 HD
ENDBRANCH  15  19
ENDBRANCH   1  13
BRANCH   5  21
ATOM     21  O   UNL     1       7.965  -6.090  27.014  0.00  0.00    -0.506 OA
ATOM     22  H   UNL     1       8.201  -5.776  26.109  0.00  0.00    +0.292 HD
ENDBRANCH   5  21
BRANCH   7  23
ATOM     23  O   UNL     1       3.889  -5.973  29.416  0.00  0.00    -0.507 OA
ATOM     24  H   UNL     1       3.230  -5.312  29.688  0.00  0.00    +0.292 HD
ENDBRANCH   7  23
BRANCH  11  25
ATOM     25  O   UNL     1       8.624  -1.019  25.802  0.00  0.00    -0.453 OA
BRANCH  25  26
ATOM     26  C   UNL     1       8.452  -0.429  24.489  0.00  0.00    +0.340 C 
ATOM     27  O   UNL     1       7.546  -1.274  23.793  0.00  0.00    -0.330 OA
ATOM     28  C   UNL     1       7.756  -1.609  22.413  0.00  0.00    +0.191 C 
ATOM     29  C   UNL     1       9.225  -1.837  21.969  0.00  0.00    +0.178 C 
ATOM     30  C   UNL     1      10.195  -1.603  23.117  0.00  0.00    +0.180 C 
ATOM     31  C   UNL     1       9.827  -0.288  23.793  0.00  0.00    +0.214 C 
BRANCH  29  32
ATOM     32  O   UNL     1       9.559  -0.940  20.892  0.00  0.00    -0.386 OA
ATOM     33  H   UNL     1      10.259  -1.374  20.358  0.00  0.00    +0.210 HD
ENDBRANCH  29  32
BRANCH  30  34
ATOM     34  O   UNL     1      10.207  -2.693  24.040  0.00  0.00    -0.386 OA
ATOM     35  H   UNL     1       9.916  -3.505  23.578  0.00  0.00    +0.210 HD
ENDBRANCH  30  34
BRANCH  31  36
ATOM     36  O   UNL     1       9.796   0.792  22.834  0.00  0.00    -0.383 OA
ATOM     37  H   UNL     1      10.152   0.412  22.005  0.00  0.00    +0.210 HD
ENDBRANCH  31  36
BRANCH  28  38
ATOM     38  C   UNL     1       6.958  -2.914  22.305  0.00  0.00    +0.266 C 
BRANCH  38  39
ATOM     39  O   UNL     1       7.680  -4.074  22.701  0.00  0.00    -0.462 OA
BRANCH  39  40
ATOM     40  C   UNL     1       7.016  -5.262  22.592  0.00  0.00    +0.313 C 
ATOM     41  O   UNL     1       7.079  -5.993  21.614  0.00  0.00    -0.250 OA
BRANCH  40  42
ATOM     42  C   UNL     1       6.110  -5.380  23.765  0.00  0.00    +0.172 C 
BRANCH  42  43
ATOM     43  C   UNL     1       4.834  -6.085  23.401  0.00  0.00    +0.052 C 
ATOM     44  O   UNL     1       4.058  -5.427  22.647  0.00  0.00    -0.549 OA
ATOM     45  O   UNL     1       4.632  -7.193  23.972  0.00  0.00    -0.549 OA
ENDBRANCH  42  43
ENDBRANCH  40  42
ENDBRANCH  39  40
ENDBRANCH  38  39
ENDBRANCH  28  38
ENDBRANCH  25  26
ENDBRANCH  11  25
TORSDOF 14
ENDMDL
MODEL 2
REMARK VINA RESULT:      -7.1      2.194      6.453
REMARK  Name = 
REMARK  14 active torsions:
REMARK  status: ('A' for Active; 'I' for Inactive)
REMARK    1  A    between atoms: C_4  and  O_43
REMARK    2  A    between atoms: C_6  and  C_7
REMARK    3  A    between atoms: C_8  and  O_20
REMARK    4  A    between atoms: C_12  and  O_19
REMARK    5  A    between atoms: C_14  and  O_18
REMARK    6  A    between atoms: O_20  and  C_21
REMARK    7  A    between atoms: C_23  and  O_42
REMARK    8  A    between atoms: C_25  and  O_41
REMARK    9  A    between atoms: C_27  and  O_40
REMARK   10  A    between atoms: C_29  and  C_32
REMARK   11  A    between atoms: C_32  and  O_33
REMARK   12  A    between atoms: O_33  and  C_34
REMARK   13  A    between atoms: C_34  and  C_36
REMARK   14  A    between atoms: C_36  and  C_37
REMARK                            x       y       z     vdW  Elec       q    Type
REMARK                         _______ _______ _______ _____ _____    ______ ____
ROOT
ATOM      1  C   UNL     1       8.618  -1.944  24.649  0.00  0.00    +0.181 A 
ATOM      2  O   UNL     1       8.900  -0.695  25.211  0.00  0.00    -0.451 OA
ATOM      3  C   UNL     1       8.859   0.418  24.424  0.00  0.00    +0.147 A 
ATOM      4  C   UNL     1       8.822   0.337  23.048  0.00  0.00    +0.109 A 
ATOM      5  C   UNL     1       8.822   1.496  22.264  0.00  0.00    +0.135 A 
ATOM      6  C   UNL     1       8.824   2.743  22.863  0.00  0.00    +0.091 A 
ATOM      7  C   UNL     1       8.850   2.816  24.250  0.00  0.00    +0.124 A 
ATOM      8  C   UNL     1       8.766  -0.969  22.433  0.00  0.00    +0.238 A 
ATOM      9  O   UNL     1       8.867  -0.999  21.205  0.00  0.00    -0.283 OA
ATOM     10  C   UNL     1       8.869   1.666  25.039  0.00  0.00    +0.092 A 
ATOM     11  C   UNL     1       8.537  -2.161  23.311  0.00  0.00    +0.214 A 
ENDROOT
BRANCH   1  13
ATOM     12  C   UNL     1       9.042  -4.117  25.845  0.00  0.00    +0.011 A 
ATOM     13  C   UNL     1       8.325  -2.920  25.739  0.00  0.00    +0.024 A 
ATOM     14  C   UNL     1       7.153  -2.804  26.502  0.00  0.00    +0.056 A 
ATOM     15  C   UNL     1       6.689  -3.899  27.237  0.00  0.00    +0.110 A 
ATOM     16  C   UNL     1       7.330  -5.152  27.304  0.00  0.00    -0.066 A 
ATOM     17  O   UNL     1       6.826  -6.148  27.932  0.00  0.00    -0.871 OA
ATOM     18  C   UNL     1       8.546  -5.197  26.605  0.00  0.00    -0.004 A 
BRANCH  15  19
ATOM     19  O   UNL     1       5.489  -3.805  27.911  0.00  0.00    -0.507 OA
ATOM     20  H   UNL     1       5.050  -3.149  27.311  0.00  0.00    +0.292 HD
ENDBRANCH  15  19
ENDBRANCH   1  13
BRANCH   5  21
ATOM     21  O   UNL     1       8.789   1.479  20.890  0.00  0.00    -0.506 OA
ATOM     22  H   UNL     1       8.652   2.406  20.583  0.00  0.00    +0.292 HD
ENDBRANCH   5  21
BRANCH   7  23
ATOM     23  O   UNL     1       8.871   4.025  24.879  0.00  0.00    -0.507 OA
ATOM     24  H   UNL     1       9.586   4.554  24.489  0.00  0.00    +0.292 HD
ENDBRANCH   7  23
BRANCH  11  25
ATOM     25  O   UNL     1       8.247  -3.402  22.761  0.00  0.00    -0.453 OA
BRANCH  25  26
ATOM     26  C   UNL     1       6.958  -3.581  22.124  0.00  0.00    +0.340 C 
ATOM     27  O   UNL     1       5.990  -3.500  23.162  0.00  0.00    -0.330 OA
ATOM     28  C   UNL     1       4.870  -4.397  23.204  0.00  0.00    +0.191 C 
ATOM     29  C   UNL     1       5.137  -5.862  22.767  0.00  0.00    +0.178 C 
ATOM     30  C   UNL     1       6.579  -6.055  22.318  0.00  0.00    +0.180 C 
ATOM     31  C   UNL     1       6.934  -4.926  21.358  0.00  0.00    +0.214 C 
BRANCH  29  32
ATOM     32  O   UNL     1       4.263  -6.221  21.680  0.00  0.00    -0.386 OA
ATOM     33  H   UNL     1       4.431  -7.165  21.469  0.00  0.00    +0.210 HD
ENDBRANCH  29  32
BRANCH  30  34
ATOM     34  O   UNL     1       7.481  -6.120  23.423  0.00  0.00    -0.386 OA
ATOM     35  H   UNL     1       7.685  -5.211  23.722  0.00  0.00    +0.210 HD
ENDBRANCH  30  34
BRANCH  31  36
ATOM     36  O   UNL     1       5.991  -4.865  20.265  0.00  0.00    -0.383 OA
ATOM     37  H   UNL     1       6.464  -5.242  19.495  0.00  0.00    +0.210 HD
ENDBRANCH  31  36
BRANCH  28  38
ATOM     38  C   UNL     1       4.507  -4.342  24.692  0.00  0.00    +0.266 C 
BRANCH  38  39
ATOM     39  O   UNL     1       3.148  -4.654  24.972  0.00  0.00    -0.462 OA
BRANCH  39  40
ATOM     40  C   UNL     1       2.935  -5.630  25.904  0.00  0.00    +0.313 C 
ATOM     41  O   UNL     1       3.658  -5.820  26.871  0.00  0.00    -0.250 OA
BRANCH  40  42
ATOM     42  C   UNL     1       1.814  -6.477  25.419  0.00  0.00    +0.172 C 
BRANCH  42  43
ATOM     43  C   UNL     1       2.265  -7.413  24.334  0.00  0.00    +0.052 C 
ATOM     44  O   UNL     1       3.092  -8.298  24.704  0.00  0.00    -0.549 OA
ATOM     45  O   UNL     1       1.862  -7.145  23.168  0.00  0.00    -0.549 OA
ENDBRANCH  42  43
ENDBRANCH  40  42
ENDBRANCH  39  40
ENDBRANCH  38  39
ENDBRANCH  28  38
ENDBRANCH  25  26
ENDBRANCH  11  25
TORSDOF 14
ENDMDL
MODEL 3
REMARK VINA RESULT:      -6.9      3.037      8.030
REMARK  Name = 
REMARK  14 active torsions:
REMARK  status: ('A' for Active; 'I' for Inactive)
REMARK    1  A    between atoms: C_4  and  O_43
REMARK    2  A    between atoms: C_6  and  C_7
REMARK    3  A    between atoms: C_8  and  O_20
REMARK    4  A    between atoms: C_12  and  O_19
REMARK    5  A    between atoms: C_14  and  O_18
REMARK    6  A    between atoms: O_20  and  C_21
REMARK    7  A    between atoms: C_23  and  O_42
REMARK    8  A    between atoms: C_25  and  O_41
REMARK    9  A    between atoms: C_27  and  O_40
REMARK   10  A    between atoms: C_29  and  C_32
REMARK   11  A    between atoms: C_32  and  O_33
REMARK   12  A    between atoms: O_33  and  C_34
REMARK   13  A    between atoms: C_34  and  C_36
REMARK   14  A    between atoms: C_36  and  C_37
REMARK                            x       y       z     vdW  Elec       q    Type
REMARK                         _______ _______ _______ _____ _____    ______ ____
ROOT
ATOM      1  C   UNL     1       9.015   2.114  23.753  0.00  0.00    +0.181 A 
ATOM      2  O   UNL     1      10.257   2.435  23.198  0.00  0.00    -0.451 OA
ATOM      3  C   UNL     1      10.824   3.644  23.478  0.00  0.00    +0.147 A 
ATOM      4  C   UNL     1      10.107   4.669  24.058  0.00  0.00    +0.109 A 
ATOM      5  C   UNL     1      10.703   5.913  24.296  0.00  0.00    +0.135 A 
ATOM      6  C   UNL     1      12.034   6.119  23.984  0.00  0.00    +0.091 A 
ATOM      7  C   UNL     1      12.753   5.077  23.409  0.00  0.00    +0.124 A 
ATOM      8  C   UNL     1       8.733   4.427  24.430  0.00  0.00    +0.238 A 
ATOM      9  O   UNL     1       8.093   5.404  24.823  0.00  0.00    -0.283 OA
ATOM     10  C   UNL     1      12.162   3.841  23.151  0.00  0.00    +0.092 A 
ATOM     11  C   UNL     1       8.213   3.022  24.367  0.00  0.00    +0.214 A 
ENDROOT
BRANCH   1  13
ATOM     12  C   UNL     1       9.874  -0.240  23.529  0.00  0.00    +0.011 A 
ATOM     13  C   UNL     1       8.795   0.642  23.652  0.00  0.00    +0.024 A 
ATOM     14  C   UNL     1       7.514   0.131  23.393  0.00  0.00    +0.056 A 
ATOM     15  C   UNL     1       7.368  -1.177  22.922  0.00  0.00    +0.110 A 
ATOM     16  C   UNL     1       8.432  -2.074  22.698  0.00  0.00    -0.066 A 
ATOM     17  O   UNL     1       8.254  -3.238  22.196  0.00  0.00    -0.871 OA
ATOM     18  C   UNL     1       9.686  -1.557  23.060  0.00  0.00    -0.004 A 
BRANCH  15  19
ATOM     19  O   UNL     1       6.114  -1.642  22.584  0.00  0.00    -0.507 OA
ATOM     20  H   UNL     1       6.403  -2.407  22.023  0.00  0.00    +0.292 HD
ENDBRANCH  15  19
ENDBRANCH   1  13
BRANCH   5  21
ATOM     21  O   UNL     1      10.039   6.971  24.868  0.00  0.00    -0.506 OA
ATOM     22  H   UNL     1       9.074   6.834  24.719  0.00  0.00    +0.292 HD
ENDBRANCH   5  21
BRANCH   7  23
ATOM     23  O   UNL     1      14.063   5.245  23.069  0.00  0.00    -0.507 OA
ATOM     24  H   UNL     1      14.419   5.977  23.601  0.00  0.00    +0.292 HD
ENDBRANCH   7  23
BRANCH  11  25
ATOM     25  O   UNL     1       6.985   2.694  24.925  0.00  0.00    -0.453 OA
BRANCH  25  26
ATOM     26  C   UNL     1       6.926   2.460  26.354  0.00  0.00    +0.340 C 
ATOM     27  O   UNL     1       7.513   1.183  26.569  0.00  0.00    -0.330 OA
ATOM     28  C   UNL     1       6.938   0.250  27.496  0.00  0.00    +0.191 C 
ATOM     29  C   UNL     1       5.388   0.199  27.561  0.00  0.00    +0.178 C 
ATOM     30  C   UNL     1       4.759   1.222  26.626  0.00  0.00    +0.180 C 
ATOM     31  C   UNL     1       5.461   2.558  26.841  0.00  0.00    +0.214 C 
BRANCH  29  32
ATOM     32  O   UNL     1       4.941   0.464  28.904  0.00  0.00    -0.386 OA
ATOM     33  H   UNL     1       4.652  -0.391  29.290  0.00  0.00    +0.210 HD
ENDBRANCH  29  32
BRANCH  30  34
ATOM     34  O   UNL     1       4.810   0.805  25.262  0.00  0.00    -0.386 OA
ATOM     35  H   UNL     1       5.186  -0.097  25.218  0.00  0.00    +0.210 HD
ENDBRANCH  30  34
BRANCH  31  36
ATOM     36  O   UNL     1       5.418   2.944  28.232  0.00  0.00    -0.383 OA
ATOM     37  H   UNL     1       6.355   3.032  28.505  0.00  0.00    +0.210 HD
ENDBRANCH  31  36
BRANCH  28  38
ATOM     38  C   UNL     1       7.493  -1.075  26.959  0.00  0.00    +0.266 C 
BRANCH  38  39
ATOM     39  O   UNL     1       6.495  -2.013  26.576  0.00  0.00    -0.462 OA
BRANCH  39  40
ATOM     40  C   UNL     1       6.915  -3.056  25.801  0.00  0.00    +0.313 C 
ATOM     41  O   UNL     1       6.184  -3.683  25.048  0.00  0.00    -0.250 OA
BRANCH  40  42
ATOM     42  C   UNL     1       8.317  -3.365  26.185  0.00  0.00    +0.172 C 
BRANCH  42  43
ATOM     43  C   UNL     1       8.720  -4.737  25.724  0.00  0.00    +0.052 C 
ATOM     44  O   UNL     1       8.163  -5.692  26.341  0.00  0.00    -0.549 OA
ATOM     45  O   UNL     1       9.639  -4.782  24.859  0.00  0.00    -0.549 OA
ENDBRANCH  42  43
ENDBRANCH  40  42
ENDBRANCH  39  40
ENDBRANCH  38  39
ENDBRANCH  28  38
ENDBRANCH  25  26
ENDBRANCH  11  25
TORSDOF 14
ENDMDL
MODEL 4
REMARK VINA RESULT:      -6.8      2.220      6.629
REMARK  Name = 
REMARK  14 active torsions:
REMARK  status: ('A' for Active; 'I' for Inactive)
REMARK    1  A    between atoms: C_4  and  O_43
REMARK    2  A    between atoms: C_6  and  C_7
REMARK    3  A    between atoms: C_8  and  O_20
REMARK    4  A    between atoms: C_12  and  O_19
REMARK    5  A    between atoms: C_14  and  O_18
REMARK    6  A    between atoms: O_20  and  C_21
REMARK    7  A    between atoms: C_23  and  O_42
REMARK    8  A    between atoms: C_25  and  O_41
REMARK    9  A    between atoms: C_27  and  O_40
REMARK   10  A    between atoms: C_29  and  C_32
REMARK   11  A    between atoms: C_32  and  O_33
REMARK   12  A    between atoms: O_33  and  C_34
REMARK   13  A    between atoms: C_34  and  C_36
REMARK   14  A    between atoms: C_36  and  C_37
REMARK                            x       y       z     vdW  Elec       q    Type
REMARK                         _______ _______ _______ _____ _____    ______ ____
ROOT
ATOM      1  C   UNL     1       8.330  -1.818  24.103  0.00  0.00    +0.181 A 
ATOM      2  O   UNL     1       8.331  -2.773  23.082  0.00  0.00    -0.451 OA
ATOM      3  C   UNL     1       7.322  -3.688  23.019  0.00  0.00    +0.147 A 
ATOM      4  C   UNL     1       6.451  -3.887  24.069  0.00  0.00    +0.109 A 
ATOM      5  C   UNL     1       5.450  -4.862  23.993  0.00  0.00    +0.135 A 
ATOM      6  C   UNL     1       5.298  -5.616  22.844  0.00  0.00    +0.091 A 
ATOM      7  C   UNL     1       6.173  -5.402  21.785  0.00  0.00    +0.124 A 
ATOM      8  C   UNL     1       6.584  -3.057  25.244  0.00  0.00    +0.238 A 
ATOM      9  O   UNL     1       5.874  -3.354  26.206  0.00  0.00    -0.283 OA
ATOM     10  C   UNL     1       7.185  -4.446  21.860  0.00  0.00    +0.092 A 
ATOM     11  C   UNL     1       7.514  -1.883  25.187  0.00  0.00    +0.214 A 
ENDROOT
BRANCH   1  13
ATOM     12  C   UNL     1      10.250  -0.283  24.637  0.00  0.00    +0.011 A 
ATOM     13  C   UNL     1       9.262  -0.710  23.744  0.00  0.00    +0.024 A 
ATOM     14  C   UNL     1       8.996   0.112  22.638  0.00  0.00    +0.056 A 
ATOM     15  C   UNL     1       9.629   1.354  22.526  0.00  0.00    +0.110 A 
ATOM     16  C   UNL     1      10.565   1.866  23.447  0.00  0.00    -0.066 A 
ATOM     17  O   UNL     1      11.062   3.041  23.339  0.00  0.00    -0.871 OA
ATOM     18  C   UNL     1      10.874   0.974  24.485  0.00  0.00    -0.004 A 
BRANCH  15  19
ATOM     19  O   UNL     1       9.295   2.195  21.485  0.00  0.00    -0.507 OA
ATOM     20  H   UNL     1      10.178   2.634  21.380  0.00  0.00    +0.292 HD
ENDBRANCH  15  19
ENDBRANCH   1  13
BRANCH   5  21
ATOM     21  O   UNL     1       4.556  -5.107  25.007  0.00  0.00    -0.506 OA
ATOM     22  H   UNL     1       5.075  -5.337  25.814  0.00  0.00    +0.292 HD
ENDBRANCH   5  21
BRANCH   7  23
ATOM     23  O   UNL     1       6.068  -6.137  20.642  0.00  0.00    -0.507 OA
ATOM     24  H   UNL     1       5.758  -7.026  20.883  0.00  0.00    +0.292 HD
ENDBRANCH   7  23
BRANCH  11  25
ATOM     25  O   UNL     1       7.512  -0.926  26.192  0.00  0.00    -0.453 OA
BRANCH  25  26
ATOM     26  C   UNL     1       6.232  -0.427  26.655  0.00  0.00    +0.340 C 
ATOM     27  O   UNL     1       5.647   0.245  25.548  0.00  0.00    -0.330 OA
ATOM     28  C   UNL     1       4.963   1.496  25.717  0.00  0.00    +0.191 C 
ATOM     29  C   UNL     1       5.568   2.485  26.748  0.00  0.00    +0.178 C 
ATOM     30  C   UNL     1       6.788   1.892  27.437  0.00  0.00    +0.180 C 
ATOM     31  C   UNL     1       6.440   0.480  27.891  0.00  0.00    +0.214 C 
BRANCH  29  32
ATOM     32  O   UNL     1       4.587   2.817  27.749  0.00  0.00    -0.386 OA
ATOM     33  H   UNL     1       4.435   3.785  27.699  0.00  0.00    +0.210 HD
ENDBRANCH  29  32
BRANCH  30  34
ATOM     34  O   UNL     1       7.943   1.913  26.597  0.00  0.00    -0.386 OA
ATOM     35  H   UNL     1       8.228   2.841  26.471  0.00  0.00    +0.210 HD
ENDBRANCH  30  34
BRANCH  31  36
ATOM     36  O   UNL     1       5.254   0.483  28.717  0.00  0.00    -0.383 OA
ATOM     37  H   UNL     1       5.579   0.578  29.636  0.00  0.00    +0.210 HD
ENDBRANCH  31  36
BRANCH  28  38
ATOM     38  C   UNL     1       5.059   2.076  24.301  0.00  0.00    +0.266 C 
BRANCH  38  39
ATOM     39  O   UNL     1       6.389   2.303  23.854  0.00  0.00    -0.462 OA
BRANCH  39  40
ATOM     40  C   UNL     1       6.581   3.408  23.073  0.00  0.00    +0.313 C 
ATOM     41  O   UNL     1       6.731   3.368  21.860  0.00  0.00    -0.250 OA
BRANCH  40  42
ATOM     42  C   UNL     1       6.745   4.575  23.978  0.00  0.00    +0.172 C 
BRANCH  42  43
ATOM     43  C   UNL     1       8.195   4.864  24.241  0.00  0.00    +0.052 C 
ATOM     44  O   UNL     1       8.777   5.533  23.337  0.00  0.00    -0.549 OA
ATOM     45  O   UNL     1       8.692   4.317  25.266  0.00  0.00    -0.549 OA
ENDBRANCH  42  43
ENDBRANCH  40  42
ENDBRANCH  39  40
ENDBRANCH  38  39
ENDBRANCH  28  38
ENDBRANCH  25  26
ENDBRANCH  11  25
TORSDOF 14
ENDMDL
MODEL 5
REMARK VINA RESULT:      -6.7      2.039      6.034
REMARK  Name = 
REMARK  14 active torsions:
REMARK  status: ('A' for Active; 'I' for Inactive)
REMARK    1  A    between atoms: C_4  and  O_43
REMARK    2  A    between atoms: C_6  and  C_7
REMARK    3  A    between atoms: C_8  and  O_20
REMARK    4  A    between atoms: C_12  and  O_19
REMARK    5  A    between atoms: C_14  and  O_18
REMARK    6  A    between atoms: O_20  and  C_21
REMARK    7  A    between atoms: C_23  and  O_42
REMARK    8  A    between atoms: C_25  and  O_41
REMARK    9  A    between atoms: C_27  and  O_40
REMARK   10  A    between atoms: C_29  and  C_32
REMARK   11  A    between atoms: C_32  and  O_33
REMARK   12  A    between atoms: O_33  and  C_34
REMARK   13  A    between atoms: C_34  and  C_36
REMARK   14  A    between atoms: C_36  and  C_37
REMARK                            x       y       z     vdW  Elec       q    Type
REMARK                         _______ _______ _______ _____ _____    ______ ____
ROOT
ATOM      1  C   UNL     1       7.186  -0.794  25.406  0.00  0.00    +0.181 A 
ATOM      2  O   UNL     1       7.643   0.526  25.354  0.00  0.00    -0.451 OA
ATOM      3  C   UNL     1       8.419   0.925  24.306  0.00  0.00    +0.147 A 
ATOM      4  C   UNL     1       9.000   0.021  23.442  0.00  0.00    +0.109 A 
ATOM      5  C   UNL     1       9.826   0.457  22.399  0.00  0.00    +0.135 A 
ATOM      6  C   UNL     1      10.042   1.808  22.201  0.00  0.00    +0.091 A 
ATOM      7  C   UNL     1       9.445   2.714  23.069  0.00  0.00    +0.124 A 
ATOM      8  C   UNL     1       8.724  -1.385  23.625  0.00  0.00    +0.238 A 
ATOM      9  O   UNL     1       9.363  -2.164  22.916  0.00  0.00    -0.283 OA
ATOM     10  C   UNL     1       8.636   2.287  24.122  0.00  0.00    +0.092 A 
ATOM     11  C   UNL     1       7.660  -1.782  24.603  0.00  0.00    +0.214 A 
ENDROOT
BRANCH   1  13
ATOM     12  C   UNL     1       5.886  -2.029  27.171  0.00  0.00    +0.011 A 
ATOM     13  C   UNL     1       6.060  -0.888  26.379  0.00  0.00    +0.024 A 
ATOM     14  C   UNL     1       4.995   0.024  26.325  0.00  0.00    +0.056 A 
ATOM     15  C   UNL     1       3.784  -0.279  26.955  0.00  0.00    +0.110 A 
ATOM     16  C   UNL     1       3.533  -1.456  27.689  0.00  0.00    -0.066 A 
ATOM     17  O   UNL     1       2.384  -1.722  28.186  0.00  0.00    -0.871 OA
ATOM     18  C   UNL     1       4.651  -2.296  27.799  0.00  0.00    -0.004 A 
BRANCH  15  19
ATOM     19  O   UNL     1       2.714   0.581  26.820  0.00  0.00    -0.507 OA
ATOM     20  H   UNL     1       2.052   0.051  27.335  0.00  0.00    +0.292 HD
ENDBRANCH  15  19
ENDBRANCH   1  13
BRANCH   5  21
ATOM     21  O   UNL     1      10.433  -0.396  21.510  0.00  0.00    -0.506 OA
ATOM     22  H   UNL     1      10.750  -1.180  22.017  0.00  0.00    +0.292 HD
ENDBRANCH   5  21
BRANCH   7  23
ATOM     23  O   UNL     1       9.648   4.054  22.919  0.00  0.00    -0.507 OA
ATOM     24  H   UNL     1      10.000   4.206  22.026  0.00  0.00    +0.292 HD
ENDBRANCH   7  23
BRANCH  11  25
ATOM     25  O   UNL     1       7.194  -3.088  24.654  0.00  0.00    -0.453 OA
BRANCH  25  26
ATOM     26  C   UNL     1       6.121  -3.466  23.756  0.00  0.00    +0.340 C 
ATOM     27  O   UNL     1       5.418  -4.518  24.404  0.00  0.00    -0.330 OA
ATOM     28  C   UNL     1       4.964  -5.667  23.672  0.00  0.00    +0.191 C 
ATOM     29  C   UNL     1       5.902  -6.193  22.553  0.00  0.00    +0.178 C 
ATOM     30  C   UNL     1       7.144  -5.325  22.415  0.00  0.00    +0.180 C 
ATOM     31  C   UNL     1       6.705  -3.866  22.380  0.00  0.00    +0.214 C 
BRANCH  29  32
ATOM     32  O   UNL     1       5.206  -6.208  21.292  0.00  0.00    -0.386 OA
ATOM     33  H   UNL     1       4.249  -6.308  21.488  0.00  0.00    +0.210 HD
ENDBRANCH  29  32
BRANCH  30  34
ATOM     34  O   UNL     1       8.090  -5.573  23.455  0.00  0.00    -0.386 OA
ATOM     35  H   UNL     1       8.391  -4.718  23.824  0.00  0.00    +0.210 HD
ENDBRANCH  30  34
BRANCH  31  36
ATOM     36  O   UNL     1       5.729  -3.648  21.338  0.00  0.00    -0.383 OA
ATOM     37  H   UNL     1       5.041  -3.079  21.742  0.00  0.00    +0.210 HD
ENDBRANCH  31  36
BRANCH  28  38
ATOM     38  C   UNL     1       4.844  -6.701  24.797  0.00  0.00    +0.266 C 
BRANCH  38  39
ATOM     39  O   UNL     1       5.753  -6.502  25.872  0.00  0.00    -0.462 OA
BRANCH  39  40
ATOM     40  C   UNL     1       5.205  -6.449  27.122  0.00  0.00    +0.313 C 
ATOM     41  O   UNL     1       4.073  -6.830  27.387  0.00  0.00    -0.250 OA
BRANCH  40  42
ATOM     42  C   UNL     1       6.149  -5.706  27.996  0.00  0.00    +0.172 C 
BRANCH  42  43
ATOM     43  C   UNL     1       6.326  -6.395  29.319  0.00  0.00    +0.052 C 
ATOM     44  O   UNL     1       6.611  -7.626  29.245  0.00  0.00    -0.549 OA
ATOM     45  O   UNL     1       6.064  -5.703  30.343  0.00  0.00    -0.549 OA
ENDBRANCH  42  43
ENDBRANCH  40  42
ENDBRANCH  39  40
ENDBRANCH  38  39
ENDBRANCH  28  38
ENDBRANCH  25  26
ENDBRANCH  11  25
TORSDOF 14
ENDMDL
MODEL 6
REMARK VINA RESULT:      -6.7      2.158      7.256
REMARK  Name = 
REMARK  14 active torsions:
REMARK  status: ('A' for Active; 'I' for Inactive)
REMARK    1  A    between atoms: C_4  and  O_43
REMARK    2  A    between atoms: C_6  and  C_7
REMARK    3  A    between atoms: C_8  and  O_20
REMARK    4  A    between atoms: C_12  and  O_19
REMARK    5  A    between atoms: C_14  and  O_18
REMARK    6  A    between atoms: O_20  and  C_21
REMARK    7  A    between atoms: C_23  and  O_42
REMARK    8  A    between atoms: C_25  and  O_41
REMARK    9  A    between atoms: C_27  and  O_40
REMARK   10  A    between atoms: C_29  and  C_32
REMARK   11  A    between atoms: C_32  and  O_33
REMARK   12  A    between atoms: O_33  and  C_34
REMARK   13  A    between atoms: C_34  and  C_36
REMARK   14  A    between atoms: C_36  and  C_37
REMARK                            x       y       z     vdW  Elec       q    Type
REMARK                         _______ _______ _______ _____ _____    ______ ____
ROOT
ATOM      1  C   UNL     1       6.901  -0.563  23.784  0.00  0.00    +0.181 A 
ATOM      2  O   UNL     1       8.007   0.021  23.160  0.00  0.00    -0.451 OA
ATOM      3  C   UNL     1       8.395   1.277  23.523  0.00  0.00    +0.147 A 
ATOM      4  C   UNL     1       7.586   2.101  24.278  0.00  0.00    +0.109 A 
ATOM      5  C   UNL     1       7.993   3.400  24.602  0.00  0.00    +0.135 A 
ATOM      6  C   UNL     1       9.231   3.865  24.196  0.00  0.00    +0.091 A 
ATOM      7  C   UNL     1      10.044   3.025  23.445  0.00  0.00    +0.124 A 
ATOM      8  C   UNL     1       6.319   1.588  24.742  0.00  0.00    +0.238 A 
ATOM      9  O   UNL     1       5.573   2.396  25.300  0.00  0.00    -0.283 OA
ATOM     10  C   UNL     1       9.639   1.736  23.102  0.00  0.00    +0.092 A 
ATOM     11  C   UNL     1       6.032   0.127  24.567  0.00  0.00    +0.214 A 
ENDROOT
BRANCH   1  13
ATOM     12  C   UNL     1       7.943  -2.839  24.042  0.00  0.00    +0.011 A 
ATOM     13  C   UNL     1       6.916  -2.034  23.537  0.00  0.00    +0.024 A 
ATOM     14  C   UNL     1       6.072  -2.601  22.569  0.00  0.00    +0.056 A 
ATOM     15  C   UNL     1       6.345  -3.877  22.068  0.00  0.00    +0.110 A 
ATOM     16  C   UNL     1       7.420  -4.690  22.482  0.00  0.00    -0.066 A 
ATOM     17  O   UNL     1       7.672  -5.823  21.940  0.00  0.00    -0.871 OA
ATOM     18  C   UNL     1       8.182  -4.127  23.517  0.00  0.00    -0.004 A 
BRANCH  15  19
ATOM     19  O   UNL     1       5.566  -4.390  21.052  0.00  0.00    -0.507 OA
ATOM     20  H   UNL     1       4.837  -4.756  21.616  0.00  0.00    +0.292 HD
ENDBRANCH  15  19
ENDBRANCH   1  13
BRANCH   5  21
ATOM     21  O   UNL     1       7.230   4.267  25.347  0.00  0.00    -0.506 OA
ATOM     22  H   UNL     1       7.469   4.135  26.295  0.00  0.00    +0.292 HD
ENDBRANCH   5  21
BRANCH   7  23
ATOM     23  O   UNL     1      11.265   3.451  23.010  0.00  0.00    -0.507 OA
ATOM     24  H   UNL     1      11.126   4.221  22.434  0.00  0.00    +0.292 HD
ENDBRANCH   7  23
BRANCH  11  25
ATOM     25  O   UNL     1       4.942  -0.463  25.192  0.00  0.00    -0.453 OA
BRANCH  25  26
ATOM     26  C   UNL     1       5.058  -0.792  26.598  0.00  0.00    +0.340 C 
ATOM     27  O   UNL     1       5.809  -1.998  26.659  0.00  0.00    -0.330 OA
ATOM     28  C   UNL     1       5.446  -3.053  27.564  0.00  0.00    +0.191 C 
ATOM     29  C   UNL     1       3.927  -3.298  27.771  0.00  0.00    +0.178 C 
ATOM     30  C   UNL     1       3.090  -2.303  26.981  0.00  0.00    +0.180 C 
ATOM     31  C   UNL     1       3.650  -0.907  27.228  0.00  0.00    +0.214 C 
BRANCH  29  32
ATOM     32  O   UNL     1       3.594  -3.176  29.167  0.00  0.00    -0.386 OA
ATOM     33  H   UNL     1       2.967  -3.901  29.381  0.00  0.00    +0.210 HD
ENDBRANCH  29  32
BRANCH  30  34
ATOM     34  O   UNL     1       3.048  -2.623  25.590  0.00  0.00    -0.386 OA
ATOM     35  H   UNL     1       2.419  -2.021  25.143  0.00  0.00    +0.210 HD
ENDBRANCH  30  34
BRANCH  31  36
ATOM     36  O   UNL     1       3.707  -0.619  28.642  0.00  0.00    -0.383 OA
ATOM     37  H   UNL     1       2.937  -0.040  28.820  0.00  0.00    +0.210 HD
ENDBRANCH  31  36
BRANCH  28  38
ATOM     38  C   UNL     1       6.092  -4.262  26.878  0.00  0.00    +0.266 C 
BRANCH  38  39
ATOM     39  O   UNL     1       5.408  -4.707  25.713  0.00  0.00    -0.462 OA
BRANCH  39  40
ATOM     40  C   UNL     1       5.154  -6.047  25.640  0.00  0.00    +0.313 C 
ATOM     41  O   UNL     1       5.396  -6.837  26.541  0.00  0.00    -0.250 OA
BRANCH  40  42
ATOM     42  C   UNL     1       4.723  -6.347  24.249  0.00  0.00    +0.172 C 
BRANCH  42  43
ATOM     43  C   UNL     1       3.353  -5.797  23.972  0.00  0.00    +0.052 C 
ATOM     44  O   UNL     1       3.264  -5.092  22.924  0.00  0.00    -0.549 OA
ATOM     45  O   UNL     1       2.482  -6.006  24.862  0.00  0.00    -0.549 OA
ENDBRANCH  42  43
ENDBRANCH  40  42
ENDBRANCH  39  40
ENDBRANCH  38  39
ENDBRANCH  28  38
ENDBRANCH  25  26
ENDBRANCH  11  25
TORSDOF 14
ENDMDL
MODEL 7
REMARK VINA RESULT:      -6.5      2.619      6.523
REMARK  Name = 
REMARK  14 active torsions:
REMARK  status: ('A' for Active; 'I' for Inactive)
REMARK    1  A    between atoms: C_4  and  O_43
REMARK    2  A    between atoms: C_6  and  C_7
REMARK    3  A    between atoms: C_8  and  O_20
REMARK    4  A    between atoms: C_12  and  O_19
REMARK    5  A    between atoms: C_14  and  O_18
REMARK    6  A    between atoms: O_20  and  C_21
REMARK    7  A    between atoms: C_23  and  O_42
REMARK    8  A    between atoms: C_25  and  O_41
REMARK    9  A    between atoms: C_27  and  O_40
REMARK   10  A    between atoms: C_29  and  C_32
REMARK   11  A    between atoms: C_32  and  O_33
REMARK   12  A    between atoms: O_33  and  C_34
REMARK   13  A    between atoms: C_34  and  C_36
REMARK   14  A    between atoms: C_36  and  C_37
REMARK                            x       y       z     vdW  Elec       q    Type
REMARK                         _______ _______ _______ _____ _____    ______ ____
ROOT
ATOM      1  C   UNL     1       7.448  -1.501  23.926  0.00  0.00    +0.181 A 
ATOM      2  O   UNL     1       7.784  -2.777  23.463  0.00  0.00    -0.451 OA
ATOM      3  C   UNL     1       6.807  -3.720  23.331  0.00  0.00    +0.147 A 
ATOM      4  C   UNL     1       5.557  -3.558  23.890  0.00  0.00    +0.109 A 
ATOM      5  C   UNL     1       4.587  -4.560  23.774  0.00  0.00    +0.135 A 
ATOM      6  C   UNL     1       4.860  -5.715  23.064  0.00  0.00    +0.091 A 
ATOM      7  C   UNL     1       6.119  -5.866  22.494  0.00  0.00    +0.124 A 
ATOM      8  C   UNL     1       5.264  -2.326  24.584  0.00  0.00    +0.238 A 
ATOM      9  O   UNL     1       4.185  -2.276  25.178  0.00  0.00    -0.283 OA
ATOM     10  C   UNL     1       7.097  -4.880  22.621  0.00  0.00    +0.092 A 
ATOM     11  C   UNL     1       6.248  -1.199  24.484  0.00  0.00    +0.214 A 
ENDROOT
BRANCH   1  13
ATOM     12  C   UNL     1       9.652  -0.412  24.462  0.00  0.00    +0.011 A 
ATOM     13  C   UNL     1       8.555  -0.553  23.605  0.00  0.00    +0.024 A 
ATOM     14  C   UNL     1       8.394   0.414  22.602  0.00  0.00    +0.056 A 
ATOM     15  C   UNL     1       9.245   1.523  22.561  0.00  0.00    +0.110 A 
ATOM     16  C   UNL     1      10.309   1.754  23.457  0.00  0.00    -0.066 A 
ATOM     17  O   UNL     1      11.014   2.822  23.423  0.00  0.00    -0.871 OA
ATOM     18  C   UNL     1      10.495   0.717  24.383  0.00  0.00    -0.004 A 
BRANCH  15  19
ATOM     19  O   UNL     1       9.024   2.515  21.628  0.00  0.00    -0.507 OA
ATOM     20  H   UNL     1       8.738   1.932  20.879  0.00  0.00    +0.292 HD
ENDBRANCH  15  19
ENDBRANCH   1  13
BRANCH   5  21
ATOM     21  O   UNL     1       3.327  -4.458  24.312  0.00  0.00    -0.506 OA
ATOM     22  H   UNL     1       3.071  -5.349  24.647  0.00  0.00    +0.292 HD
ENDBRANCH   5  21
BRANCH   7  23
ATOM     23  O   UNL     1       6.434  -6.997  21.801  0.00  0.00    -0.507 OA
ATOM     24  H   UNL     1       7.390  -7.144  21.884  0.00  0.00    +0.292 HD
ENDBRANCH   7  23
BRANCH  11  25
ATOM     25  O   UNL     1       5.918   0.072  24.932  0.00  0.00    -0.453 OA
BRANCH  25  26
ATOM     26  C   UNL     1       6.096   0.367  26.340  0.00  0.00    +0.340 C 
ATOM     27  O   UNL     1       5.036   1.245  26.695  0.00  0.00    -0.330 OA
ATOM     28  C   UNL     1       5.265   2.376  27.550  0.00  0.00    +0.191 C 
ATOM     29  C   UNL     1       6.609   3.128  27.362  0.00  0.00    +0.178 C 
ATOM     30  C   UNL     1       7.474   2.465  26.300  0.00  0.00    +0.180 C 
ATOM     31  C   UNL     1       7.503   0.967  26.576  0.00  0.00    +0.214 C 
BRANCH  29  32
ATOM     32  O   UNL     1       7.339   3.152  28.604  0.00  0.00    -0.386 OA
ATOM     33  H   UNL     1       6.765   2.746  29.288  0.00  0.00    +0.210 HD
ENDBRANCH  29  32
BRANCH  30  34
ATOM     34  O   UNL     1       7.018   2.756  24.978  0.00  0.00    -0.386 OA
ATOM     35  H   UNL     1       6.475   3.570  25.000  0.00  0.00    +0.210 HD
ENDBRANCH  30  34
BRANCH  31  36
ATOM     36  O   UNL     1       7.941   0.701  27.927  0.00  0.00    -0.383 OA
ATOM     37  H   UNL     1       8.560  -0.054  27.855  0.00  0.00    +0.210 HD
ENDBRANCH  31  36
BRANCH  28  38
ATOM     38  C   UNL     1       4.089   3.280  27.161  0.00  0.00    +0.266 C 
BRANCH  38  39
ATOM     39  O   UNL     1       4.297   4.025  25.968  0.00  0.00    -0.462 OA
BRANCH  39  40
ATOM     40  C   UNL     1       3.572   3.631  24.879  0.00  0.00    +0.313 C 
ATOM     41  O   UNL     1       2.749   2.727  24.898  0.00  0.00    -0.250 OA
BRANCH  40  42
ATOM     42  C   UNL     1       4.099   4.365  23.699  0.00  0.00    +0.172 C 
BRANCH  42  43
ATOM     43  C   UNL     1       4.336   3.438  22.540  0.00  0.00    +0.052 C 
ATOM     44  O   UNL     1       3.380   3.364  21.714  0.00  0.00    -0.549 OA
ATOM     45  O   UNL     1       5.401   2.761  22.582  0.00  0.00    -0.549 OA
ENDBRANCH  42  43
ENDBRANCH  40  42
ENDBRANCH  39  40
ENDBRANCH  38  39
ENDBRANCH  28  38
ENDBRANCH  25  26
ENDBRANCH  11  25
TORSDOF 14
ENDMDL
MODEL 8
REMARK VINA RESULT:      -6.5      3.029      7.887
REMARK  Name = 
REMARK  14 active torsions:
REMARK  status: ('A' for Active; 'I' for Inactive)
REMARK    1  A    between atoms: C_4  and  O_43
REMARK    2  A    between atoms: C_6  and  C_7
REMARK    3  A    between atoms: C_8  and  O_20
REMARK    4  A    between atoms: C_12  and  O_19
REMARK    5  A    between atoms: C_14  and  O_18
REMARK    6  A    between atoms: O_20  and  C_21
REMARK    7  A    between atoms: C_23  and  O_42
REMARK    8  A    between atoms: C_25  and  O_41
REMARK    9  A    between atoms: C_27  and  O_40
REMARK   10  A    between atoms: C_29  and  C_32
REMARK   11  A    between atoms: C_32  and  O_33
REMARK   12  A    between atoms: O_33  and  C_34
REMARK   13  A    between atoms: C_34  and  C_36
REMARK   14  A    between atoms: C_36  and  C_37
REMARK                            x       y       z     vdW  Elec       q    Type
REMARK                         _______ _______ _______ _____ _____    ______ ____
ROOT
ATOM      1  C   UNL     1       9.400   1.492  23.981  0.00  0.00    +0.181 A 
ATOM      2  O   UNL     1      10.548   2.121  23.491  0.00  0.00    -0.451 OA
ATOM      3  C   UNL     1      10.663   3.476  23.591  0.00  0.00    +0.147 A 
ATOM      4  C   UNL     1       9.586   4.279  23.902  0.00  0.00    +0.109 A 
ATOM      5  C   UNL     1       9.724   5.671  23.958  0.00  0.00    +0.135 A 
ATOM      6  C   UNL     1      10.956   6.258  23.735  0.00  0.00    +0.091 A 
ATOM      7  C   UNL     1      12.039   5.442  23.432  0.00  0.00    +0.124 A 
ATOM      8  C   UNL     1       8.316   3.652  24.186  0.00  0.00    +0.238 A 
ATOM      9  O   UNL     1       7.353   4.408  24.330  0.00  0.00    -0.283 OA
ATOM     10  C   UNL     1      11.906   4.056  23.357  0.00  0.00    +0.092 A 
ATOM     11  C   UNL     1       8.274   2.162  24.339  0.00  0.00    +0.214 A 
ENDROOT
BRANCH   1  13
ATOM     12  C   UNL     1      10.088  -0.742  23.051  0.00  0.00    +0.011 A 
ATOM     13  C   UNL     1       9.666   0.032  24.136  0.00  0.00    +0.024 A 
ATOM     14  C   UNL     1       9.233  -0.651  25.283  0.00  0.00    +0.056 A 
ATOM     15  C   UNL     1       9.131  -2.046  25.266  0.00  0.00    +0.110 A 
ATOM     16  C   UNL     1       9.461  -2.863  24.166  0.00  0.00    -0.066 A 
ATOM     17  O   UNL     1       9.281  -4.130  24.174  0.00  0.00    -0.871 OA
ATOM     18  C   UNL     1       9.979  -2.149  23.075  0.00  0.00    -0.004 A 
BRANCH  15  19
ATOM     19  O   UNL     1       8.619  -2.703  26.366  0.00  0.00    -0.507 OA
ATOM     20  H   UNL     1       7.661  -2.504  26.205  0.00  0.00    +0.292 HD
ENDBRANCH  15  19
ENDBRANCH   1  13
BRANCH   5  21
ATOM     21  O   UNL     1       8.687   6.521  24.259  0.00  0.00    -0.506 OA
ATOM     22  H   UNL     1       7.909   5.967  24.504  0.00  0.00    +0.292 HD
ENDBRANCH   5  21
BRANCH   7  23
ATOM     23  O   UNL     1      13.266   5.983  23.188  0.00  0.00    -0.507 OA
ATOM     24  H   UNL     1      13.695   6.153  24.043  0.00  0.00    +0.292 HD
ENDBRANCH   7  23
BRANCH  11  25
ATOM     25  O   UNL     1       7.142   1.531  24.834  0.00  0.00    -0.453 OA
BRANCH  25  26
ATOM     26  C   UNL     1       6.908   1.571  26.263  0.00  0.00    +0.340 C 
ATOM     27  O   UNL     1       6.595   0.239  26.649  0.00  0.00    -0.330 OA
ATOM     28  C   UNL     1       5.544  -0.034  27.588  0.00  0.00    +0.191 C 
ATOM     29  C   UNL     1       4.279   0.859  27.494  0.00  0.00    +0.178 C 
ATOM     30  C   UNL     1       4.427   1.921  26.413  0.00  0.00    +0.180 C 
ATOM     31  C   UNL     1       5.786   2.588  26.583  0.00  0.00    +0.214 C 
BRANCH  29  32
ATOM     32  O   UNL     1       4.041   1.514  28.755  0.00  0.00    -0.386 OA
ATOM     33  H   UNL     1       3.996   2.479  28.579  0.00  0.00    +0.210 HD
ENDBRANCH  29  32
BRANCH  30  34
ATOM     34  O   UNL     1       4.257   1.379  25.102  0.00  0.00    -0.386 OA
ATOM     35  H   UNL     1       3.511   0.747  25.113  0.00  0.00    +0.210 HD
ENDBRANCH  30  34
BRANCH  31  36
ATOM     36  O   UNL     1       5.942   3.103  27.924  0.00  0.00    -0.383 OA
ATOM     37  H   UNL     1       5.538   2.430  28.509  0.00  0.00    +0.210 HD
ENDBRANCH  31  36
BRANCH  28  38
ATOM     38  C   UNL     1       5.200  -1.485  27.230  0.00  0.00    +0.266 C 
BRANCH  38  39
ATOM     39  O   UNL     1       5.758  -1.929  26.000  0.00  0.00    -0.462 OA
BRANCH  39  40
ATOM     40  C   UNL     1       4.904  -2.572  25.149  0.00  0.00    +0.313 C 
ATOM     41  O   UNL     1       3.688  -2.579  25.280  0.00  0.00    -0.250 OA
BRANCH  40  42
ATOM     42  C   UNL     1       5.727  -3.364  24.199  0.00  0.00    +0.172 C 
BRANCH  42  43
ATOM     43  C   UNL     1       5.812  -2.693  22.858  0.00  0.00    +0.052 C 
ATOM     44  O   UNL     1       5.307  -3.350  21.900  0.00  0.00    -0.549 OA
ATOM     45  O   UNL     1       6.468  -1.615  22.819  0.00  0.00    -0.549 OA
ENDBRANCH  42  43
ENDBRANCH  40  42
ENDBRANCH  39  40
ENDBRANCH  38  39
ENDBRANCH  28  38
ENDBRANCH  25  26
ENDBRANCH  11  25
TORSDOF 14
ENDMDL
MODEL 9
REMARK VINA RESULT:      -6.4      2.168      7.612
REMARK  Name = 
REMARK  14 active torsions:
REMARK  status: ('A' for Active; 'I' for Inactive)
REMARK    1  A    between atoms: C_4  and  O_43
REMARK    2  A    between atoms: C_6  and  C_7
REMARK    3  A    between atoms: C_8  and  O_20
REMARK    4  A    between atoms: C_12  and  O_19
REMARK    5  A    between atoms: C_14  and  O_18
REMARK    6  A    between atoms: O_20  and  C_21
REMARK    7  A    between atoms: C_23  and  O_42
REMARK    8  A    between atoms: C_25  and  O_41
REMARK    9  A    between atoms: C_27  and  O_40
REMARK   10  A    between atoms: C_29  and  C_32
REMARK   11  A    between atoms: C_32  and  O_33
REMARK   12  A    between atoms: O_33  and  C_34
REMARK   13  A    between atoms: C_34  and  C_36
REMARK   14  A    between atoms: C_36  and  C_37
REMARK                            x       y       z     vdW  Elec       q    Type
REMARK                         _______ _______ _______ _____ _____    ______ ____
ROOT
ATOM      1  C   UNL     1       6.808  -0.631  23.765  0.00  0.00    +0.181 A 
ATOM      2  O   UNL     1       7.848  -0.050  23.034  0.00  0.00    -0.451 OA
ATOM      3  C   UNL     1       8.288   1.197  23.370  0.00  0.00    +0.147 A 
ATOM      4  C   UNL     1       7.575   2.018  24.218  0.00  0.00    +0.109 A 
ATOM      5  C   UNL     1       8.030   3.308  24.513  0.00  0.00    +0.135 A 
ATOM      6  C   UNL     1       9.223   3.764  23.984  0.00  0.00    +0.091 A 
ATOM      7  C   UNL     1       9.941   2.927  23.139  0.00  0.00    +0.124 A 
ATOM      8  C   UNL     1       6.358   1.512  24.808  0.00  0.00    +0.238 A 
ATOM      9  O   UNL     1       5.686   2.320  25.453  0.00  0.00    -0.283 OA
ATOM     10  C   UNL     1       9.486   1.647  22.825  0.00  0.00    +0.092 A 
ATOM     11  C   UNL     1       6.036   0.058  24.645  0.00  0.00    +0.214 A 
ENDROOT
BRANCH   1  13
ATOM     12  C   UNL     1       7.677  -2.964  24.129  0.00  0.00    +0.011 A 
ATOM     13  C   UNL     1       6.777  -2.098  23.498  0.00  0.00    +0.024 A 
ATOM     14  C   UNL     1       6.050  -2.608  22.412  0.00  0.00    +0.056 A 
ATOM     15  C   UNL     1       6.322  -3.894  21.933  0.00  0.00    +0.110 A 
ATOM     16  C   UNL     1       7.282  -4.769  22.481  0.00  0.00    -0.066 A 
ATOM     17  O   UNL     1       7.545  -5.909  21.962  0.00  0.00    -0.871 OA
ATOM     18  C   UNL     1       7.918  -4.259  23.622  0.00  0.00    -0.004 A 
BRANCH  15  19
ATOM     19  O   UNL     1       5.667  -4.353  20.809  0.00  0.00    -0.507 OA
ATOM     20  H   UNL     1       6.229  -3.897  20.132  0.00  0.00    +0.292 HD
ENDBRANCH  15  19
ENDBRANCH   1  13
BRANCH   5  21
ATOM     21  O   UNL     1       7.362   4.172  25.348  0.00  0.00    -0.506 OA
ATOM     22  H   UNL     1       7.576   3.916  26.276  0.00  0.00    +0.292 HD
ENDBRANCH   5  21
BRANCH   7  23
ATOM     23  O   UNL     1      11.114   3.345  22.582  0.00  0.00    -0.507 OA
ATOM     24  H   UNL     1      11.373   4.175  23.017  0.00  0.00    +0.292 HD
ENDBRANCH   7  23
BRANCH  11  25
ATOM     25  O   UNL     1       5.012  -0.529  25.375  0.00  0.00    -0.453 OA
BRANCH  25  26
ATOM     26  C   UNL     1       5.291  -0.936  26.737  0.00  0.00    +0.340 C 
ATOM     27  O   UNL     1       5.212  -2.355  26.749  0.00  0.00    -0.330 OA
ATOM     28  C   UNL     1       4.574  -3.054  27.828  0.00  0.00    +0.191 C 
ATOM     29  C   UNL     1       3.305  -2.393  28.430  0.00  0.00    +0.178 C 
ATOM     30  C   UNL     1       3.003  -1.059  27.763  0.00  0.00    +0.180 C 
ATOM     31  C   UNL     1       4.295  -0.253  27.704  0.00  0.00    +0.214 C 
BRANCH  29  32
ATOM     32  O   UNL     1       3.486  -2.173  29.842  0.00  0.00    -0.386 OA
ATOM     33  H   UNL     1       4.417  -1.893  29.977  0.00  0.00    +0.210 HD
ENDBRANCH  29  32
BRANCH  30  34
ATOM     34  O   UNL     1       2.418  -1.226  26.471  0.00  0.00    -0.386 OA
ATOM     35  H   UNL     1       1.986  -0.389  26.206  0.00  0.00    +0.210 HD
ENDBRANCH  30  34
BRANCH  31  36
ATOM     36  O   UNL     1       4.880  -0.122  29.018  0.00  0.00    -0.383 OA
ATOM     37  H   UNL     1       5.848  -0.156  28.876  0.00  0.00    +0.210 HD
ENDBRANCH  31  36
BRANCH  28  38
ATOM     38  C   UNL     1       4.212  -4.379  27.147  0.00  0.00    +0.266 C 
BRANCH  38  39
ATOM     39  O   UNL     1       5.246  -4.916  26.331  0.00  0.00    -0.462 OA
BRANCH  39  40
ATOM     40  C   UNL     1       6.134  -5.745  26.955  0.00  0.00    +0.313 C 
ATOM     41  O   UNL     1       7.284  -5.923  26.576  0.00  0.00    -0.250 OA
BRANCH  40  42
ATOM     42  C   UNL     1       5.396  -6.482  28.014  0.00  0.00    +0.172 C 
BRANCH  42  43
ATOM     43  C   UNL     1       6.191  -6.553  29.286  0.00  0.00    +0.052 C 
ATOM     44  O   UNL     1       6.817  -7.638  29.463  0.00  0.00    -0.549 OA
ATOM     45  O   UNL     1       6.056  -5.578  30.078  0.00  0.00    -0.549 OA
ENDBRANCH  42  43
ENDBRANCH  40  42
ENDBRANCH  39  40
ENDBRANCH  38  39
ENDBRANCH  28  38
ENDBRANCH  25  26
ENDBRANCH  11  25
TORSDOF 14
ENDMDL
