MODEL 1
REMARK VINA RESULT:      -7.0      0.000      0.000
REMARK  Name = 
REMARK  23 active torsions:
REMARK  status: ('A' for Active; 'I' for Inactive)
REMARK    1  A    between atoms: C_1  and  C_2
REMARK    2  A    between atoms: C_3  and  O_62
REMARK    3  A    between atoms: C_5  and  O_61
REMARK    4  A    between atoms: C_7  and  O_60
REMARK    5  A    between atoms: C_8  and  O_11
REMARK    6  A    between atoms: O_11  and  C_12
REMARK    7  A    between atoms: C_13  and  O_59
REMARK    8  A    between atoms: C_15  and  O_58
REMARK    9  A    between atoms: C_17  and  C_56
REMARK   10  A    between atoms: C_19  and  O_21
REMARK   11  A    between atoms: O_21  and  C_22
REMARK   12  A    between atoms: C_24  and  O_55
REMARK   13  A    between atoms: C_29  and  C_47
REMARK   14  A    between atoms: C_30  and  O_33
REMARK   15  A    between atoms: O_33  and  C_34
REMARK   16  A    between atoms: C_36  and  O_46
REMARK   17  A    between atoms: C_37  and  O_45
REMARK   18  A    between atoms: C_38  and  O_44
REMARK   19  A    between atoms: C_40  and  C_42
REMARK   20  A    between atoms: C_42  and  O_43
REMARK   21  A    between atoms: C_49  and  O_54
REMARK   22  A    between atoms: C_50  and  O_53
REMARK   23  A    between atoms: C_56  and  O_57
REMARK                            x       y       z     vdW  Elec       q    Type
REMARK                         _______ _______ _______ _____ _____    ______ ____
ROOT
ATOM      1  C   UNL     1       5.789  -2.572  27.153  0.00  0.00    +0.131 A 
ATOM      2  C   UNL     1       6.840  -1.714  26.747  0.00  0.00    +0.093 A 
ATOM      3  C   UNL     1       6.573  -0.399  26.292  0.00  0.00    +0.147 A 
ATOM      4  O   UNL     1       7.603   0.430  25.867  0.00  0.00    -0.451 OA
ATOM      5  C   UNL     1       7.298   1.670  25.257  0.00  0.00    +0.181 A 
ATOM      6  C   UNL     1       6.049   2.234  25.257  0.00  0.00    +0.214 A 
ATOM      7  C   UNL     1       5.009   1.464  26.005  0.00  0.00    +0.238 A 
ATOM      8  O   UNL     1       4.026   1.991  26.500  0.00  0.00    -0.283 OA
ATOM      9  C   UNL     1       5.262   0.046  26.275  0.00  0.00    +0.109 A 
ATOM     10  C   UNL     1       4.218  -0.818  26.630  0.00  0.00    +0.135 A 
ATOM     11  C   UNL     1       4.479  -2.112  27.071  0.00  0.00    +0.092 A 
ENDROOT
BRANCH   5  12
ATOM     12  C   UNL     1       8.496   2.383  24.689  0.00  0.00    +0.025 A 
ATOM     13  C   UNL     1       9.503   1.676  23.998  0.00  0.00    +0.015 A 
ATOM     14  C   UNL     1      10.561   2.329  23.345  0.00  0.00    +0.050 A 
ATOM     15  C   UNL     1      10.658   3.706  23.423  0.00  0.00    +0.158 A 
ATOM     16  C   UNL     1       9.727   4.430  24.161  0.00  0.00    +0.159 A 
ATOM     17  C   UNL     1       8.654   3.785  24.797  0.00  0.00    +0.060 A 
BRANCH  16  18
ATOM     18  O   UNL     1       9.905   5.788  24.211  0.00  0.00    -0.503 OA
ATOM     19  H   UNL     1      10.775   6.003  23.836  0.00  0.00    +0.292 HD
ENDBRANCH  16  18
BRANCH  15  20
ATOM     20  O   UNL     1      11.672   4.337  22.764  0.00  0.00    -0.503 OA
ATOM     21  H   UNL     1      11.865   3.768  21.993  0.00  0.00    +0.292 HD
ENDBRANCH  15  20
ENDBRANCH   5  12
BRANCH  10  22
ATOM     22  O   UNL     1       2.915  -0.404  26.496  0.00  0.00    -0.506 OA
ATOM     23  H   UNL     1       2.563  -0.682  25.643  0.00  0.00    +0.292 HD
ENDBRANCH  10  22
BRANCH   6  24
ATOM     24  O   UNL     1       5.768   3.487  24.696  0.00  0.00    -0.453 OA
BRANCH  24  25
ATOM     25  C   UNL     1       5.371   3.603  23.302  0.00  0.00    +0.340 C 
ATOM     26  O   UNL     1       6.139   4.566  22.560  0.00  0.00    -0.331 OA
ATOM     27  C   UNL     1       5.909   5.932  22.952  0.00  0.00    +0.179 C 
ATOM     28  C   UNL     1       4.427   6.338  22.826  0.00  0.00    +0.177 C 
ATOM     29  C   UNL     1       3.541   5.354  23.593  0.00  0.00    +0.180 C 
ATOM     30  C   UNL     1       3.857   3.911  23.182  0.00  0.00    +0.214 C 
BRANCH  30  31
ATOM     31  O   UNL     1       3.064   2.980  23.933  0.00  0.00    -0.383 OA
ATOM     32  H   UNL     1       3.325   2.086  23.657  0.00  0.00    +0.210 HD
ENDBRANCH  30  31
BRANCH  29  33
ATOM     33  O   UNL     1       2.165   5.671  23.317  0.00  0.00    -0.386 OA
ATOM     34  H   UNL     1       1.674   5.483  24.142  0.00  0.00    +0.210 HD
ENDBRANCH  29  33
BRANCH  28  35
ATOM     35  O   UNL     1       3.970   6.343  21.462  0.00  0.00    -0.386 OA
ATOM     36  H   UNL     1       3.052   6.664  21.482  0.00  0.00    +0.210 HD
ENDBRANCH  28  35
BRANCH  27  37
ATOM     37  C   UNL     1       6.870   6.856  22.169  0.00  0.00    +0.190 C 
BRANCH  37  38
ATOM     38  O   UNL     1       8.095   6.260  21.757  0.00  0.00    -0.392 OA
ATOM     39  H   UNL     1       8.121   5.365  22.141  0.00  0.00    +0.210 HD
ENDBRANCH  37  38
ENDBRANCH  27  37
ENDBRANCH  24  25
ENDBRANCH   6  24
BRANCH   1  40
ATOM     40  O   UNL     1       5.845  -3.883  27.565  0.00  0.00    -0.461 OA
BRANCH  40  42
ATOM     41  C   UNL     1       4.472  -5.250  25.993  0.00  0.00    +0.221 C 
ATOM     42  C   UNL     1       4.668  -4.681  27.466  0.00  0.00    +0.340 C 
ATOM     43  O   UNL     1       4.666  -5.722  28.442  0.00  0.00    -0.331 OA
ATOM     44  C   UNL     1       3.450  -6.475  28.488  0.00  0.00    +0.179 C 
ATOM     45  C   UNL     1       3.231  -7.166  27.138  0.00  0.00    +0.177 C 
ATOM     46  C   UNL     1       3.174  -6.114  26.021  0.00  0.00    +0.180 C 
BRANCH  46  47
ATOM     47  O   UNL     1       2.820  -6.771  24.794  0.00  0.00    -0.386 OA
ATOM     48  H   UNL     1       3.342  -7.589  24.721  0.00  0.00    +0.210 HD
ENDBRANCH  46  47
BRANCH  45  49
ATOM     49  O   UNL     1       2.016  -7.915  27.153  0.00  0.00    -0.386 OA
ATOM     50  H   UNL     1       1.824  -8.114  26.214  0.00  0.00    +0.210 HD
ENDBRANCH  45  49
BRANCH  44  51
ATOM     51  C   UNL     1       2.226  -5.632  28.928  0.00  0.00    +0.190 C 
BRANCH  51  52
ATOM     52  O   UNL     1       1.228  -6.436  29.550  0.00  0.00    -0.392 OA
ATOM     53  H   UNL     1       1.454  -7.366  29.371  0.00  0.00    +0.210 HD
ENDBRANCH  51  52
ENDBRANCH  44  51
BRANCH  41  54
ATOM     54  O   UNL     1       5.643  -5.942  25.457  0.00  0.00    -0.337 OA
BRANCH  54  58
ATOM     55  C   UNL     1       8.295  -3.159  23.623  0.00  0.00    +0.041 C 
ATOM     56  C   UNL     1       6.799  -3.173  23.277  0.00  0.00    +0.149 C 
ATOM     57  O   UNL     1       6.009  -3.872  24.282  0.00  0.00    -0.343 OA
ATOM     58  C   UNL     1       6.272  -5.290  24.325  0.00  0.00    +0.282 C 
ATOM     59  C   UNL     1       5.838  -5.889  22.966  0.00  0.00    +0.201 C 
ATOM     60  C   UNL     1       6.700  -5.266  21.860  0.00  0.00    +0.179 C 
ATOM     61  C   UNL     1       6.566  -3.735  21.856  0.00  0.00    +0.174 C 
BRANCH  61  62
ATOM     62  O   UNL     1       5.277  -3.332  21.383  0.00  0.00    -0.387 OA
ATOM     63  H   UNL     1       5.425  -2.772  20.592  0.00  0.00    +0.210 HD
ENDBRANCH  61  62
BRANCH  60  64
ATOM     64  O   UNL     1       6.407  -5.863  20.594  0.00  0.00    -0.386 OA
ATOM     65  H   UNL     1       5.501  -5.610  20.341  0.00  0.00    +0.210 HD
ENDBRANCH  60  64
BRANCH  59  66
ATOM     66  O   UNL     1       4.439  -5.616  22.739  0.00  0.00    -0.384 OA
ATOM     67  H   UNL     1       3.998  -5.649  23.612  0.00  0.00    +0.210 HD
ENDBRANCH  59  66
ENDBRANCH  54  58
ENDBRANCH  41  54
ENDBRANCH  40  42
ENDBRANCH   1  40
TORSDOF 22
ENDMDL
MODEL 2
REMARK VINA RESULT:      -6.8      2.197      9.748
REMARK  Name = 
REMARK  23 active torsions:
REMARK  status: ('A' for Active; 'I' for Inactive)
REMARK    1  A    between atoms: C_1  and  C_2
REMARK    2  A    between atoms: C_3  and  O_62
REMARK    3  A    between atoms: C_5  and  O_61
REMARK    4  A    between atoms: C_7  and  O_60
REMARK    5  A    between atoms: C_8  and  O_11
REMARK    6  A    between atoms: O_11  and  C_12
REMARK    7  A    between atoms: C_13  and  O_59
REMARK    8  A    between atoms: C_15  and  O_58
REMARK    9  A    between atoms: C_17  and  C_56
REMARK   10  A    between atoms: C_19  and  O_21
REMARK   11  A    between atoms: O_21  and  C_22
REMARK   12  A    between atoms: C_24  and  O_55
REMARK   13  A    between atoms: C_29  and  C_47
REMARK   14  A    between atoms: C_30  and  O_33
REMARK   15  A    between atoms: O_33  and  C_34
REMARK   16  A    between atoms: C_36  and  O_46
REMARK   17  A    between atoms: C_37  and  O_45
REMARK   18  A    between atoms: C_38  and  O_44
REMARK   19  A    between atoms: C_40  and  C_42
REMARK   20  A    between atoms: C_42  and  O_43
REMARK   21  A    between atoms: C_49  and  O_54
REMARK   22  A    between atoms: C_50  and  O_53
REMARK   23  A    between atoms: C_56  and  O_57
REMARK                            x       y       z     vdW  Elec       q    Type
REMARK                         _______ _______ _______ _____ _____    ______ ____
ROOT
ATOM      1  C   UNL     1       7.092   1.610  25.693  0.00  0.00    +0.131 A 
ATOM      2  C   UNL     1       6.318   0.623  25.037  0.00  0.00    +0.093 A 
ATOM      3  C   UNL     1       5.561  -0.320  25.776  0.00  0.00    +0.147 A 
ATOM      4  O   UNL     1       4.826  -1.306  25.129  0.00  0.00    -0.451 OA
ATOM      5  C   UNL     1       4.221  -2.338  25.886  0.00  0.00    +0.181 A 
ATOM      6  C   UNL     1       4.107  -2.317  27.252  0.00  0.00    +0.214 A 
ATOM      7  C   UNL     1       4.630  -1.081  27.910  0.00  0.00    +0.238 A 
ATOM      8  O   UNL     1       4.216  -0.680  28.986  0.00  0.00    -0.283 OA
ATOM      9  C   UNL     1       5.569  -0.244  27.158  0.00  0.00    +0.109 A 
ATOM     10  C   UNL     1       6.372   0.701  27.809  0.00  0.00    +0.135 A 
ATOM     11  C   UNL     1       7.122   1.624  27.084  0.00  0.00    +0.092 A 
ENDROOT
BRANCH   5  12
ATOM     12  C   UNL     1       3.607  -3.430  25.050  0.00  0.00    +0.025 A 
ATOM     13  C   UNL     1       2.232  -3.728  25.142  0.00  0.00    +0.015 A 
ATOM     14  C   UNL     1       1.608  -4.646  24.282  0.00  0.00    +0.050 A 
ATOM     15  C   UNL     1       2.369  -5.327  23.350  0.00  0.00    +0.158 A 
ATOM     16  C   UNL     1       3.742  -5.116  23.284  0.00  0.00    +0.159 A 
ATOM     17  C   UNL     1       4.368  -4.182  24.125  0.00  0.00    +0.060 A 
BRANCH  16  18
ATOM     18  O   UNL     1       4.431  -5.846  22.352  0.00  0.00    -0.503 OA
ATOM     19  H   UNL     1       4.099  -6.759  22.361  0.00  0.00    +0.292 HD
ENDBRANCH  16  18
BRANCH  15  20
ATOM     20  O   UNL     1       1.753  -6.197  22.500  0.00  0.00    -0.503 OA
ATOM     21  H   UNL     1       2.142  -6.013  21.623  0.00  0.00    +0.292 HD
ENDBRANCH  15  20
ENDBRANCH   5  12
BRANCH  10  22
ATOM     22  O   UNL     1       6.465   0.690  29.179  0.00  0.00    -0.506 OA
ATOM     23  H   UNL     1       7.381   0.810  29.452  0.00  0.00    +0.292 HD
ENDBRANCH  10  22
BRANCH   6  24
ATOM     24  O   UNL     1       3.459  -3.318  27.987  0.00  0.00    -0.453 OA
BRANCH  24  25
ATOM     25  C   UNL     1       4.211  -4.188  28.877  0.00  0.00    +0.340 C 
ATOM     26  O   UNL     1       5.514  -4.538  28.379  0.00  0.00    -0.331 OA
ATOM     27  C   UNL     1       5.491  -5.397  27.224  0.00  0.00    +0.179 C 
ATOM     28  C   UNL     1       4.735  -6.715  27.487  0.00  0.00    +0.177 C 
ATOM     29  C   UNL     1       3.332  -6.423  28.023  0.00  0.00    +0.180 C 
ATOM     30  C   UNL     1       3.401  -5.465  29.218  0.00  0.00    +0.214 C 
BRANCH  30  31
ATOM     31  O   UNL     1       2.085  -5.148  29.695  0.00  0.00    -0.383 OA
ATOM     32  H   UNL     1       2.121  -5.144  30.666  0.00  0.00    +0.210 HD
ENDBRANCH  30  31
BRANCH  29  33
ATOM     33  O   UNL     1       2.724  -7.669  28.407  0.00  0.00    -0.386 OA
ATOM     34  H   UNL     1       2.572  -7.609  29.372  0.00  0.00    +0.210 HD
ENDBRANCH  29  33
BRANCH  28  35
ATOM     35  O   UNL     1       5.395  -7.546  28.458  0.00  0.00    -0.386 OA
ATOM     36  H   UNL     1       6.157  -7.034  28.783  0.00  0.00    +0.210 HD
ENDBRANCH  28  35
BRANCH  27  37
ATOM     37  C   UNL     1       6.937  -5.607  26.716  0.00  0.00    +0.190 C 
BRANCH  37  38
ATOM     38  O   UNL     1       7.884  -5.993  27.705  0.00  0.00    -0.392 OA
ATOM     39  H   UNL     1       7.596  -6.855  28.057  0.00  0.00    +0.210 HD
ENDBRANCH  37  38
ENDBRANCH  27  37
ENDBRANCH  24  25
ENDBRANCH   6  24
BRANCH   1  40
ATOM     40  O   UNL     1       7.926   2.563  25.156  0.00  0.00    -0.461 OA
BRANCH  40  42
ATOM     41  C   UNL     1       8.172   4.269  23.352  0.00  0.00    +0.221 C 
ATOM     42  C   UNL     1       7.348   3.746  24.609  0.00  0.00    +0.340 C 
ATOM     43  O   UNL     1       5.969   3.551  24.297  0.00  0.00    -0.331 OA
ATOM     44  C   UNL     1       5.294   4.740  23.873  0.00  0.00    +0.179 C 
ATOM     45  C   UNL     1       5.945   5.259  22.587  0.00  0.00    +0.177 C 
ATOM     46  C   UNL     1       7.434   5.543  22.838  0.00  0.00    +0.180 C 
BRANCH  46  47
ATOM     47  O   UNL     1       7.982   6.168  21.667  0.00  0.00    -0.386 OA
ATOM     48  H   UNL     1       8.122   7.112  21.860  0.00  0.00    +0.210 HD
ENDBRANCH  46  47
BRANCH  45  49
ATOM     49  O   UNL     1       5.298   6.454  22.149  0.00  0.00    -0.386 OA
ATOM     50  H   UNL     1       4.525   6.153  21.629  0.00  0.00    +0.210 HD
ENDBRANCH  45  49
BRANCH  44  51
ATOM     51  C   UNL     1       5.214   5.824  24.978  0.00  0.00    +0.190 C 
BRANCH  51  52
ATOM     52  O   UNL     1       4.154   6.744  24.739  0.00  0.00    -0.392 OA
ATOM     53  H   UNL     1       3.664   6.842  25.575  0.00  0.00    +0.210 HD
ENDBRANCH  51  52
ENDBRANCH  44  51
BRANCH  41  54
ATOM     54  O   UNL     1       8.406   3.255  22.325  0.00  0.00    -0.337 OA
BRANCH  54  58
ATOM     55  C   UNL     1      10.541   0.689  24.969  0.00  0.00    +0.041 C 
ATOM     56  C   UNL     1      10.729   0.593  23.449  0.00  0.00    +0.149 C 
ATOM     57  O   UNL     1      10.266   1.790  22.761  0.00  0.00    -0.343 OA
ATOM     58  C   UNL     1       8.836   1.965  22.827  0.00  0.00    +0.282 C 
ATOM     59  C   UNL     1       8.182   0.778  22.080  0.00  0.00    +0.201 C 
ATOM     60  C   UNL     1       8.550  -0.521  22.810  0.00  0.00    +0.179 C 
ATOM     61  C   UNL     1      10.075  -0.692  22.891  0.00  0.00    +0.174 C 
BRANCH  61  62
ATOM     62  O   UNL     1      10.628  -0.997  21.607  0.00  0.00    -0.387 OA
ATOM     63  H   UNL     1      11.439  -0.455  21.510  0.00  0.00    +0.210 HD
ENDBRANCH  61  62
BRANCH  60  64
ATOM     64  O   UNL     1       7.885  -1.640  22.217  0.00  0.00    -0.386 OA
ATOM     65  H   UNL     1       7.828  -2.347  22.884  0.00  0.00    +0.210 HD
ENDBRANCH  60  64
BRANCH  59  66
ATOM     66  O   UNL     1       8.649   0.747  20.714  0.00  0.00    -0.384 OA
ATOM     67  H   UNL     1       9.178   1.559  20.577  0.00  0.00    +0.210 HD
ENDBRANCH  59  66
ENDBRANCH  54  58
ENDBRANCH  41  54
ENDBRANCH  40  42
ENDBRANCH   1  40
TORSDOF 22
ENDMDL
MODEL 3
REMARK VINA RESULT:      -6.7      2.352      9.591
REMARK  Name = 
REMARK  23 active torsions:
REMARK  status: ('A' for Active; 'I' for Inactive)
REMARK    1  A    between atoms: C_1  and  C_2
REMARK    2  A    between atoms: C_3  and  O_62
REMARK    3  A    between atoms: C_5  and  O_61
REMARK    4  A    between atoms: C_7  and  O_60
REMARK    5  A    between atoms: C_8  and  O_11
REMARK    6  A    between atoms: O_11  and  C_12
REMARK    7  A    between atoms: C_13  and  O_59
REMARK    8  A    between atoms: C_15  and  O_58
REMARK    9  A    between atoms: C_17  and  C_56
REMARK   10  A    between atoms: C_19  and  O_21
REMARK   11  A    between atoms: O_21  and  C_22
REMARK   12  A    between atoms: C_24  and  O_55
REMARK   13  A    between atoms: C_29  and  C_47
REMARK   14  A    between atoms: C_30  and  O_33
REMARK   15  A    between atoms: O_33  and  C_34
REMARK   16  A    between atoms: C_36  and  O_46
REMARK   17  A    between atoms: C_37  and  O_45
REMARK   18  A    between atoms: C_38  and  O_44
REMARK   19  A    between atoms: C_40  and  C_42
REMARK   20  A    between atoms: C_42  and  O_43
REMARK   21  A    between atoms: C_49  and  O_54
REMARK   22  A    between atoms: C_50  and  O_53
REMARK   23  A    between atoms: C_56  and  O_57
REMARK                            x       y       z     vdW  Elec       q    Type
REMARK                         _______ _______ _______ _____ _____    ______ ____
ROOT
ATOM      1  C   UNL     1       5.957   2.333  25.414  0.00  0.00    +0.131 A 
ATOM      2  C   UNL     1       5.403   1.154  24.862  0.00  0.00    +0.093 A 
ATOM      3  C   UNL     1       5.001   0.079  25.693  0.00  0.00    +0.147 A 
ATOM      4  O   UNL     1       4.485  -1.089  25.145  0.00  0.00    -0.451 OA
ATOM      5  C   UNL     1       4.253  -2.210  25.978  0.00  0.00    +0.181 A 
ATOM      6  C   UNL     1       4.282  -2.163  27.348  0.00  0.00    +0.214 A 
ATOM      7  C   UNL     1       4.530  -0.807  27.927  0.00  0.00    +0.238 A 
ATOM      8  O   UNL     1       4.141  -0.483  29.038  0.00  0.00    -0.283 OA
ATOM      9  C   UNL     1       5.134   0.212  27.064  0.00  0.00    +0.109 A 
ATOM     10  C   UNL     1       5.726   1.358  27.609  0.00  0.00    +0.135 A 
ATOM     11  C   UNL     1       6.128   2.412  26.793  0.00  0.00    +0.092 A 
ENDROOT
BRANCH   5  12
ATOM     12  C   UNL     1       3.861  -3.457  25.230  0.00  0.00    +0.025 A 
ATOM     13  C   UNL     1       2.716  -4.194  25.597  0.00  0.00    +0.015 A 
ATOM     14  C   UNL     1       2.253  -5.281  24.839  0.00  0.00    +0.050 A 
ATOM     15  C   UNL     1       2.967  -5.684  23.726  0.00  0.00    +0.158 A 
ATOM     16  C   UNL     1       4.144  -5.030  23.380  0.00  0.00    +0.159 A 
ATOM     17  C   UNL     1       4.600  -3.928  24.120  0.00  0.00    +0.060 A 
BRANCH  16  18
ATOM     18  O   UNL     1       4.810  -5.505  22.279  0.00  0.00    -0.503 OA
ATOM     19  H   UNL     1       4.426  -5.100  21.484  0.00  0.00    +0.292 HD
ENDBRANCH  16  18
BRANCH  15  20
ATOM     20  O   UNL     1       2.497  -6.724  22.978  0.00  0.00    -0.503 OA
ATOM     21  H   UNL     1       3.256  -7.003  22.428  0.00  0.00    +0.292 HD
ENDBRANCH  15  20
ENDBRANCH   5  12
BRANCH  10  22
ATOM     22  O   UNL     1       5.962   1.428  28.960  0.00  0.00    -0.506 OA
ATOM     23  H   UNL     1       6.428   0.639  29.258  0.00  0.00    +0.292 HD
ENDBRANCH  10  22
BRANCH   6  24
ATOM     24  O   UNL     1       3.998  -3.266  28.164  0.00  0.00    -0.453 OA
BRANCH  24  25
ATOM     25  C   UNL     1       5.056  -3.923  28.915  0.00  0.00    +0.340 C 
ATOM     26  O   UNL     1       6.185  -4.305  28.110  0.00  0.00    -0.331 OA
ATOM     27  C   UNL     1       5.911  -5.363  27.174  0.00  0.00    +0.179 C 
ATOM     28  C   UNL     1       5.394  -6.640  27.866  0.00  0.00    +0.177 C 
ATOM     29  C   UNL     1       4.185  -6.313  28.746  0.00  0.00    +0.180 C 
ATOM     30  C   UNL     1       4.506  -5.147  29.690  0.00  0.00    +0.214 C 
BRANCH  30  31
ATOM     31  O   UNL     1       3.362  -4.803  30.484  0.00  0.00    -0.383 OA
ATOM     32  H   UNL     1       3.380  -3.841  30.619  0.00  0.00    +0.210 HD
ENDBRANCH  30  31
BRANCH  29  33
ATOM     33  O   UNL     1       3.837  -7.491  29.496  0.00  0.00    -0.386 OA
ATOM     34  H   UNL     1       4.320  -8.231  29.076  0.00  0.00    +0.210 HD
ENDBRANCH  29  33
BRANCH  28  35
ATOM     35  O   UNL     1       6.384  -7.247  28.715  0.00  0.00    -0.386 OA
ATOM     36  H   UNL     1       7.046  -7.645  28.122  0.00  0.00    +0.210 HD
ENDBRANCH  28  35
BRANCH  27  37
ATOM     37  C   UNL     1       7.160  -5.602  26.294  0.00  0.00    +0.190 C 
BRANCH  37  38
ATOM     38  O   UNL     1       8.348  -5.951  26.997  0.00  0.00    -0.392 OA
ATOM     39  H   UNL     1       8.221  -6.853  27.343  0.00  0.00    +0.210 HD
ENDBRANCH  37  38
ENDBRANCH  27  37
ENDBRANCH  24  25
ENDBRANCH   6  24
BRANCH   1  40
ATOM     40  O   UNL     1       6.452   3.446  24.775  0.00  0.00    -0.461 OA
BRANCH  40  42
ATOM     41  C   UNL     1       8.624   2.232  24.591  0.00  0.00    +0.221 C 
ATOM     42  C   UNL     1       7.864   3.625  24.710  0.00  0.00    +0.340 C 
ATOM     43  O   UNL     1       8.224   4.518  23.656  0.00  0.00    -0.331 OA
ATOM     44  C   UNL     1       9.616   4.849  23.623  0.00  0.00    +0.179 C 
ATOM     45  C   UNL     1      10.434   3.575  23.390  0.00  0.00    +0.177 C 
ATOM     46  C   UNL     1      10.145   2.562  24.508  0.00  0.00    +0.180 C 
BRANCH  46  47
ATOM     47  O   UNL     1      11.032   1.444  24.350  0.00  0.00    -0.386 OA
ATOM     48  H   UNL     1      10.830   0.791  25.043  0.00  0.00    +0.210 HD
ENDBRANCH  46  47
BRANCH  45  49
ATOM     49  O   UNL     1      11.830   3.875  23.365  0.00  0.00    -0.386 OA
ATOM     50  H   UNL     1      11.897   4.809  23.650  0.00  0.00    +0.210 HD
ENDBRANCH  45  49
BRANCH  44  51
ATOM     51  C   UNL     1      10.087   5.636  24.873  0.00  0.00    +0.190 C 
BRANCH  51  52
ATOM     52  O   UNL     1      11.292   6.351  24.623  0.00  0.00    -0.392 OA
ATOM     53  H   UNL     1      11.189   6.799  23.764  0.00  0.00    +0.210 HD
ENDBRANCH  51  52
ENDBRANCH  44  51
BRANCH  41  54
ATOM     54  O   UNL     1       8.136   1.374  23.513  0.00  0.00    -0.337 OA
BRANCH  54  58
ATOM     55  C   UNL     1       7.928  -1.964  26.151  0.00  0.00    +0.041 C 
ATOM     56  C   UNL     1       9.077  -1.821  25.143  0.00  0.00    +0.149 C 
ATOM     57  O   UNL     1       9.210  -0.457  24.649  0.00  0.00    -0.343 OA
ATOM     58  C   UNL     1       8.100  -0.041  23.827  0.00  0.00    +0.282 C 
ATOM     59  C   UNL     1       8.086  -0.939  22.566  0.00  0.00    +0.201 C 
ATOM     60  C   UNL     1       7.853  -2.391  23.004  0.00  0.00    +0.179 C 
ATOM     61  C   UNL     1       8.935  -2.847  23.995  0.00  0.00    +0.174 C 
BRANCH  61  62
ATOM     62  O   UNL     1      10.196  -3.015  23.339  0.00  0.00    -0.387 OA
ATOM     63  H   UNL     1      10.212  -3.928  22.982  0.00  0.00    +0.210 HD
ENDBRANCH  61  62
BRANCH  60  64
ATOM     64  O   UNL     1       7.729  -3.248  21.866  0.00  0.00    -0.386 OA
ATOM     65  H   UNL     1       7.870  -2.712  21.065  0.00  0.00    +0.210 HD
ENDBRANCH  60  64
BRANCH  59  66
ATOM     66  O   UNL     1       9.342  -0.812  21.866  0.00  0.00    -0.384 OA
ATOM     67  H   UNL     1       9.196  -0.177  21.136  0.00  0.00    +0.210 HD
ENDBRANCH  59  66
ENDBRANCH  54  58
ENDBRANCH  41  54
ENDBRANCH  40  42
ENDBRANCH   1  40
TORSDOF 22
ENDMDL
MODEL 4
REMARK VINA RESULT:      -6.6      2.412      9.462
REMARK  Name = 
REMARK  23 active torsions:
REMARK  status: ('A' for Active; 'I' for Inactive)
REMARK    1  A    between atoms: C_1  and  C_2
REMARK    2  A    between atoms: C_3  and  O_62
REMARK    3  A    between atoms: C_5  and  O_61
REMARK    4  A    between atoms: C_7  and  O_60
REMARK    5  A    between atoms: C_8  and  O_11
REMARK    6  A    between atoms: O_11  and  C_12
REMARK    7  A    between atoms: C_13  and  O_59
REMARK    8  A    between atoms: C_15  and  O_58
REMARK    9  A    between atoms: C_17  and  C_56
REMARK   10  A    between atoms: C_19  and  O_21
REMARK   11  A    between atoms: O_21  and  C_22
REMARK   12  A    between atoms: C_24  and  O_55
REMARK   13  A    between atoms: C_29  and  C_47
REMARK   14  A    between atoms: C_30  and  O_33
REMARK   15  A    between atoms: O_33  and  C_34
REMARK   16  A    between atoms: C_36  and  O_46
REMARK   17  A    between atoms: C_37  and  O_45
REMARK   18  A    between atoms: C_38  and  O_44
REMARK   19  A    between atoms: C_40  and  C_42
REMARK   20  A    between atoms: C_42  and  O_43
REMARK   21  A    between atoms: C_49  and  O_54
REMARK   22  A    between atoms: C_50  and  O_53
REMARK   23  A    between atoms: C_56  and  O_57
REMARK                            x       y       z     vdW  Elec       q    Type
REMARK                         _______ _______ _______ _____ _____    ______ ____
ROOT
ATOM      1  C   UNL     1       4.400   3.585  26.604  0.00  0.00    +0.131 A 
ATOM      2  C   UNL     1       3.984   2.340  26.075  0.00  0.00    +0.093 A 
ATOM      3  C   UNL     1       4.725   1.158  26.324  0.00  0.00    +0.147 A 
ATOM      4  O   UNL     1       4.330  -0.057  25.780  0.00  0.00    -0.451 OA
ATOM      5  C   UNL     1       5.177  -1.185  25.898  0.00  0.00    +0.181 A 
ATOM      6  C   UNL     1       6.273  -1.235  26.719  0.00  0.00    +0.214 A 
ATOM      7  C   UNL     1       6.499  -0.010  27.544  0.00  0.00    +0.238 A 
ATOM      8  O   UNL     1       7.089  -0.032  28.612  0.00  0.00    -0.283 OA
ATOM      9  C   UNL     1       5.855   1.237  27.119  0.00  0.00    +0.109 A 
ATOM     10  C   UNL     1       6.295   2.476  27.602  0.00  0.00    +0.135 A 
ATOM     11  C   UNL     1       5.571   3.639  27.352  0.00  0.00    +0.092 A 
ENDROOT
BRANCH   5  12
ATOM     12  C   UNL     1       4.710  -2.385  25.116  0.00  0.00    +0.025 A 
ATOM     13  C   UNL     1       3.663  -3.201  25.594  0.00  0.00    +0.015 A 
ATOM     14  C   UNL     1       3.119  -4.244  24.828  0.00  0.00    +0.050 A 
ATOM     15  C   UNL     1       3.657  -4.523  23.585  0.00  0.00    +0.158 A 
ATOM     16  C   UNL     1       4.741  -3.789  23.114  0.00  0.00    +0.159 A 
ATOM     17  C   UNL     1       5.274  -2.731  23.866  0.00  0.00    +0.060 A 
BRANCH  16  18
ATOM     18  O   UNL     1       5.234  -4.143  21.885  0.00  0.00    -0.503 OA
ATOM     19  H   UNL     1       4.815  -4.974  21.607  0.00  0.00    +0.292 HD
ENDBRANCH  16  18
BRANCH  15  20
ATOM     20  O   UNL     1       3.106  -5.519  22.834  0.00  0.00    -0.503 OA
ATOM     21  H   UNL     1       3.583  -6.330  23.100  0.00  0.00    +0.292 HD
ENDBRANCH  15  20
ENDBRANCH   5  12
BRANCH  10  22
ATOM     22  O   UNL     1       7.481   2.559  28.289  0.00  0.00    -0.506 OA
ATOM     23  H   UNL     1       7.377   3.114  29.069  0.00  0.00    +0.292 HD
ENDBRANCH  10  22
BRANCH   6  24
ATOM     24  O   UNL     1       7.074  -2.375  26.869  0.00  0.00    -0.453 OA
BRANCH  24  25
ATOM     25  C   UNL     1       8.505  -2.313  26.615  0.00  0.00    +0.340 C 
ATOM     26  O   UNL     1       8.884  -1.285  25.684  0.00  0.00    -0.331 OA
ATOM     27  C   UNL     1       8.447  -1.523  24.334  0.00  0.00    +0.179 C 
ATOM     28  C   UNL     1       8.972  -2.860  23.773  0.00  0.00    +0.177 C 
ATOM     29  C   UNL     1       8.607  -4.009  24.715  0.00  0.00    +0.180 C 
ATOM     30  C   UNL     1       9.044  -3.689  26.150  0.00  0.00    +0.214 C 
BRANCH  30  31
ATOM     31  O   UNL     1       8.661  -4.742  27.047  0.00  0.00    -0.383 OA
ATOM     32  H   UNL     1       9.253  -4.698  27.816  0.00  0.00    +0.210 HD
ENDBRANCH  30  31
BRANCH  29  33
ATOM     33  O   UNL     1       9.252  -5.206  24.243  0.00  0.00    -0.386 OA
ATOM     34  H   UNL     1       8.654  -5.587  23.569  0.00  0.00    +0.210 HD
ENDBRANCH  29  33
BRANCH  28  35
ATOM     35  O   UNL     1      10.404  -2.872  23.626  0.00  0.00    -0.386 OA
ATOM     36  H   UNL     1      10.751  -2.235  24.275  0.00  0.00    +0.210 HD
ENDBRANCH  28  35
BRANCH  27  37
ATOM     37  C   UNL     1       8.811  -0.302  23.457  0.00  0.00    +0.190 C 
BRANCH  37  38
ATOM     38  O   UNL     1      10.083   0.281  23.715  0.00  0.00    -0.392 OA
ATOM     39  H   UNL     1      10.222   0.973  23.043  0.00  0.00    +0.210 HD
ENDBRANCH  37  38
ENDBRANCH  27  37
ENDBRANCH  24  25
ENDBRANCH   6  24
BRANCH   1  40
ATOM     40  O   UNL     1       3.850   4.834  26.427  0.00  0.00    -0.461 OA
BRANCH  40  42
ATOM     41  C   UNL     1       4.837   5.451  24.220  0.00  0.00    +0.221 C 
ATOM     42  C   UNL     1       3.529   5.258  25.105  0.00  0.00    +0.340 C 
ATOM     43  O   UNL     1       2.598   4.367  24.489  0.00  0.00    -0.331 OA
ATOM     44  C   UNL     1       2.127   4.809  23.211  0.00  0.00    +0.179 C 
ATOM     45  C   UNL     1       3.311   4.912  22.244  0.00  0.00    +0.177 C 
ATOM     46  C   UNL     1       4.354   5.891  22.804  0.00  0.00    +0.180 C 
BRANCH  46  47
ATOM     47  O   UNL     1       5.375   6.085  21.814  0.00  0.00    -0.386 OA
ATOM     48  H   UNL     1       6.235   6.145  22.266  0.00  0.00    +0.210 HD
ENDBRANCH  46  47
BRANCH  45  49
ATOM     49  O   UNL     1       2.870   5.364  20.964  0.00  0.00    -0.386 OA
ATOM     50  H   UNL     1       3.291   6.239  20.840  0.00  0.00    +0.210 HD
ENDBRANCH  45  49
BRANCH  44  51
ATOM     51  C   UNL     1       1.303   6.120  23.284  0.00  0.00    +0.190 C 
BRANCH  51  52
ATOM     52  O   UNL     1       0.496   6.300  22.125  0.00  0.00    -0.392 OA
ATOM     53  H   UNL     1       0.493   5.455  21.642  0.00  0.00    +0.210 HD
ENDBRANCH  51  52
ENDBRANCH  44  51
BRANCH  41  54
ATOM     54  O   UNL     1       5.734   4.297  24.216  0.00  0.00    -0.337 OA
BRANCH  54  58
ATOM     55  C   UNL     1       8.930   6.164  26.325  0.00  0.00    +0.041 C 
ATOM     56  C   UNL     1       8.753   6.366  24.813  0.00  0.00    +0.149 C 
ATOM     57  O   UNL     1       7.412   6.018  24.365  0.00  0.00    -0.343 OA
ATOM     58  C   UNL     1       7.128   4.607  24.465  0.00  0.00    +0.282 C 
ATOM     59  C   UNL     1       8.092   3.866  23.507  0.00  0.00    +0.201 C 
ATOM     60  C   UNL     1       9.532   4.110  23.977  0.00  0.00    +0.179 C 
ATOM     61  C   UNL     1       9.848   5.613  24.023  0.00  0.00    +0.174 C 
BRANCH  61  62
ATOM     62  O   UNL     1       9.952   6.158  22.704  0.00  0.00    -0.387 OA
ATOM     63  H   UNL     1       9.047   6.412  22.428  0.00  0.00    +0.210 HD
ENDBRANCH  61  62
BRANCH  60  64
ATOM     64  O   UNL     1      10.456   3.360  23.184  0.00  0.00    -0.386 OA
ATOM     65  H   UNL     1      10.353   3.637  22.256  0.00  0.00    +0.210 HD
ENDBRANCH  60  64
BRANCH  59  66
ATOM     66  O   UNL     1       7.905   4.350  22.160  0.00  0.00    -0.384 OA
ATOM     67  H   UNL     1       7.731   3.568  21.599  0.00  0.00    +0.210 HD
ENDBRANCH  59  66
ENDBRANCH  54  58
ENDBRANCH  41  54
ENDBRANCH  40  42
ENDBRANCH   1  40
TORSDOF 22
ENDMDL
MODEL 5
REMARK VINA RESULT:      -6.6      2.331     10.145
REMARK  Name = 
REMARK  23 active torsions:
REMARK  status: ('A' for Active; 'I' for Inactive)
REMARK    1  A    between atoms: C_1  and  C_2
REMARK    2  A    between atoms: C_3  and  O_62
REMARK    3  A    between atoms: C_5  and  O_61
REMARK    4  A    between atoms: C_7  and  O_60
REMARK    5  A    between atoms: C_8  and  O_11
REMARK    6  A    between atoms: O_11  and  C_12
REMARK    7  A    between atoms: C_13  and  O_59
REMARK    8  A    between atoms: C_15  and  O_58
REMARK    9  A    between atoms: C_17  and  C_56
REMARK   10  A    between atoms: C_19  and  O_21
REMARK   11  A    between atoms: O_21  and  C_22
REMARK   12  A    between atoms: C_24  and  O_55
REMARK   13  A    between atoms: C_29  and  C_47
REMARK   14  A    between atoms: C_30  and  O_33
REMARK   15  A    between atoms: O_33  and  C_34
REMARK   16  A    between atoms: C_36  and  O_46
REMARK   17  A    between atoms: C_37  and  O_45
REMARK   18  A    between atoms: C_38  and  O_44
REMARK   19  A    between atoms: C_40  and  C_42
REMARK   20  A    between atoms: C_42  and  O_43
REMARK   21  A    between atoms: C_49  and  O_54
REMARK   22  A    between atoms: C_50  and  O_53
REMARK   23  A    between atoms: C_56  and  O_57
REMARK                            x       y       z     vdW  Elec       q    Type
REMARK                         _______ _______ _______ _____ _____    ______ ____
ROOT
ATOM      1  C   UNL     1      10.395   0.028  24.238  0.00  0.00    +0.131 A 
ATOM      2  C   UNL     1       9.820  -0.751  25.271  0.00  0.00    +0.093 A 
ATOM      3  C   UNL     1       8.904  -1.791  24.975  0.00  0.00    +0.147 A 
ATOM      4  O   UNL     1       8.320  -2.534  25.993  0.00  0.00    -0.451 OA
ATOM      5  C   UNL     1       7.282  -3.447  25.686  0.00  0.00    +0.181 A 
ATOM      6  C   UNL     1       6.956  -3.831  24.411  0.00  0.00    +0.214 A 
ATOM      7  C   UNL     1       7.819  -3.253  23.337  0.00  0.00    +0.238 A 
ATOM      8  O   UNL     1       7.993  -3.804  22.262  0.00  0.00    -0.283 OA
ATOM      9  C   UNL     1       8.599  -2.052  23.651  0.00  0.00    +0.109 A 
ATOM     10  C   UNL     1       9.129  -1.251  22.632  0.00  0.00    +0.135 A 
ATOM     11  C   UNL     1      10.024  -0.224  22.921  0.00  0.00    +0.092 A 
ENDROOT
BRANCH   5  12
ATOM     12  C   UNL     1       6.622  -4.053  26.896  0.00  0.00    +0.025 A 
ATOM     13  C   UNL     1       5.563  -3.393  27.553  0.00  0.00    +0.015 A 
ATOM     14  C   UNL     1       4.843  -3.992  28.599  0.00  0.00    +0.050 A 
ATOM     15  C   UNL     1       5.214  -5.247  29.044  0.00  0.00    +0.158 A 
ATOM     16  C   UNL     1       6.304  -5.895  28.472  0.00  0.00    +0.159 A 
ATOM     17  C   UNL     1       7.013  -5.311  27.411  0.00  0.00    +0.060 A 
BRANCH  16  18
ATOM     18  O   UNL     1       6.625  -7.125  28.985  0.00  0.00    -0.503 OA
ATOM     19  H   UNL     1       5.806  -7.627  29.129  0.00  0.00    +0.292 HD
ENDBRANCH  16  18
BRANCH  15  20
ATOM     20  O   UNL     1       4.494  -5.836  30.042  0.00  0.00    -0.503 OA
ATOM     21  H   UNL     1       3.659  -5.328  30.085  0.00  0.00    +0.292 HD
ENDBRANCH  15  20
ENDBRANCH   5  12
BRANCH  10  22
ATOM     22  O   UNL     1       8.726  -1.443  21.333  0.00  0.00    -0.506 OA
ATOM     23  H   UNL     1       8.109  -0.750  21.069  0.00  0.00    +0.292 HD
ENDBRANCH  10  22
BRANCH   6  24
ATOM     24  O   UNL     1       5.962  -4.776  24.121  0.00  0.00    -0.453 OA
BRANCH  24  25
ATOM     25  C   UNL     1       4.779  -4.398  23.365  0.00  0.00    +0.340 C 
ATOM     26  O   UNL     1       3.804  -3.677  24.139  0.00  0.00    -0.331 OA
ATOM     27  C   UNL     1       3.155  -4.466  25.152  0.00  0.00    +0.179 C 
ATOM     28  C   UNL     1       2.447  -5.705  24.568  0.00  0.00    +0.177 C 
ATOM     29  C   UNL     1       3.425  -6.528  23.727  0.00  0.00    +0.180 C 
ATOM     30  C   UNL     1       4.130  -5.637  22.697  0.00  0.00    +0.214 C 
BRANCH  30  31
ATOM     31  O   UNL     1       5.085  -6.392  21.937  0.00  0.00    -0.383 OA
ATOM     32  H   UNL     1       5.420  -7.100  22.512  0.00  0.00    +0.210 HD
ENDBRANCH  30  31
BRANCH  29  33
ATOM     33  O   UNL     1       2.690  -7.577  23.071  0.00  0.00    -0.386 OA
ATOM     34  H   UNL     1       3.339  -8.284  22.883  0.00  0.00    +0.210 HD
ENDBRANCH  29  33
BRANCH  28  35
ATOM     35  O   UNL     1       1.342  -5.358  23.715  0.00  0.00    -0.386 OA
ATOM     36  H   UNL     1       0.920  -4.578  24.117  0.00  0.00    +0.210 HD
ENDBRANCH  28  35
BRANCH  27  37
ATOM     37  C   UNL     1       2.222  -3.558  25.986  0.00  0.00    +0.190 C 
BRANCH  37  38
ATOM     38  O   UNL     1       1.357  -2.713  25.235  0.00  0.00    -0.392 OA
ATOM     39  H   UNL     1       1.633  -1.795  25.409  0.00  0.00    +0.210 HD
ENDBRANCH  37  38
ENDBRANCH  27  37
ENDBRANCH  24  25
ENDBRANCH   6  24
BRANCH   1  40
ATOM     40  O   UNL     1      11.249   1.103  24.330  0.00  0.00    -0.461 OA
BRANCH  40  42
ATOM     41  C   UNL     1       9.336   2.653  23.924  0.00  0.00    +0.221 C 
ATOM     42  C   UNL     1      10.877   2.326  23.700  0.00  0.00    +0.340 C 
ATOM     43  O   UNL     1      11.715   3.401  24.124  0.00  0.00    -0.331 OA
ATOM     44  C   UNL     1      11.484   4.630  23.427  0.00  0.00    +0.179 C 
ATOM     45  C   UNL     1      10.046   5.094  23.681  0.00  0.00    +0.177 C 
ATOM     46  C   UNL     1       9.062   4.012  23.211  0.00  0.00    +0.180 C 
BRANCH  46  47
ATOM     47  O   UNL     1       7.728   4.532  23.321  0.00  0.00    -0.386 OA
ATOM     48  H   UNL     1       7.396   4.340  24.215  0.00  0.00    +0.210 HD
ENDBRANCH  46  47
BRANCH  45  49
ATOM     49  O   UNL     1       9.786   6.313  22.985  0.00  0.00    -0.386 OA
ATOM     50  H   UNL     1       9.581   6.046  22.065  0.00  0.00    +0.210 HD
ENDBRANCH  45  49
BRANCH  44  51
ATOM     51  C   UNL     1      11.823   4.547  21.916  0.00  0.00    +0.190 C 
BRANCH  51  52
ATOM     52  O   UNL     1      12.874   5.440  21.562  0.00  0.00    -0.392 OA
ATOM     53  H   UNL     1      13.289   5.740  22.391  0.00  0.00    +0.210 HD
ENDBRANCH  51  52
ENDBRANCH  44  51
BRANCH  41  54
ATOM     54  O   UNL     1       8.912   2.612  25.323  0.00  0.00    -0.337 OA
BRANCH  54  58
ATOM     55  C   UNL     1       5.707  -0.159  24.887  0.00  0.00    +0.041 C 
ATOM     56  C   UNL     1       5.540   1.314  24.488  0.00  0.00    +0.149 C 
ATOM     57  O   UNL     1       6.822   1.983  24.307  0.00  0.00    -0.343 OA
ATOM     58  C   UNL     1       7.560   2.137  25.538  0.00  0.00    +0.282 C 
ATOM     59  C   UNL     1       6.736   3.061  26.467  0.00  0.00    +0.201 C 
ATOM     60  C   UNL     1       5.401   2.373  26.781  0.00  0.00    +0.179 C 
ATOM     61  C   UNL     1       4.628   2.058  25.490  0.00  0.00    +0.174 C 
BRANCH  61  62
ATOM     62  O   UNL     1       4.123   3.253  24.888  0.00  0.00    -0.387 OA
ATOM     63  H   UNL     1       3.956   3.890  25.614  0.00  0.00    +0.210 HD
ENDBRANCH  61  62
BRANCH  60  64
ATOM     64  O   UNL     1       4.644   3.142  27.720  0.00  0.00    -0.386 OA
ATOM     65  H   UNL     1       3.949   3.619  27.232  0.00  0.00    +0.210 HD
ENDBRANCH  60  64
BRANCH  59  66
ATOM     66  O   UNL     1       6.516   4.332  25.818  0.00  0.00    -0.384 OA
ATOM     67  H   UNL     1       5.614   4.622  26.060  0.00  0.00    +0.210 HD
ENDBRANCH  59  66
ENDBRANCH  54  58
ENDBRANCH  41  54
ENDBRANCH  40  42
ENDBRANCH   1  40
TORSDOF 22
ENDMDL
MODEL 6
REMARK VINA RESULT:      -6.5      1.681     10.313
REMARK  Name = 
REMARK  23 active torsions:
REMARK  status: ('A' for Active; 'I' for Inactive)
REMARK    1  A    between atoms: C_1  and  C_2
REMARK    2  A    between atoms: C_3  and  O_62
REMARK    3  A    between atoms: C_5  and  O_61
REMARK    4  A    between atoms: C_7  and  O_60
REMARK    5  A    between atoms: C_8  and  O_11
REMARK    6  A    between atoms: O_11  and  C_12
REMARK    7  A    between atoms: C_13  and  O_59
REMARK    8  A    between atoms: C_15  and  O_58
REMARK    9  A    between atoms: C_17  and  C_56
REMARK   10  A    between atoms: C_19  and  O_21
REMARK   11  A    between atoms: O_21  and  C_22
REMARK   12  A    between atoms: C_24  and  O_55
REMARK   13  A    between atoms: C_29  and  C_47
REMARK   14  A    between atoms: C_30  and  O_33
REMARK   15  A    between atoms: O_33  and  C_34
REMARK   16  A    between atoms: C_36  and  O_46
REMARK   17  A    between atoms: C_37  and  O_45
REMARK   18  A    between atoms: C_38  and  O_44
REMARK   19  A    between atoms: C_40  and  C_42
REMARK   20  A    between atoms: C_42  and  O_43
REMARK   21  A    between atoms: C_49  and  O_54
REMARK   22  A    between atoms: C_50  and  O_53
REMARK   23  A    between atoms: C_56  and  O_57
REMARK                            x       y       z     vdW  Elec       q    Type
REMARK                         _______ _______ _______ _____ _____    ______ ____
ROOT
ATOM      1  C   UNL     1       6.386   2.267  26.511  0.00  0.00    +0.131 A 
ATOM      2  C   UNL     1       6.441   1.180  25.606  0.00  0.00    +0.093 A 
ATOM      3  C   UNL     1       5.609   0.046  25.777  0.00  0.00    +0.147 A 
ATOM      4  O   UNL     1       5.686  -1.031  24.904  0.00  0.00    -0.451 OA
ATOM      5  C   UNL     1       4.974  -2.220  25.194  0.00  0.00    +0.181 A 
ATOM      6  C   UNL     1       4.013  -2.316  26.166  0.00  0.00    +0.214 A 
ATOM      7  C   UNL     1       3.718  -1.042  26.890  0.00  0.00    +0.238 A 
ATOM      8  O   UNL     1       2.640  -0.816  27.416  0.00  0.00    -0.283 OA
ATOM      9  C   UNL     1       4.716   0.030  26.835  0.00  0.00    +0.109 A 
ATOM     10  C   UNL     1       4.695   1.082  27.759  0.00  0.00    +0.135 A 
ATOM     11  C   UNL     1       5.517   2.194  27.595  0.00  0.00    +0.092 A 
ENDROOT
BRANCH   5  12
ATOM     12  C   UNL     1       5.284  -3.361  24.262  0.00  0.00    +0.025 A 
ATOM     13  C   UNL     1       6.613  -3.657  23.893  0.00  0.00    +0.015 A 
ATOM     14  C   UNL     1       6.943  -4.792  23.136  0.00  0.00    +0.050 A 
ATOM     15  C   UNL     1       5.934  -5.622  22.685  0.00  0.00    +0.158 A 
ATOM     16  C   UNL     1       4.606  -5.319  22.963  0.00  0.00    +0.159 A 
ATOM     17  C   UNL     1       4.271  -4.198  23.739  0.00  0.00    +0.060 A 
BRANCH  16  18
ATOM     18  O   UNL     1       3.662  -6.176  22.460  0.00  0.00    -0.503 OA
ATOM     19  H   UNL     1       2.856  -6.104  22.997  0.00  0.00    +0.292 HD
ENDBRANCH  16  18
BRANCH  15  20
ATOM     20  O   UNL     1       6.263  -6.738  21.973  0.00  0.00    -0.503 OA
ATOM     21  H   UNL     1       5.410  -7.104  21.666  0.00  0.00    +0.292 HD
ENDBRANCH  15  20
ENDBRANCH   5  12
BRANCH  10  22
ATOM     22  O   UNL     1       3.891   1.000  28.869  0.00  0.00    -0.506 OA
ATOM     23  H   UNL     1       3.637   0.084  29.030  0.00  0.00    +0.292 HD
ENDBRANCH  10  22
BRANCH   6  24
ATOM     24  O   UNL     1       3.275  -3.482  26.409  0.00  0.00    -0.453 OA
BRANCH  24  25
ATOM     25  C   UNL     1       3.510  -4.272  27.607  0.00  0.00    +0.340 C 
ATOM     26  O   UNL     1       4.903  -4.507  27.881  0.00  0.00    -0.331 OA
ATOM     27  C   UNL     1       5.551  -5.375  26.934  0.00  0.00    +0.179 C 
ATOM     28  C   UNL     1       4.867  -6.753  26.837  0.00  0.00    +0.177 C 
ATOM     29  C   UNL     1       3.374  -6.586  26.547  0.00  0.00    +0.180 C 
ATOM     30  C   UNL     1       2.737  -5.614  27.547  0.00  0.00    +0.214 C 
BRANCH  30  31
ATOM     31  O   UNL     1       1.347  -5.413  27.251  0.00  0.00    -0.383 OA
ATOM     32  H   UNL     1       1.296  -4.800  26.499  0.00  0.00    +0.210 HD
ENDBRANCH  30  31
BRANCH  29  33
ATOM     33  O   UNL     1       2.747  -7.878  26.627  0.00  0.00    -0.386 OA
ATOM     34  H   UNL     1       1.825  -7.749  26.328  0.00  0.00    +0.210 HD
ENDBRANCH  29  33
BRANCH  28  35
ATOM     35  O   UNL     1       4.979  -7.512  28.055  0.00  0.00    -0.386 OA
ATOM     36  H   UNL     1       5.776  -8.063  27.961  0.00  0.00    +0.210 HD
ENDBRANCH  28  35
BRANCH  27  37
ATOM     37  C   UNL     1       7.059  -5.457  27.266  0.00  0.00    +0.190 C 
BRANCH  37  38
ATOM     38  O   UNL     1       7.410  -6.367  28.302  0.00  0.00    -0.392 OA
ATOM     39  H   UNL     1       8.186  -5.995  28.759  0.00  0.00    +0.210 HD
ENDBRANCH  37  38
ENDBRANCH  27  37
ENDBRANCH  24  25
ENDBRANCH   6  24
BRANCH   1  40
ATOM     40  O   UNL     1       7.145   3.414  26.543  0.00  0.00    -0.461 OA
BRANCH  40  42
ATOM     41  C   UNL     1       6.552   4.419  24.337  0.00  0.00    +0.221 C 
ATOM     42  C   UNL     1       7.692   3.905  25.322  0.00  0.00    +0.340 C 
ATOM     43  O   UNL     1       8.677   4.909  25.564  0.00  0.00    -0.331 OA
ATOM     44  C   UNL     1       9.365   5.347  24.387  0.00  0.00    +0.179 C 
ATOM     45  C   UNL     1       8.358   5.973  23.417  0.00  0.00    +0.177 C 
ATOM     46  C   UNL     1       7.274   4.945  23.059  0.00  0.00    +0.180 C 
BRANCH  46  47
ATOM     47  O   UNL     1       6.435   5.504  22.038  0.00  0.00    -0.386 OA
ATOM     48  H   UNL     1       6.503   4.946  21.244  0.00  0.00    +0.210 HD
ENDBRANCH  46  47
BRANCH  45  49
ATOM     49  O   UNL     1       9.017   6.407  22.226  0.00  0.00    -0.386 OA
ATOM     50  H   UNL     1       9.879   6.762  22.524  0.00  0.00    +0.210 HD
ENDBRANCH  45  49
BRANCH  44  51
ATOM     51  C   UNL     1      10.212   4.230  23.725  0.00  0.00    +0.190 C 
BRANCH  51  52
ATOM     52  O   UNL     1      11.286   4.767  22.960  0.00  0.00    -0.392 OA
ATOM     53  H   UNL     1      10.964   5.588  22.547  0.00  0.00    +0.210 HD
ENDBRANCH  51  52
ENDBRANCH  44  51
BRANCH  41  54
ATOM     54  O   UNL     1       5.626   5.377  24.940  0.00  0.00    -0.337 OA
BRANCH  54  58
ATOM     55  C   UNL     1       2.260   2.942  25.878  0.00  0.00    +0.041 C 
ATOM     56  C   UNL     1       2.659   3.214  24.421  0.00  0.00    +0.149 C 
ATOM     57  O   UNL     1       4.032   3.687  24.306  0.00  0.00    -0.343 OA
ATOM     58  C   UNL     1       4.228   5.000  24.871  0.00  0.00    +0.282 C 
ATOM     59  C   UNL     1       3.375   5.997  24.049  0.00  0.00    +0.201 C 
ATOM     60  C   UNL     1       1.897   5.615  24.202  0.00  0.00    +0.179 C 
ATOM     61  C   UNL     1       1.652   4.170  23.742  0.00  0.00    +0.174 C 
BRANCH  61  62
ATOM     62  O   UNL     1       1.763   4.056  22.319  0.00  0.00    -0.387 OA
ATOM     63  H   UNL     1       1.233   4.785  21.933  0.00  0.00    +0.210 HD
ENDBRANCH  61  62
BRANCH  60  64
ATOM     64  O   UNL     1       1.058   6.569  23.543  0.00  0.00    -0.386 OA
ATOM     65  H   UNL     1       1.595   7.037  22.878  0.00  0.00    +0.210 HD
ENDBRANCH  60  64
BRANCH  59  66
ATOM     66  O   UNL     1       3.775   5.951  22.663  0.00  0.00    -0.384 OA
ATOM     67  H   UNL     1       3.236   6.615  22.190  0.00  0.00    +0.210 HD
ENDBRANCH  59  66
ENDBRANCH  54  58
ENDBRANCH  41  54
ENDBRANCH  40  42
ENDBRANCH   1  40
TORSDOF 22
ENDMDL
MODEL 7
REMARK VINA RESULT:      -6.4      2.240      9.424
REMARK  Name = 
REMARK  23 active torsions:
REMARK  status: ('A' for Active; 'I' for Inactive)
REMARK    1  A    between atoms: C_1  and  C_2
REMARK    2  A    between atoms: C_3  and  O_62
REMARK    3  A    between atoms: C_5  and  O_61
REMARK    4  A    between atoms: C_7  and  O_60
REMARK    5  A    between atoms: C_8  and  O_11
REMARK    6  A    between atoms: O_11  and  C_12
REMARK    7  A    between atoms: C_13  and  O_59
REMARK    8  A    between atoms: C_15  and  O_58
REMARK    9  A    between atoms: C_17  and  C_56
REMARK   10  A    between atoms: C_19  and  O_21
REMARK   11  A    between atoms: O_21  and  C_22
REMARK   12  A    between atoms: C_24  and  O_55
REMARK   13  A    between atoms: C_29  and  C_47
REMARK   14  A    between atoms: C_30  and  O_33
REMARK   15  A    between atoms: O_33  and  C_34
REMARK   16  A    between atoms: C_36  and  O_46
REMARK   17  A    between atoms: C_37  and  O_45
REMARK   18  A    between atoms: C_38  and  O_44
REMARK   19  A    between atoms: C_40  and  C_42
REMARK   20  A    between atoms: C_42  and  O_43
REMARK   21  A    between atoms: C_49  and  O_54
REMARK   22  A    between atoms: C_50  and  O_53
REMARK   23  A    between atoms: C_56  and  O_57
REMARK                            x       y       z     vdW  Elec       q    Type
REMARK                         _______ _______ _______ _____ _____    ______ ____
ROOT
ATOM      1  C   UNL     1       6.195   2.118  26.749  0.00  0.00    +0.131 A 
ATOM      2  C   UNL     1       5.482   1.141  26.013  0.00  0.00    +0.093 A 
ATOM      3  C   UNL     1       4.916   0.013  26.657  0.00  0.00    +0.147 A 
ATOM      4  O   UNL     1       4.242  -0.958  25.927  0.00  0.00    -0.451 OA
ATOM      5  C   UNL     1       3.837  -2.157  26.563  0.00  0.00    +0.181 A 
ATOM      6  C   UNL     1       3.854  -2.344  27.921  0.00  0.00    +0.214 A 
ATOM      7  C   UNL     1       4.290  -1.156  28.716  0.00  0.00    +0.238 A 
ATOM      8  O   UNL     1       3.938  -0.968  29.870  0.00  0.00    -0.283 OA
ATOM      9  C   UNL     1       5.048  -0.106  28.029  0.00  0.00    +0.109 A 
ATOM     10  C   UNL     1       5.794   0.833  28.752  0.00  0.00    +0.135 A 
ATOM     11  C   UNL     1       6.357   1.939  28.119  0.00  0.00    +0.092 A 
ENDROOT
BRANCH   5  12
ATOM     12  C   UNL     1       3.277  -3.190  25.622  0.00  0.00    +0.025 A 
ATOM     13  C   UNL     1       1.936  -3.616  25.725  0.00  0.00    +0.015 A 
ATOM     14  C   UNL     1       1.351  -4.475  24.782  0.00  0.00    +0.050 A 
ATOM     15  C   UNL     1       2.121  -4.970  23.746  0.00  0.00    +0.158 A 
ATOM     16  C   UNL     1       3.468  -4.634  23.658  0.00  0.00    +0.159 A 
ATOM     17  C   UNL     1       4.053  -3.757  24.584  0.00  0.00    +0.060 A 
BRANCH  16  18
ATOM     18  O   UNL     1       4.171  -5.185  22.618  0.00  0.00    -0.503 OA
ATOM     19  H   UNL     1       3.559  -5.360  21.885  0.00  0.00    +0.292 HD
ENDBRANCH  16  18
BRANCH  15  20
ATOM     20  O   UNL     1       1.540  -5.783  22.818  0.00  0.00    -0.503 OA
ATOM     21  H   UNL     1       0.766  -5.282  22.492  0.00  0.00    +0.292 HD
ENDBRANCH  15  20
ENDBRANCH   5  12
BRANCH  10  22
ATOM     22  O   UNL     1       6.020   0.641  30.093  0.00  0.00    -0.506 OA
ATOM     23  H   UNL     1       5.414   1.180  30.613  0.00  0.00    +0.292 HD
ENDBRANCH  10  22
BRANCH   6  24
ATOM     24  O   UNL     1       3.401  -3.514  28.544  0.00  0.00    -0.453 OA
BRANCH  24  25
ATOM     25  C   UNL     1       4.320  -4.360  29.290  0.00  0.00    +0.340 C 
ATOM     26  O   UNL     1       5.558  -4.615  28.604  0.00  0.00    -0.331 OA
ATOM     27  C   UNL     1       5.424  -5.441  27.433  0.00  0.00    +0.179 C 
ATOM     28  C   UNL     1       4.789  -6.810  27.751  0.00  0.00    +0.177 C 
ATOM     29  C   UNL     1       3.461  -6.621  28.487  0.00  0.00    +0.180 C 
ATOM     30  C   UNL     1       3.641  -5.693  29.694  0.00  0.00    +0.214 C 
BRANCH  30  31
ATOM     31  O   UNL     1       2.389  -5.472  30.360  0.00  0.00    -0.383 OA
ATOM     32  H   UNL     1       1.957  -6.336  30.460  0.00  0.00    +0.210 HD
ENDBRANCH  30  31
BRANCH  29  33
ATOM     33  O   UNL     1       2.986  -7.913  28.907  0.00  0.00    -0.386 OA
ATOM     34  H   UNL     1       3.695  -8.294  29.462  0.00  0.00    +0.210 HD
ENDBRANCH  29  33
BRANCH  28  35
ATOM     35  O   UNL     1       5.626  -7.625  28.592  0.00  0.00    -0.386 OA
ATOM     36  H   UNL     1       5.200  -8.499  28.638  0.00  0.00    +0.210 HD
ENDBRANCH  28  35
BRANCH  27  37
ATOM     37  C   UNL     1       6.793  -5.547  26.723  0.00  0.00    +0.190 C 
BRANCH  37  38
ATOM     38  O   UNL     1       7.884  -5.936  27.549  0.00  0.00    -0.392 OA
ATOM     39  H   UNL     1       8.440  -5.147  27.680  0.00  0.00    +0.210 HD
ENDBRANCH  37  38
ENDBRANCH  27  37
ENDBRANCH  24  25
ENDBRANCH   6  24
BRANCH   1  40
ATOM     40  O   UNL     1       6.856   3.237  26.299  0.00  0.00    -0.461 OA
BRANCH  40  42
ATOM     41  C   UNL     1       8.654   3.008  24.584  0.00  0.00    +0.221 C 
ATOM     42  C   UNL     1       7.134   3.353  24.906  0.00  0.00    +0.340 C 
ATOM     43  O   UNL     1       6.234   2.559  24.133  0.00  0.00    -0.331 OA
ATOM     44  C   UNL     1       6.369   2.736  22.719  0.00  0.00    +0.179 C 
ATOM     45  C   UNL     1       7.777   2.313  22.288  0.00  0.00    +0.177 C 
ATOM     46  C   UNL     1       8.823   3.150  23.041  0.00  0.00    +0.180 C 
BRANCH  46  47
ATOM     47  O   UNL     1      10.121   2.841  22.511  0.00  0.00    -0.386 OA
ATOM     48  H   UNL     1      10.006   2.274  21.728  0.00  0.00    +0.210 HD
ENDBRANCH  46  47
BRANCH  45  49
ATOM     49  O   UNL     1       7.943   2.492  20.881  0.00  0.00    -0.386 OA
ATOM     50  H   UNL     1       7.382   1.807  20.466  0.00  0.00    +0.210 HD
ENDBRANCH  45  49
BRANCH  44  51
ATOM     51  C   UNL     1       6.009   4.168  22.246  0.00  0.00    +0.190 C 
BRANCH  51  52
ATOM     52  O   UNL     1       4.600   4.366  22.191  0.00  0.00    -0.392 OA
ATOM     53  H   UNL     1       4.219   3.950  22.986  0.00  0.00    +0.210 HD
ENDBRANCH  51  52
ENDBRANCH  44  51
BRANCH  41  54
ATOM     54  O   UNL     1       9.105   1.726  25.123  0.00  0.00    -0.337 OA
BRANCH  54  58
ATOM     55  C   UNL     1       6.478  -1.070  23.272  0.00  0.00    +0.041 C 
ATOM     56  C   UNL     1       7.626  -1.540  24.176  0.00  0.00    +0.149 C 
ATOM     57  O   UNL     1       8.126  -0.472  25.031  0.00  0.00    -0.343 OA
ATOM     58  C   UNL     1       8.795   0.575  24.298  0.00  0.00    +0.282 C 
ATOM     59  C   UNL     1      10.047  -0.045  23.632  0.00  0.00    +0.201 C 
ATOM     60  C   UNL     1       9.590  -1.121  22.639  0.00  0.00    +0.179 C 
ATOM     61  C   UNL     1       8.751  -2.198  23.344  0.00  0.00    +0.174 C 
BRANCH  61  62
ATOM     62  O   UNL     1       9.566  -3.013  24.192  0.00  0.00    -0.387 OA
ATOM     63  H   UNL     1      10.194  -2.413  24.646  0.00  0.00    +0.210 HD
ENDBRANCH  61  62
BRANCH  60  64
ATOM     64  O   UNL     1      10.707  -1.653  21.921  0.00  0.00    -0.386 OA
ATOM     65  H   UNL     1      11.142  -0.920  21.450  0.00  0.00    +0.210 HD
ENDBRANCH  60  64
BRANCH  59  66
ATOM     66  O   UNL     1      10.905  -0.613  24.644  0.00  0.00    -0.384 OA
ATOM     67  H   UNL     1      11.824  -0.520  24.323  0.00  0.00    +0.210 HD
ENDBRANCH  59  66
ENDBRANCH  54  58
ENDBRANCH  41  54
ENDBRANCH  40  42
ENDBRANCH   1  40
TORSDOF 22
ENDMDL
MODEL 8
REMARK VINA RESULT:      -6.3      1.648      9.943
REMARK  Name = 
REMARK  23 active torsions:
REMARK  status: ('A' for Active; 'I' for Inactive)
REMARK    1  A    between atoms: C_1  and  C_2
REMARK    2  A    between atoms: C_3  and  O_62
REMARK    3  A    between atoms: C_5  and  O_61
REMARK    4  A    between atoms: C_7  and  O_60
REMARK    5  A    between atoms: C_8  and  O_11
REMARK    6  A    between atoms: O_11  and  C_12
REMARK    7  A    between atoms: C_13  and  O_59
REMARK    8  A    between atoms: C_15  and  O_58
REMARK    9  A    between atoms: C_17  and  C_56
REMARK   10  A    between atoms: C_19  and  O_21
REMARK   11  A    between atoms: O_21  and  C_22
REMARK   12  A    between atoms: C_24  and  O_55
REMARK   13  A    between atoms: C_29  and  C_47
REMARK   14  A    between atoms: C_30  and  O_33
REMARK   15  A    between atoms: O_33  and  C_34
REMARK   16  A    between atoms: C_36  and  O_46
REMARK   17  A    between atoms: C_37  and  O_45
REMARK   18  A    between atoms: C_38  and  O_44
REMARK   19  A    between atoms: C_40  and  C_42
REMARK   20  A    between atoms: C_42  and  O_43
REMARK   21  A    between atoms: C_49  and  O_54
REMARK   22  A    between atoms: C_50  and  O_53
REMARK   23  A    between atoms: C_56  and  O_57
REMARK                            x       y       z     vdW  Elec       q    Type
REMARK                         _______ _______ _______ _____ _____    ______ ____
ROOT
ATOM      1  C   UNL     1       5.185   3.010  25.914  0.00  0.00    +0.131 A 
ATOM      2  C   UNL     1       5.483   1.889  25.102  0.00  0.00    +0.093 A 
ATOM      3  C   UNL     1       5.083   0.585  25.485  0.00  0.00    +0.147 A 
ATOM      4  O   UNL     1       5.402  -0.516  24.701  0.00  0.00    -0.451 OA
ATOM      5  C   UNL     1       5.145  -1.821  25.187  0.00  0.00    +0.181 A 
ATOM      6  C   UNL     1       4.382  -2.086  26.294  0.00  0.00    +0.214 A 
ATOM      7  C   UNL     1       3.779  -0.885  26.948  0.00  0.00    +0.238 A 
ATOM      8  O   UNL     1       2.752  -0.937  27.605  0.00  0.00    -0.283 OA
ATOM      9  C   UNL     1       4.368   0.426  26.660  0.00  0.00    +0.109 A 
ATOM     10  C   UNL     1       4.116   1.527  27.488  0.00  0.00    +0.135 A 
ATOM     11  C   UNL     1       4.514   2.808  27.116  0.00  0.00    +0.092 A 
ENDROOT
BRANCH   5  12
ATOM     12  C   UNL     1       5.698  -2.918  24.316  0.00  0.00    +0.025 A 
ATOM     13  C   UNL     1       7.089  -3.093  24.163  0.00  0.00    +0.015 A 
ATOM     14  C   UNL     1       7.632  -4.185  23.467  0.00  0.00    +0.050 A 
ATOM     15  C   UNL     1       6.784  -5.092  22.861  0.00  0.00    +0.158 A 
ATOM     16  C   UNL     1       5.407  -4.908  22.925  0.00  0.00    +0.159 A 
ATOM     17  C   UNL     1       4.857  -3.831  23.638  0.00  0.00    +0.060 A 
BRANCH  16  18
ATOM     18  O   UNL     1       4.632  -5.836  22.278  0.00  0.00    -0.503 OA
ATOM     19  H   UNL     1       5.187  -6.599  22.046  0.00  0.00    +0.292 HD
ENDBRANCH  16  18
BRANCH  15  20
ATOM     20  O   UNL     1       7.317  -6.165  22.210  0.00  0.00    -0.503 OA
ATOM     21  H   UNL     1       6.955  -6.947  22.671  0.00  0.00    +0.292 HD
ENDBRANCH  15  20
ENDBRANCH   5  12
BRANCH  10  22
ATOM     22  O   UNL     1       3.511   1.340  28.707  0.00  0.00    -0.506 OA
ATOM     23  H   UNL     1       3.956   1.862  29.383  0.00  0.00    +0.292 HD
ENDBRANCH  10  22
BRANCH   6  24
ATOM     24  O   UNL     1       4.089  -3.383  26.737  0.00  0.00    -0.453 OA
BRANCH  24  25
ATOM     25  C   UNL     1       4.663  -3.891  27.972  0.00  0.00    +0.340 C 
ATOM     26  O   UNL     1       6.047  -4.265  27.858  0.00  0.00    -0.331 OA
ATOM     27  C   UNL     1       6.279  -5.422  27.034  0.00  0.00    +0.179 C 
ATOM     28  C   UNL     1       5.514  -6.663  27.535  0.00  0.00    +0.177 C 
ATOM     29  C   UNL     1       4.025  -6.343  27.684  0.00  0.00    +0.180 C 
ATOM     30  C   UNL     1       3.828  -5.075  28.525  0.00  0.00    +0.214 C 
BRANCH  30  31
ATOM     31  O   UNL     1       2.436  -4.741  28.627  0.00  0.00    -0.383 OA
ATOM     32  H   UNL     1       2.284  -3.955  28.076  0.00  0.00    +0.210 HD
ENDBRANCH  30  31
BRANCH  29  33
ATOM     33  O   UNL     1       3.378  -7.468  28.305  0.00  0.00    -0.386 OA
ATOM     34  H   UNL     1       2.951  -7.121  29.115  0.00  0.00    +0.210 HD
ENDBRANCH  29  33
BRANCH  28  35
ATOM     35  O   UNL     1       5.979  -7.117  28.818  0.00  0.00    -0.386 OA
ATOM     36  H   UNL     1       5.382  -7.838  29.086  0.00  0.00    +0.210 HD
ENDBRANCH  28  35
BRANCH  27  37
ATOM     37  C   UNL     1       7.802  -5.652  26.894  0.00  0.00    +0.190 C 
BRANCH  37  38
ATOM     38  O   UNL     1       8.608  -4.482  26.971  0.00  0.00    -0.392 OA
ATOM     39  H   UNL     1       9.236  -4.614  27.705  0.00  0.00    +0.210 HD
ENDBRANCH  37  38
ENDBRANCH  27  37
ENDBRANCH  24  25
ENDBRANCH   6  24
BRANCH   1  40
ATOM     40  O   UNL     1       5.535   4.329  25.741  0.00  0.00    -0.461 OA
BRANCH  40  42
ATOM     41  C   UNL     1       5.866   5.635  23.641  0.00  0.00    +0.221 C 
ATOM     42  C   UNL     1       4.857   5.090  24.745  0.00  0.00    +0.340 C 
ATOM     43  O   UNL     1       3.787   4.344  24.164  0.00  0.00    -0.331 OA
ATOM     44  C   UNL     1       2.979   5.097  23.254  0.00  0.00    +0.179 C 
ATOM     45  C   UNL     1       3.844   5.570  22.081  0.00  0.00    +0.177 C 
ATOM     46  C   UNL     1       5.007   6.426  22.608  0.00  0.00    +0.180 C 
BRANCH  46  47
ATOM     47  O   UNL     1       5.710   6.978  21.484  0.00  0.00    -0.386 OA
ATOM     48  H   UNL     1       6.056   6.244  20.946  0.00  0.00    +0.210 HD
ENDBRANCH  46  47
BRANCH  45  49
ATOM     49  O   UNL     1       3.064   6.337  21.163  0.00  0.00    -0.386 OA
ATOM     50  H   UNL     1       2.303   5.766  20.932  0.00  0.00    +0.210 HD
ENDBRANCH  45  49
BRANCH  44  51
ATOM     51  C   UNL     1       2.215   6.261  23.936  0.00  0.00    +0.190 C 
BRANCH  51  52
ATOM     52  O   UNL     1       1.059   6.638  23.195  0.00  0.00    -0.392 OA
ATOM     53  H   UNL     1       1.321   6.691  22.258  0.00  0.00    +0.210 HD
ENDBRANCH  51  52
ENDBRANCH  44  51
BRANCH  41  54
ATOM     54  O   UNL     1       6.721   4.607  23.050  0.00  0.00    -0.337 OA
BRANCH  54  58
ATOM     55  C   UNL     1      10.058   6.112  25.227  0.00  0.00    +0.041 C 
ATOM     56  C   UNL     1      10.212   5.621  23.780  0.00  0.00    +0.149 C 
ATOM     57  O   UNL     1       8.934   5.553  23.083  0.00  0.00    -0.343 OA
ATOM     58  C   UNL     1       8.058   4.532  23.604  0.00  0.00    +0.282 C 
ATOM     59  C   UNL     1       8.737   3.163  23.361  0.00  0.00    +0.201 C 
ATOM     60  C   UNL     1      10.054   3.124  24.148  0.00  0.00    +0.179 C 
ATOM     61  C   UNL     1      10.977   4.279  23.730  0.00  0.00    +0.174 C 
BRANCH  61  62
ATOM     62  O   UNL     1      11.501   4.070  22.415  0.00  0.00    -0.387 OA
ATOM     63  H   UNL     1      10.834   4.415  21.785  0.00  0.00    +0.210 HD
ENDBRANCH  61  62
BRANCH  60  64
ATOM     64  O   UNL     1      10.670   1.838  24.038  0.00  0.00    -0.386 OA
ATOM     65  H   UNL     1      11.524   1.870  24.504  0.00  0.00    +0.210 HD
ENDBRANCH  60  64
BRANCH  59  66
ATOM     66  O   UNL     1       8.978   2.984  21.949  0.00  0.00    -0.384 OA
ATOM     67  H   UNL     1       9.941   3.089  21.811  0.00  0.00    +0.210 HD
ENDBRANCH  59  66
ENDBRANCH  54  58
ENDBRANCH  41  54
ENDBRANCH  40  42
ENDBRANCH   1  40
TORSDOF 22
ENDMDL
MODEL 9
REMARK VINA RESULT:      -6.2      1.563      2.232
REMARK  Name = 
REMARK  23 active torsions:
REMARK  status: ('A' for Active; 'I' for Inactive)
REMARK    1  A    between atoms: C_1  and  C_2
REMARK    2  A    between atoms: C_3  and  O_62
REMARK    3  A    between atoms: C_5  and  O_61
REMARK    4  A    between atoms: C_7  and  O_60
REMARK    5  A    between atoms: C_8  and  O_11
REMARK    6  A    between atoms: O_11  and  C_12
REMARK    7  A    between atoms: C_13  and  O_59
REMARK    8  A    between atoms: C_15  and  O_58
REMARK    9  A    between atoms: C_17  and  C_56
REMARK   10  A    between atoms: C_19  and  O_21
REMARK   11  A    between atoms: O_21  and  C_22
REMARK   12  A    between atoms: C_24  and  O_55
REMARK   13  A    between atoms: C_29  and  C_47
REMARK   14  A    between atoms: C_30  and  O_33
REMARK   15  A    between atoms: O_33  and  C_34
REMARK   16  A    between atoms: C_36  and  O_46
REMARK   17  A    between atoms: C_37  and  O_45
REMARK   18  A    between atoms: C_38  and  O_44
REMARK   19  A    between atoms: C_40  and  C_42
REMARK   20  A    between atoms: C_42  and  O_43
REMARK   21  A    between atoms: C_49  and  O_54
REMARK   22  A    between atoms: C_50  and  O_53
REMARK   23  A    between atoms: C_56  and  O_57
REMARK                            x       y       z     vdW  Elec       q    Type
REMARK                         _______ _______ _______ _____ _____    ______ ____
ROOT
ATOM      1  C   UNL     1       5.537  -3.358  27.455  0.00  0.00    +0.131 A 
ATOM      2  C   UNL     1       6.445  -2.687  26.601  0.00  0.00    +0.093 A 
ATOM      3  C   UNL     1       6.497  -1.271  26.560  0.00  0.00    +0.147 A 
ATOM      4  O   UNL     1       7.369  -0.616  25.700  0.00  0.00    -0.451 OA
ATOM      5  C   UNL     1       7.282   0.789  25.550  0.00  0.00    +0.181 A 
ATOM      6  C   UNL     1       6.544   1.600  26.373  0.00  0.00    +0.214 A 
ATOM      7  C   UNL     1       5.858   0.898  27.500  0.00  0.00    +0.238 A 
ATOM      8  O   UNL     1       5.571   1.455  28.548  0.00  0.00    -0.283 OA
ATOM      9  C   UNL     1       5.660  -0.550  27.393  0.00  0.00    +0.109 A 
ATOM     10  C   UNL     1       4.727  -1.212  28.202  0.00  0.00    +0.135 A 
ATOM     11  C   UNL     1       4.670  -2.602  28.238  0.00  0.00    +0.092 A 
ENDROOT
BRANCH   5  12
ATOM     12  C   UNL     1       8.163   1.344  24.462  0.00  0.00    +0.025 A 
ATOM     13  C   UNL     1       9.262   2.173  24.770  0.00  0.00    +0.015 A 
ATOM     14  C   UNL     1      10.176   2.596  23.791  0.00  0.00    +0.050 A 
ATOM     15  C   UNL     1       9.968   2.239  22.472  0.00  0.00    +0.158 A 
ATOM     16  C   UNL     1       8.852   1.488  22.120  0.00  0.00    +0.159 A 
ATOM     17  C   UNL     1       7.947   1.043  23.097  0.00  0.00    +0.060 A 
BRANCH  16  18
ATOM     18  O   UNL     1       8.702   1.196  20.790  0.00  0.00    -0.503 OA
ATOM     19  H   UNL     1       7.772   0.973  20.621  0.00  0.00    +0.292 HD
ENDBRANCH  16  18
BRANCH  15  20
ATOM     20  O   UNL     1      10.874   2.629  21.530  0.00  0.00    -0.503 OA
ATOM     21  H   UNL     1      11.748   2.461  21.934  0.00  0.00    +0.292 HD
ENDBRANCH  15  20
ENDBRANCH   5  12
BRANCH  10  22
ATOM     22  O   UNL     1       3.821  -0.484  28.933  0.00  0.00    -0.506 OA
ATOM     23  H   UNL     1       2.997  -0.388  28.443  0.00  0.00    +0.292 HD
ENDBRANCH  10  22
BRANCH   6  24
ATOM     24  O   UNL     1       6.507   2.995  26.250  0.00  0.00    -0.453 OA
BRANCH  24  25
ATOM     25  C   UNL     1       5.266   3.676  25.917  0.00  0.00    +0.340 C 
ATOM     26  O   UNL     1       4.679   3.238  24.679  0.00  0.00    -0.331 OA
ATOM     27  C   UNL     1       5.433   3.602  23.508  0.00  0.00    +0.179 C 
ATOM     28  C   UNL     1       5.645   5.125  23.397  0.00  0.00    +0.177 C 
ATOM     29  C   UNL     1       6.269   5.669  24.684  0.00  0.00    +0.180 C 
ATOM     30  C   UNL     1       5.464   5.213  25.907  0.00  0.00    +0.214 C 
BRANCH  30  31
ATOM     31  O   UNL     1       6.071   5.679  27.121  0.00  0.00    -0.383 OA
ATOM     32  H   UNL     1       6.947   5.262  27.186  0.00  0.00    +0.210 HD
ENDBRANCH  30  31
BRANCH  29  33
ATOM     33  O   UNL     1       6.298   7.106  24.603  0.00  0.00    -0.386 OA
ATOM     34  H   UNL     1       5.636   7.351  23.926  0.00  0.00    +0.210 HD
ENDBRANCH  29  33
BRANCH  28  35
ATOM     35  O   UNL     1       4.414   5.840  23.188  0.00  0.00    -0.386 OA
ATOM     36  H   UNL     1       3.948   5.379  22.468  0.00  0.00    +0.210 HD
ENDBRANCH  28  35
BRANCH  27  37
ATOM     37  C   UNL     1       4.767   2.980  22.259  0.00  0.00    +0.190 C 
BRANCH  37  38
ATOM     38  O   UNL     1       3.344   2.976  22.260  0.00  0.00    -0.392 OA
ATOM     39  H   UNL     1       3.055   3.897  22.394  0.00  0.00    +0.210 HD
ENDBRANCH  37  38
ENDBRANCH  27  37
ENDBRANCH  24  25
ENDBRANCH   6  24
BRANCH   1  40
ATOM     40  O   UNL     1       5.303  -4.706  27.591  0.00  0.00    -0.461 OA
BRANCH  40  42
ATOM     41  C   UNL     1       3.902  -5.512  25.691  0.00  0.00    +0.221 C 
ATOM     42  C   UNL     1       4.016  -5.214  27.250  0.00  0.00    +0.340 C 
ATOM     43  O   UNL     1       3.688  -6.360  28.035  0.00  0.00    -0.331 OA
ATOM     44  C   UNL     1       2.353  -6.837  27.839  0.00  0.00    +0.179 C 
ATOM     45  C   UNL     1       2.178  -7.266  26.379  0.00  0.00    +0.177 C 
ATOM     46  C   UNL     1       2.468  -6.076  25.451  0.00  0.00    +0.180 C 
BRANCH  46  47
ATOM     47  O   UNL     1       2.151  -6.461  24.105  0.00  0.00    -0.386 OA
ATOM     48  H   UNL     1       1.864  -5.669  23.618  0.00  0.00    +0.210 HD
ENDBRANCH  46  47
BRANCH  45  49
ATOM     49  O   UNL     1       0.848  -7.735  26.154  0.00  0.00    -0.386 OA
ATOM     50  H   UNL     1       0.914  -8.711  26.160  0.00  0.00    +0.210 HD
ENDBRANCH  45  49
BRANCH  44  51
ATOM     51  C   UNL     1       1.270  -5.826  28.295  0.00  0.00    +0.190 C 
BRANCH  51  52
ATOM     52  O   UNL     1       1.535  -5.323  29.601  0.00  0.00    -0.392 OA
ATOM     53  H   UNL     1       0.736  -5.475  30.136  0.00  0.00    +0.210 HD
ENDBRANCH  51  52
ENDBRANCH  44  51
BRANCH  41  54
ATOM     54  O   UNL     1       4.974  -6.352  25.161  0.00  0.00    -0.337 OA
BRANCH  54  58
ATOM     55  C   UNL     1       8.189  -3.916  23.794  0.00  0.00    +0.041 C 
ATOM     56  C   UNL     1       6.746  -3.649  23.343  0.00  0.00    +0.149 C 
ATOM     57  O   UNL     1       5.770  -4.284  24.218  0.00  0.00    -0.343 OA
ATOM     58  C   UNL     1       5.795  -5.725  24.144  0.00  0.00    +0.282 C 
ATOM     59  C   UNL     1       5.388  -6.128  22.706  0.00  0.00    +0.201 C 
ATOM     60  C   UNL     1       6.431  -5.570  21.729  0.00  0.00    +0.179 C 
ATOM     61  C   UNL     1       6.548  -4.044  21.862  0.00  0.00    +0.174 C 
BRANCH  61  62
ATOM     62  O   UNL     1       5.386  -3.391  21.340  0.00  0.00    -0.387 OA
ATOM     63  H   UNL     1       5.195  -3.802  20.470  0.00  0.00    +0.210 HD
ENDBRANCH  61  62
BRANCH  60  64
ATOM     64  O   UNL     1       6.155  -6.003  20.394  0.00  0.00    -0.386 OA
ATOM     65  H   UNL     1       6.393  -6.945  20.325  0.00  0.00    +0.210 HD
ENDBRANCH  60  64
BRANCH  59  66
ATOM     66  O   UNL     1       4.076  -5.605  22.408  0.00  0.00    -0.384 OA
ATOM     67  H   UNL     1       3.912  -4.875  23.039  0.00  0.00    +0.210 HD
ENDBRANCH  59  66
ENDBRANCH  54  58
ENDBRANCH  41  54
ENDBRANCH  40  42
ENDBRANCH   1  40
TORSDOF 22
ENDMDL
