MODEL 1
REMARK VINA RESULT:      -7.4      0.000      0.000
REMARK  Name = 
REMARK  17 active torsions:
REMARK  status: ('A' for Active; 'I' for Inactive)
REMARK    1  A    between atoms: C_1  and  C_2
REMARK    2  A    between atoms: C_3  and  O_43
REMARK    3  A    between atoms: C_4  and  O_42
REMARK    4  A    between atoms: C_5  and  O_30
REMARK    5  A    between atoms: C_6  and  O_8
REMARK    6  A    between atoms: O_8  and  C_9
REMARK    7  A    between atoms: C_10  and  C_22
REMARK    8  A    between atoms: C_14  and  O_21
REMARK    9  A    between atoms: C_16  and  O_20
REMARK   10  A    between atoms: C_24  and  O_29
REMARK   11  A    between atoms: C_25  and  O_28
REMARK   12  A    between atoms: O_30  and  C_31
REMARK   13  A    between atoms: C_32  and  O_41
REMARK   14  A    between atoms: C_33  and  O_40
REMARK   15  A    between atoms: C_34  and  O_39
REMARK   16  A    between atoms: C_35  and  C_37
REMARK   17  A    between atoms: C_37  and  O_38
REMARK                            x       y       z     vdW  Elec       q    Type
REMARK                         _______ _______ _______ _____ _____    ______ ____
ROOT
ATOM      1  C   UNL     1       2.186   0.698  27.308  0.00  0.00    +0.041 C 
ATOM      2  C   UNL     1       2.980  -0.329  28.131  0.00  0.00    +0.150 C 
ATOM      3  O   UNL     1       4.323  -0.552  27.667  0.00  0.00    -0.334 OA
ATOM      4  C   UNL     1       4.492  -1.286  26.435  0.00  0.00    +0.340 C 
ATOM      5  C   UNL     1       3.547  -2.605  26.366  0.00  0.00    +0.221 C 
ATOM      6  C   UNL     1       2.118  -2.288  26.889  0.00  0.00    +0.180 C 
ATOM      7  C   UNL     1       2.219  -1.645  28.272  0.00  0.00    +0.174 C 
ENDROOT
BRANCH   7   8
ATOM      8  O   UNL     1       0.919  -1.455  28.847  0.00  0.00    -0.387 OA
ATOM      9  H   UNL     1       0.530  -2.332  29.025  0.00  0.00    +0.210 HD
ENDBRANCH   7   8
BRANCH   6  10
ATOM     10  O   UNL     1       1.201  -3.392  26.990  0.00  0.00    -0.386 OA
ATOM     11  H   UNL     1       1.063  -3.754  26.094  0.00  0.00    +0.210 HD
ENDBRANCH   6  10
BRANCH   5  12
ATOM     12  O   UNL     1       4.112  -3.682  27.128  0.00  0.00    -0.337 OA
BRANCH  12  13
ATOM     13  C   UNL     1       4.528  -4.875  26.442  0.00  0.00    +0.282 C 
ATOM     14  O   UNL     1       3.674  -5.931  26.897  0.00  0.00    -0.341 OA
ATOM     15  C   UNL     1       3.763  -6.060  28.317  0.00  0.00    +0.178 C 
ATOM     16  C   UNL     1       5.168  -6.541  28.719  0.00  0.00    +0.177 C 
ATOM     17  C   UNL     1       6.253  -5.628  28.106  0.00  0.00    +0.179 C 
ATOM     18  C   UNL     1       5.991  -5.328  26.626  0.00  0.00    +0.201 C 
BRANCH  18  19
ATOM     19  O   UNL     1       6.940  -4.375  26.131  0.00  0.00    -0.384 OA
ATOM     20  H   UNL     1       7.583  -4.217  26.849  0.00  0.00    +0.210 HD
ENDBRANCH  18  19
BRANCH  17  21
ATOM     21  O   UNL     1       7.545  -6.262  28.195  0.00  0.00    -0.386 OA
ATOM     22  H   UNL     1       7.641  -6.852  27.424  0.00  0.00    +0.210 HD
ENDBRANCH  17  21
BRANCH  16  23
ATOM     23  O   UNL     1       5.381  -7.899  28.303  0.00  0.00    -0.386 OA
ATOM     24  H   UNL     1       5.953  -7.883  27.511  0.00  0.00    +0.210 HD
ENDBRANCH  16  23
BRANCH  15  25
ATOM     25  C   UNL     1       2.599  -6.935  28.755  0.00  0.00    +0.190 C 
BRANCH  25  26
ATOM     26  O   UNL     1       3.061  -7.912  29.681  0.00  0.00    -0.392 OA
ATOM     27  H   UNL     1       2.841  -7.575  30.568  0.00  0.00    +0.210 HD
ENDBRANCH  25  26
ENDBRANCH  15  25
ENDBRANCH  12  13
ENDBRANCH   5  12
BRANCH   4  28
ATOM     28  O   UNL     1       5.935  -1.624  26.247  0.00  0.00    -0.453 OA
BRANCH  28  29
ATOM     29  C   UNL     1       6.698  -1.027  25.210  0.00  0.00    +0.214 A 
ATOM     30  C   UNL     1       7.092   0.442  25.333  0.00  0.00    +0.238 A 
ATOM     31  O   UNL     1       6.514   1.172  26.137  0.00  0.00    -0.283 OA
ATOM     32  C   UNL     1       8.089   1.007  24.386  0.00  0.00    +0.109 A 
ATOM     33  C   UNL     1       8.321   0.281  23.233  0.00  0.00    +0.147 A 
ATOM     34  C   UNL     1       9.181   0.759  22.221  0.00  0.00    +0.092 A 
ATOM     35  C   UNL     1       9.838   1.967  22.388  0.00  0.00    +0.124 A 
ATOM     36  C   UNL     1       9.636   2.711  23.543  0.00  0.00    +0.091 A 
ATOM     37  O   UNL     1       7.675  -0.893  22.986  0.00  0.00    -0.451 OA
ATOM     38  C   UNL     1       8.754   2.240  24.533  0.00  0.00    +0.135 A 
ATOM     39  C   UNL     1       6.939  -1.581  23.973  0.00  0.00    +0.181 A 
BRANCH  39  40
ATOM     40  C   UNL     1       6.484  -2.905  23.341  0.00  0.00    +0.025 A 
ATOM     41  C   UNL     1       7.466  -3.734  22.704  0.00  0.00    +0.015 A 
ATOM     42  C   UNL     1       7.175  -4.940  22.049  0.00  0.00    +0.050 A 
ATOM     43  C   UNL     1       5.870  -5.391  22.046  0.00  0.00    +0.158 A 
ATOM     44  C   UNL     1       4.883  -4.638  22.680  0.00  0.00    +0.159 A 
ATOM     45  C   UNL     1       5.163  -3.400  23.313  0.00  0.00    +0.060 A 
BRANCH  44  46
ATOM     46  O   UNL     1       3.636  -5.194  22.668  0.00  0.00    -0.503 OA
ATOM     47  H   UNL     1       3.692  -6.122  22.359  0.00  0.00    +0.292 HD
ENDBRANCH  44  46
BRANCH  43  48
ATOM     48  O   UNL     1       5.576  -6.560  21.412  0.00  0.00    -0.503 OA
ATOM     49  H   UNL     1       5.834  -6.413  20.479  0.00  0.00    +0.292 HD
ENDBRANCH  43  48
ENDBRANCH  39  40
BRANCH  38  50
ATOM     50  O   UNL     1       8.582   3.013  25.648  0.00  0.00    -0.506 OA
ATOM     51  H   UNL     1       9.359   2.922  26.228  0.00  0.00    +0.292 HD
ENDBRANCH  38  50
BRANCH  35  52
ATOM     52  O   UNL     1      10.694   2.478  21.455  0.00  0.00    -0.507 OA
ATOM     53  H   UNL     1      10.805   3.435  21.588  0.00  0.00    +0.292 HD
ENDBRANCH  35  52
ENDBRANCH  28  29
ENDBRANCH   4  28
TORSDOF 16
ENDMDL
MODEL 2
REMARK VINA RESULT:      -7.2      2.403      9.281
REMARK  Name = 
REMARK  17 active torsions:
REMARK  status: ('A' for Active; 'I' for Inactive)
REMARK    1  A    between atoms: C_1  and  C_2
REMARK    2  A    between atoms: C_3  and  O_43
REMARK    3  A    between atoms: C_4  and  O_42
REMARK    4  A    between atoms: C_5  and  O_30
REMARK    5  A    between atoms: C_6  and  O_8
REMARK    6  A    between atoms: O_8  and  C_9
REMARK    7  A    between atoms: C_10  and  C_22
REMARK    8  A    between atoms: C_14  and  O_21
REMARK    9  A    between atoms: C_16  and  O_20
REMARK   10  A    between atoms: C_24  and  O_29
REMARK   11  A    between atoms: C_25  and  O_28
REMARK   12  A    between atoms: O_30  and  C_31
REMARK   13  A    between atoms: C_32  and  O_41
REMARK   14  A    between atoms: C_33  and  O_40
REMARK   15  A    between atoms: C_34  and  O_39
REMARK   16  A    between atoms: C_35  and  C_37
REMARK   17  A    between atoms: C_37  and  O_38
REMARK                            x       y       z     vdW  Elec       q    Type
REMARK                         _______ _______ _______ _____ _____    ______ ____
ROOT
ATOM      1  C   UNL     1      10.820  -1.689  23.072  0.00  0.00    +0.041 C 
ATOM      2  C   UNL     1       9.979  -0.845  24.043  0.00  0.00    +0.150 C 
ATOM      3  O   UNL     1       8.565  -1.104  23.984  0.00  0.00    -0.334 OA
ATOM      4  C   UNL     1       7.847  -0.635  22.822  0.00  0.00    +0.340 C 
ATOM      5  C   UNL     1       8.252   0.885  22.416  0.00  0.00    +0.221 C 
ATOM      6  C   UNL     1       9.790   1.089  22.510  0.00  0.00    +0.180 C 
ATOM      7  C   UNL     1      10.274   0.646  23.891  0.00  0.00    +0.174 C 
ENDROOT
BRANCH   7   8
ATOM      8  O   UNL     1      11.666   0.939  24.067  0.00  0.00    -0.387 OA
ATOM      9  H   UNL     1      12.032   1.223  23.208  0.00  0.00    +0.210 HD
ENDBRANCH   7   8
BRANCH   6  10
ATOM     10  O   UNL     1      10.285   2.421  22.285  0.00  0.00    -0.386 OA
ATOM     11  H   UNL     1       9.534   3.040  22.363  0.00  0.00    +0.210 HD
ENDBRANCH   6  10
BRANCH   5  12
ATOM     12  O   UNL     1       7.586   1.837  23.259  0.00  0.00    -0.337 OA
BRANCH  12  13
ATOM     13  C   UNL     1       6.510   2.617  22.710  0.00  0.00    +0.282 C 
ATOM     14  O   UNL     1       7.069   3.881  22.333  0.00  0.00    -0.341 OA
ATOM     15  C   UNL     1       7.675   4.509  23.464  0.00  0.00    +0.178 C 
ATOM     16  C   UNL     1       6.602   4.889  24.499  0.00  0.00    +0.177 C 
ATOM     17  C   UNL     1       5.732   3.663  24.857  0.00  0.00    +0.179 C 
ATOM     18  C   UNL     1       5.289   2.882  23.614  0.00  0.00    +0.201 C 
BRANCH  18  19
ATOM     19  O   UNL     1       4.601   1.684  23.993  0.00  0.00    -0.384 OA
ATOM     20  H   UNL     1       5.131   1.263  24.695  0.00  0.00    +0.210 HD
ENDBRANCH  18  19
BRANCH  17  21
ATOM     21  O   UNL     1       4.538   4.085  25.547  0.00  0.00    -0.386 OA
ATOM     22  H   UNL     1       4.807   4.453  26.410  0.00  0.00    +0.210 HD
ENDBRANCH  17  21
BRANCH  16  23
ATOM     23  O   UNL     1       5.770   5.950  24.005  0.00  0.00    -0.386 OA
ATOM     24  H   UNL     1       6.183   6.798  24.259  0.00  0.00    +0.210 HD
ENDBRANCH  16  23
BRANCH  15  25
ATOM     25  C   UNL     1       8.533   5.646  22.932  0.00  0.00    +0.190 C 
BRANCH  25  26
ATOM     26  O   UNL     1       7.932   6.185  21.759  0.00  0.00    -0.392 OA
ATOM     27  H   UNL     1       6.969   6.093  21.878  0.00  0.00    +0.210 HD
ENDBRANCH  25  26
ENDBRANCH  15  25
ENDBRANCH  12  13
ENDBRANCH   5  12
BRANCH   4  28
ATOM     28  O   UNL     1       6.377  -0.777  23.051  0.00  0.00    -0.453 OA
BRANCH  28  29
ATOM     29  C   UNL     1       5.854  -1.873  23.786  0.00  0.00    +0.214 A 
ATOM     30  C   UNL     1       5.426  -3.131  23.036  0.00  0.00    +0.238 A 
ATOM     31  O   UNL     1       5.244  -3.094  21.821  0.00  0.00    -0.283 OA
ATOM     32  C   UNL     1       5.113  -4.363  23.807  0.00  0.00    +0.109 A 
ATOM     33  C   UNL     1       4.869  -4.198  25.157  0.00  0.00    +0.147 A 
ATOM     34  C   UNL     1       4.477  -5.280  25.974  0.00  0.00    +0.092 A 
ATOM     35  C   UNL     1       4.362  -6.548  25.429  0.00  0.00    +0.124 A 
ATOM     36  C   UNL     1       4.616  -6.748  24.078  0.00  0.00    +0.091 A 
ATOM     37  O   UNL     1       4.922  -2.971  25.747  0.00  0.00    -0.451 OA
ATOM     38  C   UNL     1       4.977  -5.657  23.266  0.00  0.00    +0.135 A 
ATOM     39  C   UNL     1       5.474  -1.840  25.109  0.00  0.00    +0.181 A 
BRANCH  39  40
ATOM     40  C   UNL     1       5.465  -0.703  26.142  0.00  0.00    +0.025 A 
ATOM     41  C   UNL     1       4.246  -0.424  26.844  0.00  0.00    +0.015 A 
ATOM     42  C   UNL     1       4.091   0.615  27.774  0.00  0.00    +0.050 A 
ATOM     43  C   UNL     1       5.186   1.401  28.072  0.00  0.00    +0.158 A 
ATOM     44  C   UNL     1       6.403   1.151  27.440  0.00  0.00    +0.159 A 
ATOM     45  C   UNL     1       6.558   0.126  26.472  0.00  0.00    +0.060 A 
BRANCH  44  46
ATOM     46  O   UNL     1       7.436   1.947  27.841  0.00  0.00    -0.503 OA
ATOM     47  H   UNL     1       7.766   1.645  28.713  0.00  0.00    +0.292 HD
ENDBRANCH  44  46
BRANCH  43  48
ATOM     48  O   UNL     1       5.047   2.414  28.973  0.00  0.00    -0.503 OA
ATOM     49  H   UNL     1       4.796   3.194  28.437  0.00  0.00    +0.292 HD
ENDBRANCH  43  48
ENDBRANCH  39  40
BRANCH  38  50
ATOM     50  O   UNL     1       5.209  -5.903  21.941  0.00  0.00    -0.506 OA
ATOM     51  H   UNL     1       4.860  -6.781  21.709  0.00  0.00    +0.292 HD
ENDBRANCH  38  50
BRANCH  35  52
ATOM     52  O   UNL     1       4.002  -7.640  26.167  0.00  0.00    -0.507 OA
ATOM     53  H   UNL     1       3.232  -7.431  26.723  0.00  0.00    +0.292 HD
ENDBRANCH  35  52
ENDBRANCH  28  29
ENDBRANCH   4  28
TORSDOF 16
ENDMDL
MODEL 3
REMARK VINA RESULT:      -6.9      1.844      4.933
REMARK  Name = 
REMARK  17 active torsions:
REMARK  status: ('A' for Active; 'I' for Inactive)
REMARK    1  A    between atoms: C_1  and  C_2
REMARK    2  A    between atoms: C_3  and  O_43
REMARK    3  A    between atoms: C_4  and  O_42
REMARK    4  A    between atoms: C_5  and  O_30
REMARK    5  A    between atoms: C_6  and  O_8
REMARK    6  A    between atoms: O_8  and  C_9
REMARK    7  A    between atoms: C_10  and  C_22
REMARK    8  A    between atoms: C_14  and  O_21
REMARK    9  A    between atoms: C_16  and  O_20
REMARK   10  A    between atoms: C_24  and  O_29
REMARK   11  A    between atoms: C_25  and  O_28
REMARK   12  A    between atoms: O_30  and  C_31
REMARK   13  A    between atoms: C_32  and  O_41
REMARK   14  A    between atoms: C_33  and  O_40
REMARK   15  A    between atoms: C_34  and  O_39
REMARK   16  A    between atoms: C_35  and  C_37
REMARK   17  A    between atoms: C_37  and  O_38
REMARK                            x       y       z     vdW  Elec       q    Type
REMARK                         _______ _______ _______ _____ _____    ______ ____
ROOT
ATOM      1  C   UNL     1       5.546  -5.900  21.534  0.00  0.00    +0.041 C 
ATOM      2  C   UNL     1       4.828  -5.090  22.626  0.00  0.00    +0.150 C 
ATOM      3  O   UNL     1       5.702  -4.299  23.451  0.00  0.00    -0.334 OA
ATOM      4  C   UNL     1       6.538  -4.995  24.400  0.00  0.00    +0.340 C 
ATOM      5  C   UNL     1       5.725  -6.140  25.217  0.00  0.00    +0.221 C 
ATOM      6  C   UNL     1       4.799  -6.946  24.263  0.00  0.00    +0.180 C 
ATOM      7  C   UNL     1       3.919  -5.975  23.476  0.00  0.00    +0.174 C 
ENDROOT
BRANCH   7   8
ATOM      8  O   UNL     1       2.959  -6.681  22.679  0.00  0.00    -0.387 OA
ATOM      9  H   UNL     1       3.072  -7.637  22.836  0.00  0.00    +0.210 HD
ENDBRANCH   7   8
BRANCH   6  10
ATOM     10  O   UNL     1       3.934  -7.923  24.867  0.00  0.00    -0.386 OA
ATOM     11  H   UNL     1       4.416  -8.339  25.607  0.00  0.00    +0.210 HD
ENDBRANCH   6  10
BRANCH   5  12
ATOM     12  O   UNL     1       4.944  -5.561  26.272  0.00  0.00    -0.337 OA
BRANCH  12  13
ATOM     13  C   UNL     1       4.728  -6.321  27.474  0.00  0.00    +0.282 C 
ATOM     14  O   UNL     1       3.355  -6.727  27.464  0.00  0.00    -0.341 OA
ATOM     15  C   UNL     1       2.503  -5.583  27.382  0.00  0.00    +0.178 C 
ATOM     16  C   UNL     1       2.616  -4.744  28.668  0.00  0.00    +0.177 C 
ATOM     17  C   UNL     1       4.093  -4.403  28.968  0.00  0.00    +0.179 C 
ATOM     18  C   UNL     1       5.012  -5.621  28.819  0.00  0.00    +0.201 C 
BRANCH  18  19
ATOM     19  O   UNL     1       6.384  -5.237  28.974  0.00  0.00    -0.384 OA
ATOM     20  H   UNL     1       6.914  -5.863  28.445  0.00  0.00    +0.210 HD
ENDBRANCH  18  19
BRANCH  17  21
ATOM     21  O   UNL     1       4.229  -3.925  30.321  0.00  0.00    -0.386 OA
ATOM     22  H   UNL     1       4.007  -2.975  30.325  0.00  0.00    +0.210 HD
ENDBRANCH  17  21
BRANCH  16  23
ATOM     23  O   UNL     1       2.040  -5.441  29.784  0.00  0.00    -0.386 OA
ATOM     24  H   UNL     1       1.075  -5.490  29.641  0.00  0.00    +0.210 HD
ENDBRANCH  16  23
BRANCH  15  25
ATOM     25  C   UNL     1       1.114  -6.090  27.027  0.00  0.00    +0.190 C 
BRANCH  25  26
ATOM     26  O   UNL     1       1.204  -6.990  25.928  0.00  0.00    -0.392 OA
ATOM     27  H   UNL     1       1.351  -7.874  26.310  0.00  0.00    +0.210 HD
ENDBRANCH  25  26
ENDBRANCH  15  25
ENDBRANCH  12  13
ENDBRANCH   5  12
BRANCH   4  28
ATOM     28  O   UNL     1       7.183  -4.008  25.318  0.00  0.00    -0.453 OA
BRANCH  28  29
ATOM     29  C   UNL     1       7.468  -2.686  24.887  0.00  0.00    +0.214 A 
ATOM     30  C   UNL     1       8.739  -2.428  24.083  0.00  0.00    +0.238 A 
ATOM     31  O   UNL     1       9.643  -3.261  24.071  0.00  0.00    -0.283 OA
ATOM     32  C   UNL     1       8.922  -1.110  23.420  0.00  0.00    +0.109 A 
ATOM     33  C   UNL     1       8.120  -0.079  23.870  0.00  0.00    +0.147 A 
ATOM     34  C   UNL     1       8.262   1.236  23.378  0.00  0.00    +0.092 A 
ATOM     35  C   UNL     1       9.203   1.507  22.399  0.00  0.00    +0.124 A 
ATOM     36  C   UNL     1      10.014   0.488  21.916  0.00  0.00    +0.091 A 
ATOM     37  O   UNL     1       7.204  -0.268  24.862  0.00  0.00    -0.451 OA
ATOM     38  C   UNL     1       9.884  -0.813  22.434  0.00  0.00    +0.135 A 
ATOM     39  C   UNL     1       6.822  -1.548  25.314  0.00  0.00    +0.181 A 
BRANCH  39  40
ATOM     40  C   UNL     1       5.690  -1.337  26.331  0.00  0.00    +0.025 A 
ATOM     41  C   UNL     1       4.399  -1.893  26.045  0.00  0.00    +0.015 A 
ATOM     42  C   UNL     1       3.271  -1.732  26.864  0.00  0.00    +0.050 A 
ATOM     43  C   UNL     1       3.410  -1.032  28.045  0.00  0.00    +0.158 A 
ATOM     44  C   UNL     1       4.652  -0.500  28.386  0.00  0.00    +0.159 A 
ATOM     45  C   UNL     1       5.788  -0.627  27.546  0.00  0.00    +0.060 A 
BRANCH  44  46
ATOM     46  O   UNL     1       4.699   0.128  29.597  0.00  0.00    -0.503 OA
ATOM     47  H   UNL     1       4.011  -0.243  30.188  0.00  0.00    +0.292 HD
ENDBRANCH  44  46
BRANCH  43  48
ATOM     48  O   UNL     1       2.321  -0.869  28.849  0.00  0.00    -0.503 OA
ATOM     49  H   UNL     1       1.556  -1.102  28.285  0.00  0.00    +0.292 HD
ENDBRANCH  43  48
ENDBRANCH  39  40
BRANCH  38  50
ATOM     50  O   UNL     1      10.711  -1.780  21.933  0.00  0.00    -0.506 OA
ATOM     51  H   UNL     1      11.565  -1.382  21.689  0.00  0.00    +0.292 HD
ENDBRANCH  38  50
BRANCH  35  52
ATOM     52  O   UNL     1       9.381   2.754  21.870  0.00  0.00    -0.507 OA
ATOM     53  H   UNL     1       8.546   3.082  21.493  0.00  0.00    +0.292 HD
ENDBRANCH  35  52
ENDBRANCH  28  29
ENDBRANCH   4  28
TORSDOF 16
ENDMDL
MODEL 4
REMARK VINA RESULT:      -6.8      2.173      6.026
REMARK  Name = 
REMARK  17 active torsions:
REMARK  status: ('A' for Active; 'I' for Inactive)
REMARK    1  A    between atoms: C_1  and  C_2
REMARK    2  A    between atoms: C_3  and  O_43
REMARK    3  A    between atoms: C_4  and  O_42
REMARK    4  A    between atoms: C_5  and  O_30
REMARK    5  A    between atoms: C_6  and  O_8
REMARK    6  A    between atoms: O_8  and  C_9
REMARK    7  A    between atoms: C_10  and  C_22
REMARK    8  A    between atoms: C_14  and  O_21
REMARK    9  A    between atoms: C_16  and  O_20
REMARK   10  A    between atoms: C_24  and  O_29
REMARK   11  A    between atoms: C_25  and  O_28
REMARK   12  A    between atoms: O_30  and  C_31
REMARK   13  A    between atoms: C_32  and  O_41
REMARK   14  A    between atoms: C_33  and  O_40
REMARK   15  A    between atoms: C_34  and  O_39
REMARK   16  A    between atoms: C_35  and  C_37
REMARK   17  A    between atoms: C_37  and  O_38
REMARK                            x       y       z     vdW  Elec       q    Type
REMARK                         _______ _______ _______ _____ _____    ______ ____
ROOT
ATOM      1  C   UNL     1      10.014  -2.634  24.013  0.00  0.00    +0.041 C 
ATOM      2  C   UNL     1       8.650  -3.282  23.721  0.00  0.00    +0.150 C 
ATOM      3  O   UNL     1       7.532  -2.383  23.824  0.00  0.00    -0.334 OA
ATOM      4  C   UNL     1       7.139  -1.952  25.145  0.00  0.00    +0.340 C 
ATOM      5  C   UNL     1       7.093  -3.181  26.208  0.00  0.00    +0.221 C 
ATOM      6  C   UNL     1       8.327  -4.109  26.031  0.00  0.00    +0.180 C 
ATOM      7  C   UNL     1       8.432  -4.534  24.567  0.00  0.00    +0.174 C 
ENDROOT
BRANCH   7   8
ATOM      8  O   UNL     1       9.480  -5.496  24.384  0.00  0.00    -0.387 OA
ATOM      9  H   UNL     1      10.299  -5.018  24.155  0.00  0.00    +0.210 HD
ENDBRANCH   7   8
BRANCH   6  10
ATOM     10  O   UNL     1       8.364  -5.303  26.833  0.00  0.00    -0.386 OA
ATOM     11  H   UNL     1       8.554  -6.058  26.243  0.00  0.00    +0.210 HD
ENDBRANCH   6  10
BRANCH   5  12
ATOM     12  O   UNL     1       5.888  -3.945  26.058  0.00  0.00    -0.337 OA
BRANCH  12  13
ATOM     13  C   UNL     1       4.794  -3.704  26.960  0.00  0.00    +0.282 C 
ATOM     14  O   UNL     1       4.942  -4.630  28.043  0.00  0.00    -0.341 OA
ATOM     15  C   UNL     1       4.954  -5.970  27.548  0.00  0.00    +0.178 C 
ATOM     16  C   UNL     1       3.579  -6.329  26.957  0.00  0.00    +0.177 C 
ATOM     17  C   UNL     1       3.144  -5.280  25.910  0.00  0.00    +0.179 C 
ATOM     18  C   UNL     1       3.364  -3.844  26.399  0.00  0.00    +0.201 C 
BRANCH  18  19
ATOM     19  O   UNL     1       3.077  -2.907  25.354  0.00  0.00    -0.384 OA
ATOM     20  H   UNL     1       2.198  -3.140  25.000  0.00  0.00    +0.210 HD
ENDBRANCH  18  19
BRANCH  17  21
ATOM     21  O   UNL     1       1.741  -5.423  25.614  0.00  0.00    -0.386 OA
ATOM     22  H   UNL     1       1.378  -6.104  26.211  0.00  0.00    +0.210 HD
ENDBRANCH  17  21
BRANCH  16  23
ATOM     23  O   UNL     1       2.588  -6.424  27.992  0.00  0.00    -0.386 OA
ATOM     24  H   UNL     1       2.666  -7.307  28.402  0.00  0.00    +0.210 HD
ENDBRANCH  16  23
BRANCH  15  25
ATOM     25  C   UNL     1       5.455  -6.855  28.678  0.00  0.00    +0.190 C 
BRANCH  25  26
ATOM     26  O   UNL     1       6.826  -6.567  28.933  0.00  0.00    -0.392 OA
ATOM     27  H   UNL     1       7.299  -6.727  28.096  0.00  0.00    +0.210 HD
ENDBRANCH  25  26
ENDBRANCH  15  25
ENDBRANCH  12  13
ENDBRANCH   5  12
BRANCH   4  28
ATOM     28  O   UNL     1       5.831  -1.233  25.069  0.00  0.00    -0.453 OA
BRANCH  28  29
ATOM     29  C   UNL     1       5.656   0.033  25.685  0.00  0.00    +0.214 A 
ATOM     30  C   UNL     1       4.449   0.255  26.592  0.00  0.00    +0.238 A 
ATOM     31  O   UNL     1       3.494  -0.519  26.551  0.00  0.00    -0.283 OA
ATOM     32  C   UNL     1       4.388   1.482  27.430  0.00  0.00    +0.109 A 
ATOM     33  C   UNL     1       5.230   2.515  27.069  0.00  0.00    +0.147 A 
ATOM     34  C   UNL     1       5.201   3.759  27.736  0.00  0.00    +0.092 A 
ATOM     35  C   UNL     1       4.333   3.950  28.798  0.00  0.00    +0.124 A 
ATOM     36  C   UNL     1       3.484   2.925  29.193  0.00  0.00    +0.091 A 
ATOM     37  O   UNL     1       6.078   2.408  26.007  0.00  0.00    -0.451 OA
ATOM     38  C   UNL     1       3.501   1.699  28.503  0.00  0.00    +0.135 A 
ATOM     39  C   UNL     1       6.350   1.179  25.370  0.00  0.00    +0.181 A 
BRANCH  39  40
ATOM     40  C   UNL     1       7.438   1.458  24.321  0.00  0.00    +0.025 A 
ATOM     41  C   UNL     1       8.687   2.011  24.759  0.00  0.00    +0.015 A 
ATOM     42  C   UNL     1       9.742   2.356  23.901  0.00  0.00    +0.050 A 
ATOM     43  C   UNL     1       9.597   2.115  22.549  0.00  0.00    +0.158 A 
ATOM     44  C   UNL     1       8.415   1.548  22.076  0.00  0.00    +0.159 A 
ATOM     45  C   UNL     1       7.330   1.230  22.933  0.00  0.00    +0.060 A 
BRANCH  44  46
ATOM     46  O   UNL     1       8.391   1.300  20.734  0.00  0.00    -0.503 OA
ATOM     47  H   UNL     1       8.413   0.333  20.578  0.00  0.00    +0.292 HD
ENDBRANCH  44  46
BRANCH  43  48
ATOM     48  O   UNL     1      10.615   2.447  21.706  0.00  0.00    -0.503 OA
ATOM     49  H   UNL     1      10.530   1.827  20.953  0.00  0.00    +0.292 HD
ENDBRANCH  43  48
ENDBRANCH  39  40
BRANCH  38  50
ATOM     50  O   UNL     1       2.641   0.722  28.925  0.00  0.00    -0.506 OA
ATOM     51  H   UNL     1       1.867   1.134  29.347  0.00  0.00    +0.292 HD
ENDBRANCH  38  50
BRANCH  35  52
ATOM     52  O   UNL     1       4.265   5.123  29.494  0.00  0.00    -0.507 OA
ATOM     53  H   UNL     1       4.655   5.847  28.973  0.00  0.00    +0.292 HD
ENDBRANCH  35  52
ENDBRANCH  28  29
ENDBRANCH   4  28
TORSDOF 16
ENDMDL
MODEL 5
REMARK VINA RESULT:      -6.8      3.135      7.702
REMARK  Name = 
REMARK  17 active torsions:
REMARK  status: ('A' for Active; 'I' for Inactive)
REMARK    1  A    between atoms: C_1  and  C_2
REMARK    2  A    between atoms: C_3  and  O_43
REMARK    3  A    between atoms: C_4  and  O_42
REMARK    4  A    between atoms: C_5  and  O_30
REMARK    5  A    between atoms: C_6  and  O_8
REMARK    6  A    between atoms: O_8  and  C_9
REMARK    7  A    between atoms: C_10  and  C_22
REMARK    8  A    between atoms: C_14  and  O_21
REMARK    9  A    between atoms: C_16  and  O_20
REMARK   10  A    between atoms: C_24  and  O_29
REMARK   11  A    between atoms: C_25  and  O_28
REMARK   12  A    between atoms: O_30  and  C_31
REMARK   13  A    between atoms: C_32  and  O_41
REMARK   14  A    between atoms: C_33  and  O_40
REMARK   15  A    between atoms: C_34  and  O_39
REMARK   16  A    between atoms: C_35  and  C_37
REMARK   17  A    between atoms: C_37  and  O_38
REMARK                            x       y       z     vdW  Elec       q    Type
REMARK                         _______ _______ _______ _____ _____    ______ ____
ROOT
ATOM      1  C   UNL     1      10.193   1.372  21.836  0.00  0.00    +0.041 C 
ATOM      2  C   UNL     1       8.842   0.720  22.176  0.00  0.00    +0.150 C 
ATOM      3  O   UNL     1       8.135   1.350  23.259  0.00  0.00    -0.334 OA
ATOM      4  C   UNL     1       8.654   1.167  24.594  0.00  0.00    +0.340 C 
ATOM      5  C   UNL     1       9.066  -0.377  24.890  0.00  0.00    +0.221 C 
ATOM      6  C   UNL     1       9.818  -0.989  23.675  0.00  0.00    +0.180 C 
ATOM      7  C   UNL     1       8.986  -0.782  22.410  0.00  0.00    +0.174 C 
ENDROOT
BRANCH   7   8
ATOM      8  O   UNL     1       9.582  -1.446  21.288  0.00  0.00    -0.387 OA
ATOM      9  H   UNL     1       9.982  -0.771  20.707  0.00  0.00    +0.210 HD
ENDBRANCH   7   8
BRANCH   6  10
ATOM     10  O   UNL     1      10.149  -2.387  23.752  0.00  0.00    -0.386 OA
ATOM     11  H   UNL     1       9.655  -2.775  24.499  0.00  0.00    +0.210 HD
ENDBRANCH   6  10
BRANCH   5  12
ATOM     12  O   UNL     1       7.908  -1.170  25.190  0.00  0.00    -0.337 OA
BRANCH  12  13
ATOM     13  C   UNL     1       7.709  -1.626  26.539  0.00  0.00    +0.282 C 
ATOM     14  O   UNL     1       8.142  -2.991  26.580  0.00  0.00    -0.341 OA
ATOM     15  C   UNL     1       7.413  -3.768  25.629  0.00  0.00    +0.178 C 
ATOM     16  C   UNL     1       5.931  -3.852  26.037  0.00  0.00    +0.177 C 
ATOM     17  C   UNL     1       5.348  -2.441  26.269  0.00  0.00    +0.179 C 
ATOM     18  C   UNL     1       6.278  -1.559  27.110  0.00  0.00    +0.201 C 
BRANCH  18  19
ATOM     19  O   UNL     1       5.767  -0.223  27.189  0.00  0.00    -0.384 OA
ATOM     20  H   UNL     1       4.960  -0.260  27.737  0.00  0.00    +0.210 HD
ENDBRANCH  18  19
BRANCH  17  21
ATOM     21  O   UNL     1       4.091  -2.529  26.968  0.00  0.00    -0.386 OA
ATOM     22  H   UNL     1       3.816  -1.624  27.204  0.00  0.00    +0.210 HD
ENDBRANCH  17  21
BRANCH  16  23
ATOM     23  O   UNL     1       5.774  -4.645  27.224  0.00  0.00    -0.386 OA
ATOM     24  H   UNL     1       5.280  -4.112  27.877  0.00  0.00    +0.210 HD
ENDBRANCH  16  23
BRANCH  15  25
ATOM     25  C   UNL     1       8.148  -5.090  25.481  0.00  0.00    +0.190 C 
BRANCH  25  26
ATOM     26  O   UNL     1       8.318  -5.686  26.763  0.00  0.00    -0.392 OA
ATOM     27  H   UNL     1       7.422  -5.843  27.112  0.00  0.00    +0.210 HD
ENDBRANCH  25  26
ENDBRANCH  15  25
ENDBRANCH  12  13
ENDBRANCH   5  12
BRANCH   4  28
ATOM     28  O   UNL     1       7.665   1.680  25.590  0.00  0.00    -0.453 OA
BRANCH  28  29
ATOM     29  C   UNL     1       6.782   2.742  25.264  0.00  0.00    +0.214 A 
ATOM     30  C   UNL     1       5.306   2.433  25.028  0.00  0.00    +0.238 A 
ATOM     31  O   UNL     1       4.943   1.277  24.817  0.00  0.00    -0.283 OA
ATOM     32  C   UNL     1       4.337   3.556  24.932  0.00  0.00    +0.109 A 
ATOM     33  C   UNL     1       4.869   4.808  24.692  0.00  0.00    +0.147 A 
ATOM     34  C   UNL     1       4.043   5.936  24.495  0.00  0.00    +0.092 A 
ATOM     35  C   UNL     1       2.667   5.803  24.574  0.00  0.00    +0.124 A 
ATOM     36  C   UNL     1       2.103   4.560  24.829  0.00  0.00    +0.091 A 
ATOM     37  O   UNL     1       6.212   5.000  24.560  0.00  0.00    -0.451 OA
ATOM     38  C   UNL     1       2.934   3.437  24.994  0.00  0.00    +0.135 A 
ATOM     39  C   UNL     1       7.161   4.018  24.911  0.00  0.00    +0.181 A 
BRANCH  39  40
ATOM     40  C   UNL     1       8.546   4.661  24.741  0.00  0.00    +0.025 A 
ATOM     41  C   UNL     1       8.910   5.742  25.610  0.00  0.00    +0.015 A 
ATOM     42  C   UNL     1      10.122   6.446  25.529  0.00  0.00    +0.050 A 
ATOM     43  C   UNL     1      11.048   6.056  24.583  0.00  0.00    +0.158 A 
ATOM     44  C   UNL     1      10.755   4.989  23.735  0.00  0.00    +0.159 A 
ATOM     45  C   UNL     1       9.519   4.296  23.787  0.00  0.00    +0.060 A 
BRANCH  44  46
ATOM     46  O   UNL     1      11.756   4.646  22.872  0.00  0.00    -0.503 OA
ATOM     47  H   UNL     1      11.450   4.767  21.948  0.00  0.00    +0.292 HD
ENDBRANCH  44  46
BRANCH  43  48
ATOM     48  O   UNL     1      12.227   6.733  24.493  0.00  0.00    -0.503 OA
ATOM     49  H   UNL     1      12.844   6.108  24.061  0.00  0.00    +0.292 HD
ENDBRANCH  43  48
ENDBRANCH  39  40
BRANCH  38  50
ATOM     50  O   UNL     1       2.332   2.233  25.235  0.00  0.00    -0.506 OA
ATOM     51  H   UNL     1       1.681   2.051  24.535  0.00  0.00    +0.292 HD
ENDBRANCH  38  50
BRANCH  35  52
ATOM     52  O   UNL     1       1.813   6.857  24.408  0.00  0.00    -0.507 OA
ATOM     53  H   UNL     1       1.268   6.977  25.206  0.00  0.00    +0.292 HD
ENDBRANCH  35  52
ENDBRANCH  28  29
ENDBRANCH   4  28
TORSDOF 16
ENDMDL
MODEL 6
REMARK VINA RESULT:      -6.5      3.177      8.961
REMARK  Name = 
REMARK  17 active torsions:
REMARK  status: ('A' for Active; 'I' for Inactive)
REMARK    1  A    between atoms: C_1  and  C_2
REMARK    2  A    between atoms: C_3  and  O_43
REMARK    3  A    between atoms: C_4  and  O_42
REMARK    4  A    between atoms: C_5  and  O_30
REMARK    5  A    between atoms: C_6  and  O_8
REMARK    6  A    between atoms: O_8  and  C_9
REMARK    7  A    between atoms: C_10  and  C_22
REMARK    8  A    between atoms: C_14  and  O_21
REMARK    9  A    between atoms: C_16  and  O_20
REMARK   10  A    between atoms: C_24  and  O_29
REMARK   11  A    between atoms: C_25  and  O_28
REMARK   12  A    between atoms: O_30  and  C_31
REMARK   13  A    between atoms: C_32  and  O_41
REMARK   14  A    between atoms: C_33  and  O_40
REMARK   15  A    between atoms: C_34  and  O_39
REMARK   16  A    between atoms: C_35  and  C_37
REMARK   17  A    between atoms: C_37  and  O_38
REMARK                            x       y       z     vdW  Elec       q    Type
REMARK                         _______ _______ _______ _____ _____    ______ ____
ROOT
ATOM      1  C   UNL     1      10.362   2.135  22.411  0.00  0.00    +0.041 C 
ATOM      2  C   UNL     1       9.644   2.572  23.699  0.00  0.00    +0.150 C 
ATOM      3  O   UNL     1       8.543   1.728  24.080  0.00  0.00    -0.334 OA
ATOM      4  C   UNL     1       7.339   1.798  23.285  0.00  0.00    +0.340 C 
ATOM      5  C   UNL     1       6.908   3.329  22.951  0.00  0.00    +0.221 C 
ATOM      6  C   UNL     1       8.148   4.178  22.555  0.00  0.00    +0.180 C 
ATOM      7  C   UNL     1       9.220   4.037  23.635  0.00  0.00    +0.174 C 
ENDROOT
BRANCH   7   8
ATOM      8  O   UNL     1      10.330   4.907  23.375  0.00  0.00    -0.387 OA
ATOM      9  H   UNL     1      10.613   5.306  24.219  0.00  0.00    +0.210 HD
ENDBRANCH   7   8
BRANCH   6  10
ATOM     10  O   UNL     1       7.933   5.583  22.338  0.00  0.00    -0.386 OA
ATOM     11  H   UNL     1       7.755   5.999  23.203  0.00  0.00    +0.210 HD
ENDBRANCH   6  10
BRANCH   5  12
ATOM     12  O   UNL     1       6.247   3.933  24.073  0.00  0.00    -0.337 OA
BRANCH  12  13
ATOM     13  C   UNL     1       4.943   4.508  23.884  0.00  0.00    +0.282 C 
ATOM     14  O   UNL     1       4.803   5.543  24.864  0.00  0.00    -0.341 OA
ATOM     15  C   UNL     1       4.977   5.007  26.176  0.00  0.00    +0.178 C 
ATOM     16  C   UNL     1       3.826   4.042  26.512  0.00  0.00    +0.177 C 
ATOM     17  C   UNL     1       3.677   2.967  25.412  0.00  0.00    +0.179 C 
ATOM     18  C   UNL     1       3.726   3.567  24.003  0.00  0.00    +0.201 C 
BRANCH  18  19
ATOM     19  O   UNL     1       3.719   2.530  23.014  0.00  0.00    -0.384 OA
ATOM     20  H   UNL     1       2.890   2.626  22.509  0.00  0.00    +0.210 HD
ENDBRANCH  18  19
BRANCH  17  21
ATOM     21  O   UNL     1       2.413   2.288  25.547  0.00  0.00    -0.386 OA
ATOM     22  H   UNL     1       2.138   1.990  24.660  0.00  0.00    +0.210 HD
ENDBRANCH  17  21
BRANCH  16  23
ATOM     23  O   UNL     1       2.590   4.757  26.665  0.00  0.00    -0.386 OA
ATOM     24  H   UNL     1       2.180   4.470  27.504  0.00  0.00    +0.210 HD
ENDBRANCH  16  23
BRANCH  15  25
ATOM     25  C   UNL     1       5.165   6.187  27.116  0.00  0.00    +0.190 C 
BRANCH  25  26
ATOM     26  O   UNL     1       4.831   5.795  28.443  0.00  0.00    -0.392 OA
ATOM     27  H   UNL     1       5.617   5.347  28.802  0.00  0.00    +0.210 HD
ENDBRANCH  25  26
ENDBRANCH  15  25
ENDBRANCH  12  13
ENDBRANCH   5  12
BRANCH   4  28
ATOM     28  O   UNL     1       6.243   1.047  23.968  0.00  0.00    -0.453 OA
BRANCH  28  29
ATOM     29  C   UNL     1       6.512  -0.149  24.683  0.00  0.00    +0.214 A 
ATOM     30  C   UNL     1       6.565  -1.471  23.922  0.00  0.00    +0.238 A 
ATOM     31  O   UNL     1       6.088  -1.552  22.792  0.00  0.00    -0.283 OA
ATOM     32  C   UNL     1       7.085  -2.682  24.610  0.00  0.00    +0.109 A 
ATOM     33  C   UNL     1       7.139  -2.630  25.989  0.00  0.00    +0.147 A 
ATOM     34  C   UNL     1       7.533  -3.749  26.755  0.00  0.00    +0.092 A 
ATOM     35  C   UNL     1       7.905  -4.922  26.119  0.00  0.00    +0.124 A 
ATOM     36  C   UNL     1       7.875  -4.999  24.733  0.00  0.00    +0.091 A 
ATOM     37  O   UNL     1       6.746  -1.522  26.678  0.00  0.00    -0.451 OA
ATOM     38  C   UNL     1       7.453  -3.888  23.981  0.00  0.00    +0.135 A 
ATOM     39  C   UNL     1       6.509  -0.280  26.054  0.00  0.00    +0.181 A 
BRANCH  39  40
ATOM     40  C   UNL     1       6.217   0.729  27.176  0.00  0.00    +0.025 A 
ATOM     41  C   UNL     1       5.083   0.502  28.023  0.00  0.00    +0.015 A 
ATOM     42  C   UNL     1       4.679   1.369  29.050  0.00  0.00    +0.050 A 
ATOM     43  C   UNL     1       5.438   2.495  29.298  0.00  0.00    +0.158 A 
ATOM     44  C   UNL     1       6.570   2.744  28.523  0.00  0.00    +0.159 A 
ATOM     45  C   UNL     1       6.963   1.892  27.460  0.00  0.00    +0.060 A 
BRANCH  44  46
ATOM     46  O   UNL     1       7.282   3.852  28.881  0.00  0.00    -0.503 OA
ATOM     47  H   UNL     1       8.218   3.743  28.614  0.00  0.00    +0.292 HD
ENDBRANCH  44  46
BRANCH  43  48
ATOM     48  O   UNL     1       5.055   3.345  30.292  0.00  0.00    -0.503 OA
ATOM     49  H   UNL     1       5.193   2.842  31.120  0.00  0.00    +0.292 HD
ENDBRANCH  43  48
ENDBRANCH  39  40
BRANCH  38  50
ATOM     50  O   UNL     1       7.432  -4.016  22.619  0.00  0.00    -0.506 OA
ATOM     51  H   UNL     1       6.899  -4.793  22.375  0.00  0.00    +0.292 HD
ENDBRANCH  38  50
BRANCH  35  52
ATOM     52  O   UNL     1       8.310  -6.034  26.801  0.00  0.00    -0.507 OA
ATOM     53  H   UNL     1       9.265  -5.990  26.981  0.00  0.00    +0.292 HD
ENDBRANCH  35  52
ENDBRANCH  28  29
ENDBRANCH   4  28
TORSDOF 16
ENDMDL
MODEL 7
REMARK VINA RESULT:      -6.3      2.811      8.716
REMARK  Name = 
REMARK  17 active torsions:
REMARK  status: ('A' for Active; 'I' for Inactive)
REMARK    1  A    between atoms: C_1  and  C_2
REMARK    2  A    between atoms: C_3  and  O_43
REMARK    3  A    between atoms: C_4  and  O_42
REMARK    4  A    between atoms: C_5  and  O_30
REMARK    5  A    between atoms: C_6  and  O_8
REMARK    6  A    between atoms: O_8  and  C_9
REMARK    7  A    between atoms: C_10  and  C_22
REMARK    8  A    between atoms: C_14  and  O_21
REMARK    9  A    between atoms: C_16  and  O_20
REMARK   10  A    between atoms: C_24  and  O_29
REMARK   11  A    between atoms: C_25  and  O_28
REMARK   12  A    between atoms: O_30  and  C_31
REMARK   13  A    between atoms: C_32  and  O_41
REMARK   14  A    between atoms: C_33  and  O_40
REMARK   15  A    between atoms: C_34  and  O_39
REMARK   16  A    between atoms: C_35  and  C_37
REMARK   17  A    between atoms: C_37  and  O_38
REMARK                            x       y       z     vdW  Elec       q    Type
REMARK                         _______ _______ _______ _____ _____    ______ ____
ROOT
ATOM      1  C   UNL     1      10.166  -0.598  22.205  0.00  0.00    +0.041 C 
ATOM      2  C   UNL     1      10.379   0.533  23.225  0.00  0.00    +0.150 C 
ATOM      3  O   UNL     1       9.948   0.218  24.561  0.00  0.00    -0.334 OA
ATOM      4  C   UNL     1       8.527   0.150  24.807  0.00  0.00    +0.340 C 
ATOM      5  C   UNL     1       7.724   1.392  24.135  0.00  0.00    +0.221 C 
ATOM      6  C   UNL     1       8.249   1.677  22.700  0.00  0.00    +0.180 C 
ATOM      7  C   UNL     1       9.767   1.846  22.743  0.00  0.00    +0.174 C 
ENDROOT
BRANCH   7   8
ATOM      8  O   UNL     1      10.277   2.239  21.463  0.00  0.00    -0.387 OA
ATOM      9  H   UNL     1      10.381   3.210  21.457  0.00  0.00    +0.210 HD
ENDBRANCH   7   8
BRANCH   6  10
ATOM     10  O   UNL     1       7.704   2.823  22.023  0.00  0.00    -0.386 OA
ATOM     11  H   UNL     1       7.944   3.619  22.534  0.00  0.00    +0.210 HD
ENDBRANCH   6  10
BRANCH   5  12
ATOM     12  O   UNL     1       7.845   2.576  24.937  0.00  0.00    -0.337 OA
BRANCH  12  13
ATOM     13  C   UNL     1       6.869   3.622  24.785  0.00  0.00    +0.282 C 
ATOM     14  O   UNL     1       7.533   4.713  24.136  0.00  0.00    -0.341 OA
ATOM     15  C   UNL     1       8.663   5.130  24.905  0.00  0.00    +0.178 C 
ATOM     16  C   UNL     1       8.200   5.738  26.241  0.00  0.00    +0.177 C 
ATOM     17  C   UNL     1       7.261   4.764  26.988  0.00  0.00    +0.179 C 
ATOM     18  C   UNL     1       6.197   4.160  26.064  0.00  0.00    +0.201 C 
BRANCH  18  19
ATOM     19  O   UNL     1       5.434   3.166  26.759  0.00  0.00    -0.384 OA
ATOM     20  H   UNL     1       6.066   2.487  27.064  0.00  0.00    +0.210 HD
ENDBRANCH  18  19
BRANCH  17  21
ATOM     21  O   UNL     1       6.570   5.453  28.048  0.00  0.00    -0.386 OA
ATOM     22  H   UNL     1       7.210   6.043  28.488  0.00  0.00    +0.210 HD
ENDBRANCH  17  21
BRANCH  16  23
ATOM     23  O   UNL     1       7.532   6.991  26.027  0.00  0.00    -0.386 OA
ATOM     24  H   UNL     1       8.003   7.674  26.542  0.00  0.00    +0.210 HD
ENDBRANCH  16  23
BRANCH  15  25
ATOM     25  C   UNL     1       9.501   6.027  24.009  0.00  0.00    +0.190 C 
BRANCH  25  26
ATOM     26  O   UNL     1      10.307   6.882  24.814  0.00  0.00    -0.392 OA
ATOM     27  H   UNL     1      10.760   7.488  24.200  0.00  0.00    +0.210 HD
ENDBRANCH  25  26
ENDBRANCH  15  25
ENDBRANCH  12  13
ENDBRANCH   5  12
BRANCH   4  28
ATOM     28  O   UNL     1       8.277   0.056  26.277  0.00  0.00    -0.453 OA
BRANCH  28  29
ATOM     29  C   UNL     1       7.102  -0.559  26.782  0.00  0.00    +0.214 A 
ATOM     30  C   UNL     1       6.241   0.202  27.787  0.00  0.00    +0.238 A 
ATOM     31  O   UNL     1       6.700   1.176  28.380  0.00  0.00    -0.283 OA
ATOM     32  C   UNL     1       4.893  -0.322  28.130  0.00  0.00    +0.109 A 
ATOM     33  C   UNL     1       4.649  -1.644  27.810  0.00  0.00    +0.147 A 
ATOM     34  C   UNL     1       3.437  -2.277  28.164  0.00  0.00    +0.092 A 
ATOM     35  C   UNL     1       2.451  -1.558  28.820  0.00  0.00    +0.124 A 
ATOM     36  C   UNL     1       2.662  -0.224  29.141  0.00  0.00    +0.091 A 
ATOM     37  O   UNL     1       5.592  -2.419  27.205  0.00  0.00    -0.451 OA
ATOM     38  C   UNL     1       3.884   0.389  28.810  0.00  0.00    +0.135 A 
ATOM     39  C   UNL     1       6.764  -1.885  26.630  0.00  0.00    +0.181 A 
BRANCH  39  40
ATOM     40  C   UNL     1       7.490  -3.052  25.943  0.00  0.00    +0.025 A 
ATOM     41  C   UNL     1       6.956  -3.564  24.715  0.00  0.00    +0.015 A 
ATOM     42  C   UNL     1       7.494  -4.655  24.014  0.00  0.00    +0.050 A 
ATOM     43  C   UNL     1       8.635  -5.256  24.507  0.00  0.00    +0.158 A 
ATOM     44  C   UNL     1       9.212  -4.774  25.681  0.00  0.00    +0.159 A 
ATOM     45  C   UNL     1       8.653  -3.696  26.414  0.00  0.00    +0.060 A 
BRANCH  44  46
ATOM     46  O   UNL     1      10.366  -5.400  26.056  0.00  0.00    -0.503 OA
ATOM     47  H   UNL     1      10.664  -5.999  25.341  0.00  0.00    +0.292 HD
ENDBRANCH  44  46
BRANCH  43  48
ATOM     48  O   UNL     1       9.166  -6.316  23.836  0.00  0.00    -0.503 OA
ATOM     49  H   UNL     1       9.722  -5.918  23.136  0.00  0.00    +0.292 HD
ENDBRANCH  43  48
ENDBRANCH  39  40
BRANCH  38  50
ATOM     50  O   UNL     1       4.049   1.702  29.154  0.00  0.00    -0.506 OA
ATOM     51  H   UNL     1       3.371   1.953  29.807  0.00  0.00    +0.292 HD
ENDBRANCH  38  50
BRANCH  35  52
ATOM     52  O   UNL     1       1.252  -2.107  29.177  0.00  0.00    -0.507 OA
ATOM     53  H   UNL     1       1.390  -2.971  29.603  0.00  0.00    +0.292 HD
ENDBRANCH  35  52
ENDBRANCH  28  29
ENDBRANCH   4  28
TORSDOF 16
ENDMDL
MODEL 8
REMARK VINA RESULT:      -6.1      2.468      7.486
REMARK  Name = 
REMARK  17 active torsions:
REMARK  status: ('A' for Active; 'I' for Inactive)
REMARK    1  A    between atoms: C_1  and  C_2
REMARK    2  A    between atoms: C_3  and  O_43
REMARK    3  A    between atoms: C_4  and  O_42
REMARK    4  A    between atoms: C_5  and  O_30
REMARK    5  A    between atoms: C_6  and  O_8
REMARK    6  A    between atoms: O_8  and  C_9
REMARK    7  A    between atoms: C_10  and  C_22
REMARK    8  A    between atoms: C_14  and  O_21
REMARK    9  A    between atoms: C_16  and  O_20
REMARK   10  A    between atoms: C_24  and  O_29
REMARK   11  A    between atoms: C_25  and  O_28
REMARK   12  A    between atoms: O_30  and  C_31
REMARK   13  A    between atoms: C_32  and  O_41
REMARK   14  A    between atoms: C_33  and  O_40
REMARK   15  A    between atoms: C_34  and  O_39
REMARK   16  A    between atoms: C_35  and  C_37
REMARK   17  A    between atoms: C_37  and  O_38
REMARK                            x       y       z     vdW  Elec       q    Type
REMARK                         _______ _______ _______ _____ _____    ______ ____
ROOT
ATOM      1  C   UNL     1       9.812   1.634  21.963  0.00  0.00    +0.041 C 
ATOM      2  C   UNL     1       8.640   0.713  22.340  0.00  0.00    +0.150 C 
ATOM      3  O   UNL     1       8.103   0.942  23.655  0.00  0.00    -0.334 OA
ATOM      4  C   UNL     1       8.901   0.528  24.785  0.00  0.00    +0.340 C 
ATOM      5  C   UNL     1       9.534  -0.955  24.584  0.00  0.00    +0.221 C 
ATOM      6  C   UNL     1      10.085  -1.129  23.142  0.00  0.00    +0.180 C 
ATOM      7  C   UNL     1       8.994  -0.758  22.137  0.00  0.00    +0.174 C 
ENDROOT
BRANCH   7   8
ATOM      8  O   UNL     1       9.417  -1.029  20.795  0.00  0.00    -0.387 OA
ATOM      9  H   UNL     1       9.282  -1.979  20.615  0.00  0.00    +0.210 HD
ENDBRANCH   7   8
BRANCH   6  10
ATOM     10  O   UNL     1      10.578  -2.432  22.786  0.00  0.00    -0.386 OA
ATOM     11  H   UNL     1      10.220  -3.077  23.426  0.00  0.00    +0.210 HD
ENDBRANCH   6  10
BRANCH   5  12
ATOM     12  O   UNL     1       8.557  -1.971  24.854  0.00  0.00    -0.337 OA
BRANCH  12  13
ATOM     13  C   UNL     1       8.925  -3.351  24.688  0.00  0.00    +0.282 C 
ATOM     14  O   UNL     1       8.331  -3.791  23.461  0.00  0.00    -0.341 OA
ATOM     15  C   UNL     1       6.915  -3.607  23.506  0.00  0.00    +0.178 C 
ATOM     16  C   UNL     1       6.291  -4.541  24.559  0.00  0.00    +0.177 C 
ATOM     17  C   UNL     1       6.988  -4.362  25.926  0.00  0.00    +0.179 C 
ATOM     18  C   UNL     1       8.516  -4.336  25.801  0.00  0.00    +0.201 C 
BRANCH  18  19
ATOM     19  O   UNL     1       9.118  -4.037  27.066  0.00  0.00    -0.384 OA
ATOM     20  H   UNL     1      10.037  -3.764  26.884  0.00  0.00    +0.210 HD
ENDBRANCH  18  19
BRANCH  17  21
ATOM     21  O   UNL     1       6.647  -5.453  26.804  0.00  0.00    -0.386 OA
ATOM     22  H   UNL     1       6.025  -5.113  27.475  0.00  0.00    +0.210 HD
ENDBRANCH  17  21
BRANCH  16  23
ATOM     23  O   UNL     1       6.381  -5.912  24.141  0.00  0.00    -0.386 OA
ATOM     24  H   UNL     1       5.816  -6.022  23.352  0.00  0.00    +0.210 HD
ENDBRANCH  16  23
BRANCH  15  25
ATOM     25  C   UNL     1       6.404  -3.758  22.082  0.00  0.00    +0.190 C 
BRANCH  25  26
ATOM     26  O   UNL     1       5.301  -2.881  21.877  0.00  0.00    -0.392 OA
ATOM     27  H   UNL     1       4.500  -3.398  22.078  0.00  0.00    +0.210 HD
ENDBRANCH  25  26
ENDBRANCH  15  25
ENDBRANCH  12  13
ENDBRANCH   5  12
BRANCH   4  28
ATOM     28  O   UNL     1       8.086   0.622  26.034  0.00  0.00    -0.453 OA
BRANCH  28  29
ATOM     29  C   UNL     1       6.754   1.110  26.004  0.00  0.00    +0.214 A 
ATOM     30  C   UNL     1       5.612   0.170  26.377  0.00  0.00    +0.238 A 
ATOM     31  O   UNL     1       5.794  -1.046  26.401  0.00  0.00    -0.283 OA
ATOM     32  C   UNL     1       4.251   0.731  26.587  0.00  0.00    +0.109 A 
ATOM     33  C   UNL     1       4.021   1.994  26.077  0.00  0.00    +0.147 A 
ATOM     34  C   UNL     1       2.745   2.594  26.139  0.00  0.00    +0.092 A 
ATOM     35  C   UNL     1       1.698   1.925  26.752  0.00  0.00    +0.124 A 
ATOM     36  C   UNL     1       1.903   0.660  27.287  0.00  0.00    +0.091 A 
ATOM     37  O   UNL     1       4.995   2.689  25.425  0.00  0.00    -0.451 OA
ATOM     38  C   UNL     1       3.171   0.059  27.194  0.00  0.00    +0.135 A 
ATOM     39  C   UNL     1       6.352   2.304  25.447  0.00  0.00    +0.181 A 
BRANCH  39  40
ATOM     40  C   UNL     1       7.135   3.403  24.713  0.00  0.00    +0.025 A 
ATOM     41  C   UNL     1       8.266   3.993  25.369  0.00  0.00    +0.015 A 
ATOM     42  C   UNL     1       9.035   5.037  24.831  0.00  0.00    +0.050 A 
ATOM     43  C   UNL     1       8.718   5.507  23.572  0.00  0.00    +0.158 A 
ATOM     44  C   UNL     1       7.648   4.944  22.879  0.00  0.00    +0.159 A 
ATOM     45  C   UNL     1       6.843   3.914  23.431  0.00  0.00    +0.060 A 
BRANCH  44  46
ATOM     46  O   UNL     1       7.449   5.439  21.622  0.00  0.00    -0.503 OA
ATOM     47  H   UNL     1       7.751   6.370  21.584  0.00  0.00    +0.292 HD
ENDBRANCH  44  46
BRANCH  43  48
ATOM     48  O   UNL     1       9.456   6.520  23.039  0.00  0.00    -0.503 OA
ATOM     49  H   UNL     1       9.894   6.128  22.257  0.00  0.00    +0.292 HD
ENDBRANCH  43  48
ENDBRANCH  39  40
BRANCH  38  50
ATOM     50  O   UNL     1       3.320  -1.191  27.728  0.00  0.00    -0.506 OA
ATOM     51  H   UNL     1       4.250  -1.468  27.648  0.00  0.00    +0.292 HD
ENDBRANCH  38  50
BRANCH  35  52
ATOM     52  O   UNL     1       0.444   2.456  26.859  0.00  0.00    -0.507 OA
ATOM     53  H   UNL     1       0.489   3.428  26.859  0.00  0.00    +0.292 HD
ENDBRANCH  35  52
ENDBRANCH  28  29
ENDBRANCH   4  28
TORSDOF 16
ENDMDL
MODEL 9
REMARK VINA RESULT:      -6.0      1.920      6.033
REMARK  Name = 
REMARK  17 active torsions:
REMARK  status: ('A' for Active; 'I' for Inactive)
REMARK    1  A    between atoms: C_1  and  C_2
REMARK    2  A    between atoms: C_3  and  O_43
REMARK    3  A    between atoms: C_4  and  O_42
REMARK    4  A    between atoms: C_5  and  O_30
REMARK    5  A    between atoms: C_6  and  O_8
REMARK    6  A    between atoms: O_8  and  C_9
REMARK    7  A    between atoms: C_10  and  C_22
REMARK    8  A    between atoms: C_14  and  O_21
REMARK    9  A    between atoms: C_16  and  O_20
REMARK   10  A    between atoms: C_24  and  O_29
REMARK   11  A    between atoms: C_25  and  O_28
REMARK   12  A    between atoms: O_30  and  C_31
REMARK   13  A    between atoms: C_32  and  O_41
REMARK   14  A    between atoms: C_33  and  O_40
REMARK   15  A    between atoms: C_34  and  O_39
REMARK   16  A    between atoms: C_35  and  C_37
REMARK   17  A    between atoms: C_37  and  O_38
REMARK                            x       y       z     vdW  Elec       q    Type
REMARK                         _______ _______ _______ _____ _____    ______ ____
ROOT
ATOM      1  C   UNL     1       7.781  -2.077  21.846  0.00  0.00    +0.041 C 
ATOM      2  C   UNL     1       6.548  -2.253  22.748  0.00  0.00    +0.150 C 
ATOM      3  O   UNL     1       6.742  -1.828  24.108  0.00  0.00    -0.334 OA
ATOM      4  C   UNL     1       7.580  -2.647  24.952  0.00  0.00    +0.340 C 
ATOM      5  C   UNL     1       7.250  -4.230  24.801  0.00  0.00    +0.221 C 
ATOM      6  C   UNL     1       7.047  -4.611  23.308  0.00  0.00    +0.180 C 
ATOM      7  C   UNL     1       6.007  -3.679  22.687  0.00  0.00    +0.174 C 
ENDROOT
BRANCH   7   8
ATOM      8  O   UNL     1       5.693  -4.079  21.346  0.00  0.00    -0.387 OA
ATOM      9  H   UNL     1       6.376  -4.707  21.044  0.00  0.00    +0.210 HD
ENDBRANCH   7   8
BRANCH   6  10
ATOM     10  O   UNL     1       6.639  -5.962  23.030  0.00  0.00    -0.386 OA
ATOM     11  H   UNL     1       6.246  -6.333  23.843  0.00  0.00    +0.210 HD
ENDBRANCH   6  10
BRANCH   5  12
ATOM     12  O   UNL     1       6.080  -4.585  25.553  0.00  0.00    -0.337 OA
BRANCH  12  13
ATOM     13  C   UNL     1       6.086  -5.808  26.310  0.00  0.00    +0.282 C 
ATOM     14  O   UNL     1       5.322  -6.760  25.560  0.00  0.00    -0.341 OA
ATOM     15  C   UNL     1       4.001  -6.265  25.334  0.00  0.00    +0.178 C 
ATOM     16  C   UNL     1       3.237  -6.166  26.667  0.00  0.00    +0.177 C 
ATOM     17  C   UNL     1       4.043  -5.347  27.698  0.00  0.00    +0.179 C 
ATOM     18  C   UNL     1       5.519  -5.760  27.744  0.00  0.00    +0.201 C 
BRANCH  18  19
ATOM     19  O   UNL     1       6.258  -4.892  28.611  0.00  0.00    -0.384 OA
ATOM     20  H   UNL     1       6.796  -5.463  29.192  0.00  0.00    +0.210 HD
ENDBRANCH  18  19
BRANCH  17  21
ATOM     21  O   UNL     1       3.502  -5.540  29.020  0.00  0.00    -0.386 OA
ATOM     22  H   UNL     1       3.999  -6.265  29.443  0.00  0.00    +0.210 HD
ENDBRANCH  17  21
BRANCH  16  23
ATOM     23  O   UNL     1       2.958  -7.473  27.192  0.00  0.00    -0.386 OA
ATOM     24  H   UNL     1       3.794  -7.978  27.199  0.00  0.00    +0.210 HD
ENDBRANCH  16  23
BRANCH  15  25
ATOM     25  C   UNL     1       3.377  -7.142  24.261  0.00  0.00    +0.190 C 
BRANCH  25  26
ATOM     26  O   UNL     1       3.882  -6.763  22.985  0.00  0.00    -0.392 OA
ATOM     27  H   UNL     1       3.496  -5.891  22.786  0.00  0.00    +0.210 HD
ENDBRANCH  25  26
ENDBRANCH  15  25
ENDBRANCH  12  13
ENDBRANCH   5  12
BRANCH   4  28
ATOM     28  O   UNL     1       7.465  -2.187  26.369  0.00  0.00    -0.453 OA
BRANCH  28  29
ATOM     29  C   UNL     1       6.719  -1.026  26.703  0.00  0.00    +0.214 A 
ATOM     30  C   UNL     1       5.434  -1.178  27.512  0.00  0.00    +0.238 A 
ATOM     31  O   UNL     1       4.891  -2.277  27.607  0.00  0.00    -0.283 OA
ATOM     32  C   UNL     1       4.784   0.034  28.075  0.00  0.00    +0.109 A 
ATOM     33  C   UNL     1       5.165   1.245  27.529  0.00  0.00    +0.147 A 
ATOM     34  C   UNL     1       4.555   2.456  27.922  0.00  0.00    +0.092 A 
ATOM     35  C   UNL     1       3.572   2.447  28.897  0.00  0.00    +0.124 A 
ATOM     36  C   UNL     1       3.178   1.247  29.474  0.00  0.00    +0.091 A 
ATOM     37  O   UNL     1       6.095   1.320  26.536  0.00  0.00    -0.451 OA
ATOM     38  C   UNL     1       3.772   0.043  29.055  0.00  0.00    +0.135 A 
ATOM     39  C   UNL     1       6.915   0.230  26.176  0.00  0.00    +0.181 A 
BRANCH  39  40
ATOM     40  C   UNL     1       7.904   0.752  25.121  0.00  0.00    +0.025 A 
ATOM     41  C   UNL     1       7.384   1.444  23.978  0.00  0.00    +0.015 A 
ATOM     42  C   UNL     1       8.172   1.927  22.922  0.00  0.00    +0.050 A 
ATOM     43  C   UNL     1       9.542   1.769  22.997  0.00  0.00    +0.158 A 
ATOM     44  C   UNL     1      10.100   1.133  24.104  0.00  0.00    +0.159 A 
ATOM     45  C   UNL     1       9.307   0.609  25.157  0.00  0.00    +0.060 A 
BRANCH  44  46
ATOM     46  O   UNL     1      11.463   1.074  24.110  0.00  0.00    -0.503 OA
ATOM     47  H   UNL     1      11.753   0.138  24.141  0.00  0.00    +0.292 HD
ENDBRANCH  44  46
BRANCH  43  48
ATOM     48  O   UNL     1      10.317   2.233  21.977  0.00  0.00    -0.503 OA
ATOM     49  H   UNL     1       9.780   2.930  21.549  0.00  0.00    +0.292 HD
ENDBRANCH  43  48
ENDBRANCH  39  40
BRANCH  38  50
ATOM     50  O   UNL     1       3.345  -1.114  29.647  0.00  0.00    -0.506 OA
ATOM     51  H   UNL     1       4.097  -1.722  29.749  0.00  0.00    +0.292 HD
ENDBRANCH  38  50
BRANCH  35  52
ATOM     52  O   UNL     1       2.953   3.585  29.332  0.00  0.00    -0.507 OA
ATOM     53  H   UNL     1       2.229   3.362  29.943  0.00  0.00    +0.292 HD
ENDBRANCH  35  52
ENDBRANCH  28  29
ENDBRANCH   4  28
TORSDOF 16
ENDMDL
