MODEL 1
REMARK VINA RESULT:      -7.4      0.000      0.000
REMARK  Name = 
REMARK  16 active torsions:
REMARK  status: ('A' for Active; 'I' for Inactive)
REMARK    1  A    between atoms: C_3  and  O_42
REMARK    2  A    between atoms: C_4  and  O_41
REMARK    3  A    between atoms: C_6  and  C_7
REMARK    4  A    between atoms: C_8  and  O_20
REMARK    5  A    between atoms: C_12  and  O_19
REMARK    6  A    between atoms: C_14  and  O_18
REMARK    7  A    between atoms: O_20  and  C_21
REMARK    8  A    between atoms: C_23  and  O_40
REMARK    9  A    between atoms: C_24  and  O_39
REMARK   10  A    between atoms: C_25  and  O_38
REMARK   11  A    between atoms: C_27  and  C_30
REMARK   12  A    between atoms: C_30  and  O_31
REMARK   13  A    between atoms: O_31  and  C_32
REMARK   14  A    between atoms: C_32  and  C_34
REMARK   15  A    between atoms: C_34  and  C_35
REMARK   16  A    between atoms: C_35  and  O_37
REMARK                            x       y       z     vdW  Elec       q    Type
REMARK                         _______ _______ _______ _____ _____    ______ ____
ROOT
ATOM      1  C   UNL     1       6.762  -1.045  25.210  0.00  0.00    +0.181 A 
ATOM      2  O   UNL     1       7.592   0.075  25.284  0.00  0.00    -0.451 OA
ATOM      3  C   UNL     1       8.470   0.368  24.286  0.00  0.00    +0.147 A 
ATOM      4  C   UNL     1       8.656  -0.456  23.196  0.00  0.00    +0.109 A 
ATOM      5  C   UNL     1       9.570  -0.060  22.205  0.00  0.00    +0.135 A 
ATOM      6  C   UNL     1      10.279   1.140  22.314  0.00  0.00    +0.091 A 
ATOM      7  C   UNL     1      10.082   1.944  23.425  0.00  0.00    +0.124 A 
ATOM      8  C   UNL     1       7.900  -1.717  23.139  0.00  0.00    +0.238 A 
ATOM      9  O   UNL     1       8.116  -2.519  22.236  0.00  0.00    -0.283 OA
ATOM     10  C   UNL     1       9.185   1.567  24.417  0.00  0.00    +0.092 A 
ATOM     11  C   UNL     1       6.841  -1.947  24.202  0.00  0.00    +0.214 A 
ENDROOT
BRANCH   1  13
ATOM     12  C   UNL     1       5.669  -1.941  27.350  0.00  0.00    +0.015 A 
ATOM     13  C   UNL     1       5.742  -1.003  26.311  0.00  0.00    +0.025 A 
ATOM     14  C   UNL     1       4.697  -0.056  26.252  0.00  0.00    +0.060 A 
ATOM     15  C   UNL     1       3.566  -0.197  27.048  0.00  0.00    +0.159 A 
ATOM     16  C   UNL     1       3.429  -1.284  27.896  0.00  0.00    +0.158 A 
ATOM     17  C   UNL     1       4.497  -2.140  28.089  0.00  0.00    +0.050 A 
BRANCH  16  18
ATOM     18  O   UNL     1       2.228  -1.474  28.513  0.00  0.00    -0.503 OA
ATOM     19  H   UNL     1       2.328  -1.202  29.442  0.00  0.00    +0.292 HD
ENDBRANCH  16  18
BRANCH  15  20
ATOM     20  O   UNL     1       2.563   0.721  26.948  0.00  0.00    -0.503 OA
ATOM     21  H   UNL     1       2.291   0.888  27.873  0.00  0.00    +0.292 HD
ENDBRANCH  15  20
ENDBRANCH   1  13
BRANCH   7  22
ATOM     22  O   UNL     1      10.759   3.119  23.594  0.00  0.00    -0.507 OA
ATOM     23  H   UNL     1      10.170   3.860  23.375  0.00  0.00    +0.292 HD
ENDBRANCH   7  22
BRANCH   5  24
ATOM     24  O   UNL     1       9.818  -0.800  21.079  0.00  0.00    -0.506 OA
ATOM     25  H   UNL     1       9.239  -0.467  20.357  0.00  0.00    +0.292 HD
ENDBRANCH   5  24
BRANCH  11  26
ATOM     26  O   UNL     1       6.178  -3.176  24.170  0.00  0.00    -0.453 OA
BRANCH  26  27
ATOM     27  C   UNL     1       4.886  -3.303  23.540  0.00  0.00    +0.340 C 
ATOM     28  O   UNL     1       3.922  -3.896  24.443  0.00  0.00    -0.330 OA
ATOM     29  C   UNL     1       4.184  -5.253  24.868  0.00  0.00    +0.191 C 
ATOM     30  C   UNL     1       4.605  -6.201  23.715  0.00  0.00    +0.178 C 
ATOM     31  C   UNL     1       5.518  -5.524  22.670  0.00  0.00    +0.180 C 
ATOM     32  C   UNL     1       4.894  -4.175  22.277  0.00  0.00    +0.214 C 
BRANCH  32  33
ATOM     33  O   UNL     1       5.553  -3.558  21.176  0.00  0.00    -0.383 OA
ATOM     34  H   UNL     1       6.466  -3.883  21.124  0.00  0.00    +0.210 HD
ENDBRANCH  32  33
BRANCH  31  35
ATOM     35  O   UNL     1       5.708  -6.383  21.538  0.00  0.00    -0.386 OA
ATOM     36  H   UNL     1       5.329  -7.254  21.730  0.00  0.00    +0.210 HD
ENDBRANCH  31  35
BRANCH  30  37
ATOM     37  O   UNL     1       5.163  -7.429  24.185  0.00  0.00    -0.386 OA
ATOM     38  H   UNL     1       6.131  -7.379  24.087  0.00  0.00    +0.210 HD
ENDBRANCH  30  37
BRANCH  29  39
ATOM     39  C   UNL     1       5.088  -5.245  26.113  0.00  0.00    +0.266 C 
BRANCH  39  40
ATOM     40  O   UNL     1       6.442  -5.655  25.867  0.00  0.00    -0.462 OA
BRANCH  40  41
ATOM     41  C   UNL     1       7.320  -5.440  26.886  0.00  0.00    +0.318 C 
ATOM     42  O   UNL     1       7.283  -5.996  27.977  0.00  0.00    -0.250 OA
BRANCH  41  43
ATOM     43  C   UNL     1       8.358  -4.432  26.496  0.00  0.00    +0.240 C 
BRANCH  43  44
ATOM     44  C   UNL     1       9.324  -4.969  25.485  0.00  0.00    +0.316 C 
ATOM     45  O   UNL     1       9.894  -4.309  24.630  0.00  0.00    -0.250 OA
BRANCH  44  46
ATOM     46  O   UNL     1       9.530  -6.302  25.610  0.00  0.00    -0.480 OA
ATOM     47  H   UNL     1       8.734  -6.825  25.819  0.00  0.00    +0.295 HD
ENDBRANCH  44  46
ENDBRANCH  43  44
ENDBRANCH  41  43
ENDBRANCH  40  41
ENDBRANCH  39  40
ENDBRANCH  29  39
ENDBRANCH  26  27
ENDBRANCH  11  26
TORSDOF 16
ENDMDL
MODEL 2
REMARK VINA RESULT:      -6.9      2.835      7.611
REMARK  Name = 
REMARK  16 active torsions:
REMARK  status: ('A' for Active; 'I' for Inactive)
REMARK    1  A    between atoms: C_3  and  O_42
REMARK    2  A    between atoms: C_4  and  O_41
REMARK    3  A    between atoms: C_6  and  C_7
REMARK    4  A    between atoms: C_8  and  O_20
REMARK    5  A    between atoms: C_12  and  O_19
REMARK    6  A    between atoms: C_14  and  O_18
REMARK    7  A    between atoms: O_20  and  C_21
REMARK    8  A    between atoms: C_23  and  O_40
REMARK    9  A    between atoms: C_24  and  O_39
REMARK   10  A    between atoms: C_25  and  O_38
REMARK   11  A    between atoms: C_27  and  C_30
REMARK   12  A    between atoms: C_30  and  O_31
REMARK   13  A    between atoms: O_31  and  C_32
REMARK   14  A    between atoms: C_32  and  C_34
REMARK   15  A    between atoms: C_34  and  C_35
REMARK   16  A    between atoms: C_35  and  O_37
REMARK                            x       y       z     vdW  Elec       q    Type
REMARK                         _______ _______ _______ _____ _____    ______ ____
ROOT
ATOM      1  C   UNL     1       7.367  -0.754  25.774  0.00  0.00    +0.181 A 
ATOM      2  O   UNL     1       6.826  -1.873  26.411  0.00  0.00    -0.451 OA
ATOM      3  C   UNL     1       7.438  -3.086  26.345  0.00  0.00    +0.147 A 
ATOM      4  C   UNL     1       8.568  -3.306  25.587  0.00  0.00    +0.109 A 
ATOM      5  C   UNL     1       9.144  -4.588  25.598  0.00  0.00    +0.135 A 
ATOM      6  C   UNL     1       8.589  -5.622  26.357  0.00  0.00    +0.091 A 
ATOM      7  C   UNL     1       7.446  -5.378  27.101  0.00  0.00    +0.124 A 
ATOM      8  C   UNL     1       9.101  -2.190  24.790  0.00  0.00    +0.238 A 
ATOM      9  O   UNL     1      10.044  -2.378  24.027  0.00  0.00    -0.283 OA
ATOM     10  C   UNL     1       6.861  -4.118  27.100  0.00  0.00    +0.092 A 
ATOM     11  C   UNL     1       8.468  -0.824  24.988  0.00  0.00    +0.214 A 
ENDROOT
BRANCH   1  13
ATOM     12  C   UNL     1       5.253   0.674  26.032  0.00  0.00    +0.015 A 
ATOM     13  C   UNL     1       6.632   0.485  26.197  0.00  0.00    +0.025 A 
ATOM     14  C   UNL     1       7.361   1.597  26.668  0.00  0.00    +0.060 A 
ATOM     15  C   UNL     1       6.769   2.852  26.747  0.00  0.00    +0.159 A 
ATOM     16  C   UNL     1       5.458   3.042  26.340  0.00  0.00    +0.158 A 
ATOM     17  C   UNL     1       4.675   1.949  26.023  0.00  0.00    +0.050 A 
BRANCH  16  18
ATOM     18  O   UNL     1       4.985   4.319  26.262  0.00  0.00    -0.503 OA
ATOM     19  H   UNL     1       5.563   4.881  26.808  0.00  0.00    +0.292 HD
ENDBRANCH  16  18
BRANCH  15  20
ATOM     20  O   UNL     1       7.509   3.912  27.181  0.00  0.00    -0.503 OA
ATOM     21  H   UNL     1       8.432   3.667  26.972  0.00  0.00    +0.292 HD
ENDBRANCH  15  20
ENDBRANCH   1  13
BRANCH   7  22
ATOM     22  O   UNL     1       6.850  -6.354  27.849  0.00  0.00    -0.507 OA
ATOM     23  H   UNL     1       6.058  -6.673  27.385  0.00  0.00    +0.292 HD
ENDBRANCH   7  22
BRANCH   5  24
ATOM     24  O   UNL     1      10.272  -4.907  24.889  0.00  0.00    -0.506 OA
ATOM     25  H   UNL     1      10.746  -4.074  24.673  0.00  0.00    +0.292 HD
ENDBRANCH   5  24
BRANCH  11  26
ATOM     26  O   UNL     1       8.944   0.210  24.178  0.00  0.00    -0.453 OA
BRANCH  26  27
ATOM     27  C   UNL     1       8.761   0.173  22.748  0.00  0.00    +0.340 C 
ATOM     28  O   UNL     1       9.632   1.122  22.087  0.00  0.00    -0.330 OA
ATOM     29  C   UNL     1       9.410   2.519  22.383  0.00  0.00    +0.191 C 
ATOM     30  C   UNL     1       7.917   2.937  22.352  0.00  0.00    +0.178 C 
ATOM     31  C   UNL     1       6.969   1.861  22.924  0.00  0.00    +0.180 C 
ATOM     32  C   UNL     1       7.332   0.506  22.296  0.00  0.00    +0.214 C 
BRANCH  32  33
ATOM     33  O   UNL     1       6.394  -0.519  22.608  0.00  0.00    -0.383 OA
ATOM     34  H   UNL     1       6.707  -1.018  23.380  0.00  0.00    +0.210 HD
ENDBRANCH  32  33
BRANCH  31  35
ATOM     35  O   UNL     1       5.602   2.219  22.688  0.00  0.00    -0.386 OA
ATOM     36  H   UNL     1       5.523   2.619  21.808  0.00  0.00    +0.210 HD
ENDBRANCH  31  35
BRANCH  30  37
ATOM     37  O   UNL     1       7.688   4.213  22.950  0.00  0.00    -0.386 OA
ATOM     38  H   UNL     1       7.857   4.135  23.906  0.00  0.00    +0.210 HD
ENDBRANCH  30  37
BRANCH  29  39
ATOM     39  C   UNL     1      10.208   2.922  23.635  0.00  0.00    +0.266 C 
BRANCH  39  40
ATOM     40  O   UNL     1      11.274   3.850  23.387  0.00  0.00    -0.462 OA
BRANCH  40  41
ATOM     41  C   UNL     1      11.015   5.149  23.706  0.00  0.00    +0.318 C 
ATOM     42  O   UNL     1       9.903   5.609  23.936  0.00  0.00    -0.250 OA
BRANCH  41  43
ATOM     43  C   UNL     1      12.278   5.953  23.752  0.00  0.00    +0.240 C 
BRANCH  43  44
ATOM     44  C   UNL     1      13.273   5.513  22.724  0.00  0.00    +0.316 C 
ATOM     45  O   UNL     1      13.180   5.701  21.521  0.00  0.00    -0.250 OA
BRANCH  44  46
ATOM     46  O   UNL     1      14.336   4.869  23.263  0.00  0.00    -0.480 OA
ATOM     47  H   UNL     1      14.954   5.437  23.761  0.00  0.00    +0.295 HD
ENDBRANCH  44  46
ENDBRANCH  43  44
ENDBRANCH  41  43
ENDBRANCH  40  41
ENDBRANCH  39  40
ENDBRANCH  29  39
ENDBRANCH  26  27
ENDBRANCH  11  26
TORSDOF 16
ENDMDL
MODEL 3
REMARK VINA RESULT:      -6.9      2.489      7.437
REMARK  Name = 
REMARK  16 active torsions:
REMARK  status: ('A' for Active; 'I' for Inactive)
REMARK    1  A    between atoms: C_3  and  O_42
REMARK    2  A    between atoms: C_4  and  O_41
REMARK    3  A    between atoms: C_6  and  C_7
REMARK    4  A    between atoms: C_8  and  O_20
REMARK    5  A    between atoms: C_12  and  O_19
REMARK    6  A    between atoms: C_14  and  O_18
REMARK    7  A    between atoms: O_20  and  C_21
REMARK    8  A    between atoms: C_23  and  O_40
REMARK    9  A    between atoms: C_24  and  O_39
REMARK   10  A    between atoms: C_25  and  O_38
REMARK   11  A    between atoms: C_27  and  C_30
REMARK   12  A    between atoms: C_30  and  O_31
REMARK   13  A    between atoms: O_31  and  C_32
REMARK   14  A    between atoms: C_32  and  C_34
REMARK   15  A    between atoms: C_34  and  C_35
REMARK   16  A    between atoms: C_35  and  O_37
REMARK                            x       y       z     vdW  Elec       q    Type
REMARK                         _______ _______ _______ _____ _____    ______ ____
ROOT
ATOM      1  C   UNL     1       5.545  -0.814  25.683  0.00  0.00    +0.181 A 
ATOM      2  O   UNL     1       4.395  -1.550  25.976  0.00  0.00    -0.451 OA
ATOM      3  C   UNL     1       4.056  -2.646  25.244  0.00  0.00    +0.147 A 
ATOM      4  C   UNL     1       4.766  -3.045  24.131  0.00  0.00    +0.109 A 
ATOM      5  C   UNL     1       4.353  -4.203  23.451  0.00  0.00    +0.135 A 
ATOM      6  C   UNL     1       3.248  -4.940  23.886  0.00  0.00    +0.091 A 
ATOM      7  C   UNL     1       2.544  -4.512  25.000  0.00  0.00    +0.124 A 
ATOM      8  C   UNL     1       5.909  -2.222  23.703  0.00  0.00    +0.238 A 
ATOM      9  O   UNL     1       6.499  -2.490  22.661  0.00  0.00    -0.283 OA
ATOM     10  C   UNL     1       2.936  -3.367  25.684  0.00  0.00    +0.092 A 
ATOM     11  C   UNL     1       6.332  -1.084  24.614  0.00  0.00    +0.214 A 
ENDROOT
BRANCH   1  13
ATOM     12  C   UNL     1       5.166   1.430  26.865  0.00  0.00    +0.015 A 
ATOM     13  C   UNL     1       5.806   0.186  26.772  0.00  0.00    +0.025 A 
ATOM     14  C   UNL     1       6.848  -0.049  27.694  0.00  0.00    +0.060 A 
ATOM     15  C   UNL     1       7.337   0.981  28.490  0.00  0.00    +0.159 A 
ATOM     16  C   UNL     1       6.831   2.265  28.375  0.00  0.00    +0.158 A 
ATOM     17  C   UNL     1       5.711   2.492  27.597  0.00  0.00    +0.050 A 
BRANCH  16  18
ATOM     18  O   UNL     1       7.467   3.272  29.039  0.00  0.00    -0.503 OA
ATOM     19  H   UNL     1       6.787   3.897  29.346  0.00  0.00    +0.292 HD
ENDBRANCH  16  18
BRANCH  15  20
ATOM     20  O   UNL     1       8.363   0.726  29.352  0.00  0.00    -0.503 OA
ATOM     21  H   UNL     1       8.370  -0.248  29.443  0.00  0.00    +0.292 HD
ENDBRANCH  15  20
ENDBRANCH   1  13
BRANCH   7  22
ATOM     22  O   UNL     1       1.447  -5.182  25.462  0.00  0.00    -0.507 OA
ATOM     23  H   UNL     1       0.966  -4.615  26.088  0.00  0.00    +0.292 HD
ENDBRANCH   7  22
BRANCH   5  24
ATOM     24  O   UNL     1       4.996  -4.688  22.344  0.00  0.00    -0.506 OA
ATOM     25  H   UNL     1       5.885  -5.005  22.617  0.00  0.00    +0.292 HD
ENDBRANCH   5  24
BRANCH  11  26
ATOM     26  O   UNL     1       7.378  -0.276  24.162  0.00  0.00    -0.453 OA
BRANCH  26  27
ATOM     27  C   UNL     1       8.737  -0.523  24.578  0.00  0.00    +0.340 C 
ATOM     28  O   UNL     1       9.393   0.705  24.973  0.00  0.00    -0.330 OA
ATOM     29  C   UNL     1       9.571   1.704  23.943  0.00  0.00    +0.191 C 
ATOM     30  C   UNL     1      10.100   1.132  22.601  0.00  0.00    +0.178 C 
ATOM     31  C   UNL     1       9.509  -0.249  22.250  0.00  0.00    +0.180 C 
ATOM     32  C   UNL     1       9.615  -1.155  23.487  0.00  0.00    +0.214 C 
BRANCH  32  33
ATOM     33  O   UNL     1       9.277  -2.511  23.214  0.00  0.00    -0.383 OA
ATOM     34  H   UNL     1       8.936  -2.582  22.308  0.00  0.00    +0.210 HD
ENDBRANCH  32  33
BRANCH  31  35
ATOM     35  O   UNL     1      10.179  -0.808  21.112  0.00  0.00    -0.386 OA
ATOM     36  H   UNL     1      11.026  -1.188  21.394  0.00  0.00    +0.210 HD
ENDBRANCH  31  35
BRANCH  30  37
ATOM     37  O   UNL     1       9.966   2.054  21.518  0.00  0.00    -0.386 OA
ATOM     38  H   UNL     1      10.676   1.872  20.876  0.00  0.00    +0.210 HD
ENDBRANCH  30  37
BRANCH  29  39
ATOM     39  C   UNL     1       8.322   2.599  23.861  0.00  0.00    +0.266 C 
BRANCH  39  40
ATOM     40  O   UNL     1       8.574   3.927  23.379  0.00  0.00    -0.462 OA
BRANCH  40  41
ATOM     41  C   UNL     1       8.952   4.837  24.319  0.00  0.00    +0.318 C 
ATOM     42  O   UNL     1       8.641   4.798  25.503  0.00  0.00    -0.250 OA
BRANCH  41  43
ATOM     43  C   UNL     1       9.817   5.902  23.718  0.00  0.00    +0.240 C 
BRANCH  43  44
ATOM     44  C   UNL     1      11.257   5.496  23.646  0.00  0.00    +0.316 C 
ATOM     45  O   UNL     1      12.185   6.077  24.186  0.00  0.00    -0.250 OA
BRANCH  44  46
ATOM     46  O   UNL     1      11.451   4.376  22.909  0.00  0.00    -0.480 OA
ATOM     47  H   UNL     1      11.667   4.531  21.970  0.00  0.00    +0.295 HD
ENDBRANCH  44  46
ENDBRANCH  43  44
ENDBRANCH  41  43
ENDBRANCH  40  41
ENDBRANCH  39  40
ENDBRANCH  29  39
ENDBRANCH  26  27
ENDBRANCH  11  26
TORSDOF 16
ENDMDL
MODEL 4
REMARK VINA RESULT:      -6.7      2.771      8.592
REMARK  Name = 
REMARK  16 active torsions:
REMARK  status: ('A' for Active; 'I' for Inactive)
REMARK    1  A    between atoms: C_3  and  O_42
REMARK    2  A    between atoms: C_4  and  O_41
REMARK    3  A    between atoms: C_6  and  C_7
REMARK    4  A    between atoms: C_8  and  O_20
REMARK    5  A    between atoms: C_12  and  O_19
REMARK    6  A    between atoms: C_14  and  O_18
REMARK    7  A    between atoms: O_20  and  C_21
REMARK    8  A    between atoms: C_23  and  O_40
REMARK    9  A    between atoms: C_24  and  O_39
REMARK   10  A    between atoms: C_25  and  O_38
REMARK   11  A    between atoms: C_27  and  C_30
REMARK   12  A    between atoms: C_30  and  O_31
REMARK   13  A    between atoms: O_31  and  C_32
REMARK   14  A    between atoms: C_32  and  C_34
REMARK   15  A    between atoms: C_34  and  C_35
REMARK   16  A    between atoms: C_35  and  O_37
REMARK                            x       y       z     vdW  Elec       q    Type
REMARK                         _______ _______ _______ _____ _____    ______ ____
ROOT
ATOM      1  C   UNL     1       7.856  -0.531  25.349  0.00  0.00    +0.181 A 
ATOM      2  O   UNL     1       8.245  -1.834  25.665  0.00  0.00    -0.451 OA
ATOM      3  C   UNL     1       7.428  -2.661  26.372  0.00  0.00    +0.147 A 
ATOM      4  C   UNL     1       6.218  -2.246  26.886  0.00  0.00    +0.109 A 
ATOM      5  C   UNL     1       5.431  -3.178  27.584  0.00  0.00    +0.135 A 
ATOM      6  C   UNL     1       5.859  -4.498  27.758  0.00  0.00    +0.091 A 
ATOM      7  C   UNL     1       7.084  -4.886  27.241  0.00  0.00    +0.124 A 
ATOM      8  C   UNL     1       5.824  -0.841  26.694  0.00  0.00    +0.238 A 
ATOM      9  O   UNL     1       4.804  -0.414  27.225  0.00  0.00    -0.283 OA
ATOM     10  C   UNL     1       7.877  -3.978  26.550  0.00  0.00    +0.092 A 
ATOM     11  C   UNL     1       6.699   0.014  25.796  0.00  0.00    +0.214 A 
ENDROOT
BRANCH   1  13
ATOM     12  C   UNL     1      10.044   0.665  24.749  0.00  0.00    +0.015 A 
ATOM     13  C   UNL     1       8.828   0.075  24.378  0.00  0.00    +0.025 A 
ATOM     14  C   UNL     1       8.467   0.196  23.019  0.00  0.00    +0.060 A 
ATOM     15  C   UNL     1       9.175   1.036  22.168  0.00  0.00    +0.159 A 
ATOM     16  C   UNL     1      10.234   1.793  22.642  0.00  0.00    +0.158 A 
ATOM     17  C   UNL     1      10.707   1.581  23.923  0.00  0.00    +0.050 A 
BRANCH  16  18
ATOM     18  O   UNL     1      10.775   2.735  21.817  0.00  0.00    -0.503 OA
ATOM     19  H   UNL     1      11.322   3.326  22.365  0.00  0.00    +0.292 HD
ENDBRANCH  16  18
BRANCH  15  20
ATOM     20  O   UNL     1       8.784   1.150  20.867  0.00  0.00    -0.503 OA
ATOM     21  H   UNL     1       9.614   1.305  20.374  0.00  0.00    +0.292 HD
ENDBRANCH  15  20
ENDBRANCH   1  13
BRANCH   7  22
ATOM     22  O   UNL     1       7.561  -6.157  27.393  0.00  0.00    -0.507 OA
ATOM     23  H   UNL     1       7.071  -6.599  28.107  0.00  0.00    +0.292 HD
ENDBRANCH   7  22
BRANCH   5  24
ATOM     24  O   UNL     1       4.211  -2.870  28.124  0.00  0.00    -0.506 OA
ATOM     25  H   UNL     1       4.358  -2.341  28.939  0.00  0.00    +0.292 HD
ENDBRANCH   5  24
BRANCH  11  26
ATOM     26  O   UNL     1       6.345   1.360  25.675  0.00  0.00    -0.453 OA
BRANCH  26  27
ATOM     27  C   UNL     1       5.508   1.811  24.589  0.00  0.00    +0.340 C 
ATOM     28  O   UNL     1       6.218   2.740  23.735  0.00  0.00    -0.330 OA
ATOM     29  C   UNL     1       6.627   3.989  24.338  0.00  0.00    +0.191 C 
ATOM     30  C   UNL     1       5.521   4.664  25.191  0.00  0.00    +0.178 C 
ATOM     31  C   UNL     1       4.667   3.659  25.992  0.00  0.00    +0.180 C 
ATOM     32  C   UNL     1       4.231   2.527  25.047  0.00  0.00    +0.214 C 
BRANCH  32  33
ATOM     33  O   UNL     1       3.277   1.649  25.636  0.00  0.00    -0.383 OA
ATOM     34  H   UNL     1       3.150   0.878  25.060  0.00  0.00    +0.210 HD
ENDBRANCH  32  33
BRANCH  31  35
ATOM     35  O   UNL     1       3.549   4.319  26.598  0.00  0.00    -0.386 OA
ATOM     36  H   UNL     1       3.793   5.235  26.807  0.00  0.00    +0.210 HD
ENDBRANCH  31  35
BRANCH  30  37
ATOM     37  O   UNL     1       6.028   5.707  26.026  0.00  0.00    -0.386 OA
ATOM     38  H   UNL     1       6.861   6.029  25.636  0.00  0.00    +0.210 HD
ENDBRANCH  30  37
BRANCH  29  39
ATOM     39  C   UNL     1       8.002   3.821  25.006  0.00  0.00    +0.266 C 
BRANCH  39  40
ATOM     40  O   UNL     1       9.030   4.667  24.471  0.00  0.00    -0.462 OA
BRANCH  40  41
ATOM     41  C   UNL     1       9.368   5.744  25.233  0.00  0.00    +0.318 C 
ATOM     42  O   UNL     1       8.987   5.943  26.380  0.00  0.00    -0.250 OA
BRANCH  41  43
ATOM     43  C   UNL     1      10.284   6.665  24.486  0.00  0.00    +0.240 C 
BRANCH  43  44
ATOM     44  C   UNL     1      11.530   5.977  24.022  0.00  0.00    +0.316 C 
ATOM     45  O   UNL     1      12.628   6.066  24.550  0.00  0.00    -0.250 OA
BRANCH  44  46
ATOM     46  O   UNL     1      11.329   5.207  22.925  0.00  0.00    -0.480 OA
ATOM     47  H   UNL     1      10.947   5.673  22.157  0.00  0.00    +0.295 HD
ENDBRANCH  44  46
ENDBRANCH  43  44
ENDBRANCH  41  43
ENDBRANCH  40  41
ENDBRANCH  39  40
ENDBRANCH  29  39
ENDBRANCH  26  27
ENDBRANCH  11  26
TORSDOF 16
ENDMDL
MODEL 5
REMARK VINA RESULT:      -6.7      1.609      4.546
REMARK  Name = 
REMARK  16 active torsions:
REMARK  status: ('A' for Active; 'I' for Inactive)
REMARK    1  A    between atoms: C_3  and  O_42
REMARK    2  A    between atoms: C_4  and  O_41
REMARK    3  A    between atoms: C_6  and  C_7
REMARK    4  A    between atoms: C_8  and  O_20
REMARK    5  A    between atoms: C_12  and  O_19
REMARK    6  A    between atoms: C_14  and  O_18
REMARK    7  A    between atoms: O_20  and  C_21
REMARK    8  A    between atoms: C_23  and  O_40
REMARK    9  A    between atoms: C_24  and  O_39
REMARK   10  A    between atoms: C_25  and  O_38
REMARK   11  A    between atoms: C_27  and  C_30
REMARK   12  A    between atoms: C_30  and  O_31
REMARK   13  A    between atoms: O_31  and  C_32
REMARK   14  A    between atoms: C_32  and  C_34
REMARK   15  A    between atoms: C_34  and  C_35
REMARK   16  A    between atoms: C_35  and  O_37
REMARK                            x       y       z     vdW  Elec       q    Type
REMARK                         _______ _______ _______ _____ _____    ______ ____
ROOT
ATOM      1  C   UNL     1       6.454  -1.540  23.461  0.00  0.00    +0.181 A 
ATOM      2  O   UNL     1       7.395  -0.915  22.642  0.00  0.00    -0.451 OA
ATOM      3  C   UNL     1       7.926   0.293  22.974  0.00  0.00    +0.147 A 
ATOM      4  C   UNL     1       7.513   1.006  24.079  0.00  0.00    +0.109 A 
ATOM      5  C   UNL     1       8.136   2.236  24.355  0.00  0.00    +0.135 A 
ATOM      6  C   UNL     1       9.151   2.732  23.532  0.00  0.00    +0.091 A 
ATOM      7  C   UNL     1       9.539   2.001  22.420  0.00  0.00    +0.124 A 
ATOM      8  C   UNL     1       6.427   0.450  24.902  0.00  0.00    +0.238 A 
ATOM      9  O   UNL     1       5.967   1.104  25.832  0.00  0.00    -0.283 OA
ATOM     10  C   UNL     1       8.933   0.785  22.130  0.00  0.00    +0.092 A 
ATOM     11  C   UNL     1       5.950  -0.953  24.574  0.00  0.00    +0.214 A 
ENDROOT
BRANCH   1  13
ATOM     12  C   UNL     1       4.941  -3.498  22.785  0.00  0.00    +0.015 A 
ATOM     13  C   UNL     1       6.213  -2.945  22.989  0.00  0.00    +0.025 A 
ATOM     14  C   UNL     1       7.304  -3.831  22.864  0.00  0.00    +0.060 A 
ATOM     15  C   UNL     1       7.098  -5.202  22.762  0.00  0.00    +0.159 A 
ATOM     16  C   UNL     1       5.818  -5.729  22.808  0.00  0.00    +0.158 A 
ATOM     17  C   UNL     1       4.727  -4.881  22.773  0.00  0.00    +0.050 A 
BRANCH  16  18
ATOM     18  O   UNL     1       5.680  -7.084  22.891  0.00  0.00    -0.503 OA
ATOM     19  H   UNL     1       4.750  -7.297  22.696  0.00  0.00    +0.292 HD
ENDBRANCH  16  18
BRANCH  15  20
ATOM     20  O   UNL     1       8.175  -6.033  22.669  0.00  0.00    -0.503 OA
ATOM     21  H   UNL     1       8.649  -5.731  21.869  0.00  0.00    +0.292 HD
ENDBRANCH  15  20
ENDBRANCH   1  13
BRANCH   7  22
ATOM     22  O   UNL     1      10.513   2.443  21.571  0.00  0.00    -0.507 OA
ATOM     23  H   UNL     1      10.625   3.402  21.684  0.00  0.00    +0.292 HD
ENDBRANCH   7  22
BRANCH   5  24
ATOM     24  O   UNL     1       7.807   3.014  25.433  0.00  0.00    -0.506 OA
ATOM     25  H   UNL     1       8.417   3.785  25.454  0.00  0.00    +0.292 HD
ENDBRANCH   5  24
BRANCH  11  26
ATOM     26  O   UNL     1       4.876  -1.441  25.323  0.00  0.00    -0.453 OA
BRANCH  26  27
ATOM     27  C   UNL     1       4.742  -1.114  26.722  0.00  0.00    +0.340 C 
ATOM     28  O   UNL     1       5.339  -2.135  27.556  0.00  0.00    -0.330 OA
ATOM     29  C   UNL     1       4.741  -3.450  27.496  0.00  0.00    +0.191 C 
ATOM     30  C   UNL     1       3.191  -3.437  27.560  0.00  0.00    +0.178 C 
ATOM     31  C   UNL     1       2.557  -2.261  26.789  0.00  0.00    +0.180 C 
ATOM     32  C   UNL     1       3.286  -0.967  27.187  0.00  0.00    +0.214 C 
BRANCH  32  33
ATOM     33  O   UNL     1       2.653   0.205  26.682  0.00  0.00    -0.383 OA
ATOM     34  H   UNL     1       3.275   0.949  26.721  0.00  0.00    +0.210 HD
ENDBRANCH  32  33
BRANCH  31  35
ATOM     35  O   UNL     1       1.150  -2.190  27.048  0.00  0.00    -0.386 OA
ATOM     36  H   UNL     1       0.855  -1.269  26.973  0.00  0.00    +0.210 HD
ENDBRANCH  31  35
BRANCH  30  37
ATOM     37  O   UNL     1       2.613  -4.688  27.182  0.00  0.00    -0.386 OA
ATOM     38  H   UNL     1       2.283  -5.125  27.987  0.00  0.00    +0.210 HD
ENDBRANCH  30  37
BRANCH  29  39
ATOM     39  C   UNL     1       5.374  -4.260  26.351  0.00  0.00    +0.266 C 
BRANCH  39  40
ATOM     40  O   UNL     1       6.777  -4.027  26.163  0.00  0.00    -0.462 OA
BRANCH  40  41
ATOM     41  C   UNL     1       7.612  -4.924  26.757  0.00  0.00    +0.318 C 
ATOM     42  O   UNL     1       7.257  -5.963  27.302  0.00  0.00    -0.250 OA
BRANCH  41  43
ATOM     43  C   UNL     1       9.039  -4.482  26.653  0.00  0.00    +0.240 C 
BRANCH  43  44
ATOM     44  C   UNL     1       9.717  -5.026  25.433  0.00  0.00    +0.316 C 
ATOM     45  O   UNL     1      10.234  -4.356  24.552  0.00  0.00    -0.250 OA
BRANCH  44  46
ATOM     46  O   UNL     1       9.720  -6.380  25.393  0.00  0.00    -0.480 OA
ATOM     47  H   UNL     1       8.837  -6.795  25.385  0.00  0.00    +0.295 HD
ENDBRANCH  44  46
ENDBRANCH  43  44
ENDBRANCH  41  43
ENDBRANCH  40  41
ENDBRANCH  39  40
ENDBRANCH  29  39
ENDBRANCH  26  27
ENDBRANCH  11  26
TORSDOF 16
ENDMDL
MODEL 6
REMARK VINA RESULT:      -6.6      1.173      2.107
REMARK  Name = 
REMARK  16 active torsions:
REMARK  status: ('A' for Active; 'I' for Inactive)
REMARK    1  A    between atoms: C_3  and  O_42
REMARK    2  A    between atoms: C_4  and  O_41
REMARK    3  A    between atoms: C_6  and  C_7
REMARK    4  A    between atoms: C_8  and  O_20
REMARK    5  A    between atoms: C_12  and  O_19
REMARK    6  A    between atoms: C_14  and  O_18
REMARK    7  A    between atoms: O_20  and  C_21
REMARK    8  A    between atoms: C_23  and  O_40
REMARK    9  A    between atoms: C_24  and  O_39
REMARK   10  A    between atoms: C_25  and  O_38
REMARK   11  A    between atoms: C_27  and  C_30
REMARK   12  A    between atoms: C_30  and  O_31
REMARK   13  A    between atoms: O_31  and  C_32
REMARK   14  A    between atoms: C_32  and  C_34
REMARK   15  A    between atoms: C_34  and  C_35
REMARK   16  A    between atoms: C_35  and  O_37
REMARK                            x       y       z     vdW  Elec       q    Type
REMARK                         _______ _______ _______ _____ _____    ______ ____
ROOT
ATOM      1  C   UNL     1       6.544  -1.199  25.334  0.00  0.00    +0.181 A 
ATOM      2  O   UNL     1       7.464  -0.152  25.423  0.00  0.00    -0.451 OA
ATOM      3  C   UNL     1       8.479  -0.029  24.526  0.00  0.00    +0.147 A 
ATOM      4  C   UNL     1       8.714  -0.961  23.538  0.00  0.00    +0.109 A 
ATOM      5  C   UNL     1       9.774  -0.738  22.643  0.00  0.00    +0.135 A 
ATOM      6  C   UNL     1      10.578   0.401  22.746  0.00  0.00    +0.091 A 
ATOM      7  C   UNL     1      10.329   1.317  23.755  0.00  0.00    +0.124 A 
ATOM      8  C   UNL     1       7.852  -2.153  23.486  0.00  0.00    +0.238 A 
ATOM      9  O   UNL     1       8.096  -3.050  22.685  0.00  0.00    -0.283 OA
ATOM     10  C   UNL     1       9.287   1.111  24.651  0.00  0.00    +0.092 A 
ATOM     11  C   UNL     1       6.656  -2.192  24.420  0.00  0.00    +0.214 A 
ENDROOT
BRANCH   1  13
ATOM     12  C   UNL     1       4.703   0.240  26.392  0.00  0.00    +0.015 A 
ATOM     13  C   UNL     1       5.408  -0.968  26.288  0.00  0.00    +0.025 A 
ATOM     14  C   UNL     1       5.093  -1.957  27.244  0.00  0.00    +0.060 A 
ATOM     15  C   UNL     1       4.294  -1.655  28.341  0.00  0.00    +0.159 A 
ATOM     16  C   UNL     1       3.812  -0.371  28.532  0.00  0.00    +0.158 A 
ATOM     17  C   UNL     1       3.973   0.576  27.538  0.00  0.00    +0.050 A 
BRANCH  16  18
ATOM     18  O   UNL     1       3.192  -0.083  29.712  0.00  0.00    -0.503 OA
ATOM     19  H   UNL     1       3.393  -0.805  30.334  0.00  0.00    +0.292 HD
ENDBRANCH  16  18
BRANCH  15  20
ATOM     20  O   UNL     1       4.030  -2.627  29.260  0.00  0.00    -0.503 OA
ATOM     21  H   UNL     1       4.520  -3.409  28.936  0.00  0.00    +0.292 HD
ENDBRANCH  15  20
ENDBRANCH   1  13
BRANCH   7  22
ATOM     22  O   UNL     1      11.091   2.439  23.914  0.00  0.00    -0.507 OA
ATOM     23  H   UNL     1      10.507   3.208  24.031  0.00  0.00    +0.292 HD
ENDBRANCH   7  22
BRANCH   5  24
ATOM     24  O   UNL     1      10.083  -1.597  21.622  0.00  0.00    -0.506 OA
ATOM     25  H   UNL     1      10.042  -1.098  20.776  0.00  0.00    +0.292 HD
ENDBRANCH   5  24
BRANCH  11  26
ATOM     26  O   UNL     1       5.885  -3.357  24.401  0.00  0.00    -0.453 OA
BRANCH  26  27
ATOM     27  C   UNL     1       4.657  -3.420  23.646  0.00  0.00    +0.340 C 
ATOM     28  O   UNL     1       3.587  -3.989  24.437  0.00  0.00    -0.330 OA
ATOM     29  C   UNL     1       3.752  -5.362  24.857  0.00  0.00    +0.191 C 
ATOM     30  C   UNL     1       4.248  -6.307  23.731  0.00  0.00    +0.178 C 
ATOM     31  C   UNL     1       5.285  -5.651  22.795  0.00  0.00    +0.180 C 
ATOM     32  C   UNL     1       4.756  -4.271  22.371  0.00  0.00    +0.214 C 
BRANCH  32  33
ATOM     33  O   UNL     1       5.545  -3.663  21.353  0.00  0.00    -0.383 OA
ATOM     34  H   UNL     1       6.287  -4.246  21.129  0.00  0.00    +0.210 HD
ENDBRANCH  32  33
BRANCH  31  35
ATOM     35  O   UNL     1       5.552  -6.496  21.670  0.00  0.00    -0.386 OA
ATOM     36  H   UNL     1       5.584  -5.957  20.864  0.00  0.00    +0.210 HD
ENDBRANCH  31  35
BRANCH  30  37
ATOM     37  O   UNL     1       4.708  -7.564  24.228  0.00  0.00    -0.386 OA
ATOM     38  H   UNL     1       5.676  -7.516  24.325  0.00  0.00    +0.210 HD
ENDBRANCH  30  37
BRANCH  29  39
ATOM     39  C   UNL     1       4.528  -5.413  26.185  0.00  0.00    +0.266 C 
BRANCH  39  40
ATOM     40  O   UNL     1       5.829  -6.013  26.090  0.00  0.00    -0.462 OA
BRANCH  40  41
ATOM     41  C   UNL     1       6.718  -5.656  27.058  0.00  0.00    +0.318 C 
ATOM     42  O   UNL     1       7.926  -5.537  26.895  0.00  0.00    -0.250 OA
BRANCH  41  43
ATOM     43  C   UNL     1       6.024  -5.414  28.363  0.00  0.00    +0.240 C 
BRANCH  43  44
ATOM     44  C   UNL     1       6.059  -6.613  29.260  0.00  0.00    +0.316 C 
ATOM     45  O   UNL     1       6.451  -6.622  30.416  0.00  0.00    -0.250 OA
BRANCH  44  46
ATOM     46  O   UNL     1       5.590  -7.733  28.659  0.00  0.00    -0.480 OA
ATOM     47  H   UNL     1       5.680  -8.552  29.183  0.00  0.00    +0.295 HD
ENDBRANCH  44  46
ENDBRANCH  43  44
ENDBRANCH  41  43
ENDBRANCH  40  41
ENDBRANCH  39  40
ENDBRANCH  29  39
ENDBRANCH  26  27
ENDBRANCH  11  26
TORSDOF 16
ENDMDL
MODEL 7
REMARK VINA RESULT:      -6.6      2.412      8.185
REMARK  Name = 
REMARK  16 active torsions:
REMARK  status: ('A' for Active; 'I' for Inactive)
REMARK    1  A    between atoms: C_3  and  O_42
REMARK    2  A    between atoms: C_4  and  O_41
REMARK    3  A    between atoms: C_6  and  C_7
REMARK    4  A    between atoms: C_8  and  O_20
REMARK    5  A    between atoms: C_12  and  O_19
REMARK    6  A    between atoms: C_14  and  O_18
REMARK    7  A    between atoms: O_20  and  C_21
REMARK    8  A    between atoms: C_23  and  O_40
REMARK    9  A    between atoms: C_24  and  O_39
REMARK   10  A    between atoms: C_25  and  O_38
REMARK   11  A    between atoms: C_27  and  C_30
REMARK   12  A    between atoms: C_30  and  O_31
REMARK   13  A    between atoms: O_31  and  C_32
REMARK   14  A    between atoms: C_32  and  C_34
REMARK   15  A    between atoms: C_34  and  C_35
REMARK   16  A    between atoms: C_35  and  O_37
REMARK                            x       y       z     vdW  Elec       q    Type
REMARK                         _______ _______ _______ _____ _____    ______ ____
ROOT
ATOM      1  C   UNL     1       7.623  -1.373  24.006  0.00  0.00    +0.181 A 
ATOM      2  O   UNL     1       7.717  -2.542  23.248  0.00  0.00    -0.451 OA
ATOM      3  C   UNL     1       6.666  -3.401  23.145  0.00  0.00    +0.147 A 
ATOM      4  C   UNL     1       5.489  -3.219  23.840  0.00  0.00    +0.109 A 
ATOM      5  C   UNL     1       4.450  -4.147  23.653  0.00  0.00    +0.135 A 
ATOM      6  C   UNL     1       4.598  -5.232  22.785  0.00  0.00    +0.091 A 
ATOM      7  C   UNL     1       5.795  -5.399  22.107  0.00  0.00    +0.124 A 
ATOM      8  C   UNL     1       5.390  -2.072  24.756  0.00  0.00    +0.238 A 
ATOM      9  O   UNL     1       4.397  -1.938  25.464  0.00  0.00    -0.283 OA
ATOM     10  C   UNL     1       6.835  -4.493  22.282  0.00  0.00    +0.092 A 
ATOM     11  C   UNL     1       6.531  -1.070  24.748  0.00  0.00    +0.214 A 
ENDROOT
BRANCH   1  13
ATOM     12  C   UNL     1       9.883  -0.357  24.668  0.00  0.00    +0.015 A 
ATOM     13  C   UNL     1       8.823  -0.505  23.762  0.00  0.00    +0.025 A 
ATOM     14  C   UNL     1       8.855   0.330  22.625  0.00  0.00    +0.060 A 
ATOM     15  C   UNL     1       9.767   1.376  22.537  0.00  0.00    +0.159 A 
ATOM     16  C   UNL     1      10.646   1.636  23.576  0.00  0.00    +0.158 A 
ATOM     17  C   UNL     1      10.743   0.746  24.628  0.00  0.00    +0.050 A 
BRANCH  16  18
ATOM     18  O   UNL     1      11.388   2.779  23.522  0.00  0.00    -0.503 OA
ATOM     19  H   UNL     1      10.803   3.496  23.219  0.00  0.00    +0.292 HD
ENDBRANCH  16  18
BRANCH  15  20
ATOM     20  O   UNL     1       9.754   2.180  21.436  0.00  0.00    -0.503 OA
ATOM     21  H   UNL     1      10.684   2.196  21.134  0.00  0.00    +0.292 HD
ENDBRANCH  15  20
ENDBRANCH   1  13
BRANCH   7  22
ATOM     22  O   UNL     1       6.005  -6.449  21.259  0.00  0.00    -0.507 OA
ATOM     23  H   UNL     1       6.753  -6.243  20.675  0.00  0.00    +0.292 HD
ENDBRANCH   7  22
BRANCH   5  24
ATOM     24  O   UNL     1       3.239  -4.050  24.286  0.00  0.00    -0.506 OA
ATOM     25  H   UNL     1       3.334  -3.428  25.042  0.00  0.00    +0.292 HD
ENDBRANCH   5  24
BRANCH  11  26
ATOM     26  O   UNL     1       6.451  -0.022  25.668  0.00  0.00    -0.453 OA
BRANCH  26  27
ATOM     27  C   UNL     1       5.218   0.704  25.858  0.00  0.00    +0.340 C 
ATOM     28  O   UNL     1       5.310   2.038  25.304  0.00  0.00    -0.330 OA
ATOM     29  C   UNL     1       6.277   2.925  25.910  0.00  0.00    +0.191 C 
ATOM     30  C   UNL     1       6.259   2.906  27.462  0.00  0.00    +0.178 C 
ATOM     31  C   UNL     1       6.015   1.502  28.053  0.00  0.00    +0.180 C 
ATOM     32  C   UNL     1       4.815   0.869  27.330  0.00  0.00    +0.214 C 
BRANCH  32  33
ATOM     33  O   UNL     1       4.383  -0.348  27.931  0.00  0.00    -0.383 OA
ATOM     34  H   UNL     1       3.644  -0.715  27.421  0.00  0.00    +0.210 HD
ENDBRANCH  32  33
BRANCH  31  35
ATOM     35  O   UNL     1       5.812   1.581  29.470  0.00  0.00    -0.386 OA
ATOM     36  H   UNL     1       5.968   0.709  29.865  0.00  0.00    +0.210 HD
ENDBRANCH  31  35
BRANCH  30  37
ATOM     37  O   UNL     1       7.411   3.527  28.035  0.00  0.00    -0.386 OA
ATOM     38  H   UNL     1       7.790   4.132  27.373  0.00  0.00    +0.210 HD
ENDBRANCH  30  37
BRANCH  29  39
ATOM     39  C   UNL     1       7.649   2.739  25.239  0.00  0.00    +0.266 C 
BRANCH  39  40
ATOM     40  O   UNL     1       8.499   3.895  25.295  0.00  0.00    -0.462 OA
BRANCH  40  41
ATOM     41  C   UNL     1       8.518   4.671  24.177  0.00  0.00    +0.318 C 
ATOM     42  O   UNL     1       8.135   4.318  23.068  0.00  0.00    -0.250 OA
BRANCH  41  43
ATOM     43  C   UNL     1       9.062   6.034  24.478  0.00  0.00    +0.240 C 
BRANCH  43  44
ATOM     44  C   UNL     1      10.524   6.145  24.170  0.00  0.00    +0.316 C 
ATOM     45  O   UNL     1      11.364   6.652  24.897  0.00  0.00    -0.250 OA
BRANCH  44  46
ATOM     46  O   UNL     1      10.852   5.605  22.972  0.00  0.00    -0.480 OA
ATOM     47  H   UNL     1      11.238   6.228  22.329  0.00  0.00    +0.295 HD
ENDBRANCH  44  46
ENDBRANCH  43  44
ENDBRANCH  41  43
ENDBRANCH  40  41
ENDBRANCH  39  40
ENDBRANCH  29  39
ENDBRANCH  26  27
ENDBRANCH  11  26
TORSDOF 16
ENDMDL
MODEL 8
REMARK VINA RESULT:      -6.4      1.793      4.894
REMARK  Name = 
REMARK  16 active torsions:
REMARK  status: ('A' for Active; 'I' for Inactive)
REMARK    1  A    between atoms: C_3  and  O_42
REMARK    2  A    between atoms: C_4  and  O_41
REMARK    3  A    between atoms: C_6  and  C_7
REMARK    4  A    between atoms: C_8  and  O_20
REMARK    5  A    between atoms: C_12  and  O_19
REMARK    6  A    between atoms: C_14  and  O_18
REMARK    7  A    between atoms: O_20  and  C_21
REMARK    8  A    between atoms: C_23  and  O_40
REMARK    9  A    between atoms: C_24  and  O_39
REMARK   10  A    between atoms: C_25  and  O_38
REMARK   11  A    between atoms: C_27  and  C_30
REMARK   12  A    between atoms: C_30  and  O_31
REMARK   13  A    between atoms: O_31  and  C_32
REMARK   14  A    between atoms: C_32  and  C_34
REMARK   15  A    between atoms: C_34  and  C_35
REMARK   16  A    between atoms: C_35  and  O_37
REMARK                            x       y       z     vdW  Elec       q    Type
REMARK                         _______ _______ _______ _____ _____    ______ ____
ROOT
ATOM      1  C   UNL     1       7.213  -1.239  24.770  0.00  0.00    +0.181 A 
ATOM      2  O   UNL     1       8.279  -0.551  24.189  0.00  0.00    -0.451 OA
ATOM      3  C   UNL     1       8.213   0.790  23.964  0.00  0.00    +0.147 A 
ATOM      4  C   UNL     1       7.076   1.528  24.213  0.00  0.00    +0.109 A 
ATOM      5  C   UNL     1       7.109   2.912  23.971  0.00  0.00    +0.135 A 
ATOM      6  C   UNL     1       8.264   3.534  23.488  0.00  0.00    +0.091 A 
ATOM      7  C   UNL     1       9.390   2.767  23.235  0.00  0.00    +0.124 A 
ATOM      8  C   UNL     1       5.880   0.823  24.701  0.00  0.00    +0.238 A 
ATOM      9  O   UNL     1       4.823   1.432  24.836  0.00  0.00    -0.283 OA
ATOM     10  C   UNL     1       9.375   1.397  23.466  0.00  0.00    +0.092 A 
ATOM     11  C   UNL     1       6.030  -0.644  25.058  0.00  0.00    +0.214 A 
ENDROOT
BRANCH   1  13
ATOM     12  C   UNL     1       8.098  -3.029  26.380  0.00  0.00    +0.015 A 
ATOM     13  C   UNL     1       7.632  -2.639  25.116  0.00  0.00    +0.025 A 
ATOM     14  C   UNL     1       7.701  -3.614  24.099  0.00  0.00    +0.060 A 
ATOM     15  C   UNL     1       8.392  -4.803  24.301  0.00  0.00    +0.159 A 
ATOM     16  C   UNL     1       9.049  -5.044  25.497  0.00  0.00    +0.158 A 
ATOM     17  C   UNL     1       8.870  -4.182  26.562  0.00  0.00    +0.050 A 
BRANCH  16  18
ATOM     18  O   UNL     1       9.863  -6.136  25.577  0.00  0.00    -0.503 OA
ATOM     19  H   UNL     1       9.373  -6.895  25.215  0.00  0.00    +0.292 HD
ENDBRANCH  16  18
BRANCH  15  20
ATOM     20  O   UNL     1       8.463  -5.713  23.288  0.00  0.00    -0.503 OA
ATOM     21  H   UNL     1       7.559  -5.734  22.915  0.00  0.00    +0.292 HD
ENDBRANCH  15  20
ENDBRANCH   1  13
BRANCH   7  22
ATOM     22  O   UNL     1      10.542   3.316  22.748  0.00  0.00    -0.507 OA
ATOM     23  H   UNL     1      10.343   3.805  21.932  0.00  0.00    +0.292 HD
ENDBRANCH   7  22
BRANCH   5  24
ATOM     24  O   UNL     1       6.038   3.736  24.195  0.00  0.00    -0.506 OA
ATOM     25  H   UNL     1       5.217   3.198  24.136  0.00  0.00    +0.292 HD
ENDBRANCH   5  24
BRANCH  11  26
ATOM     26  O   UNL     1       4.871  -1.313  25.460  0.00  0.00    -0.453 OA
BRANCH  26  27
ATOM     27  C   UNL     1       4.573  -1.502  26.859  0.00  0.00    +0.340 C 
ATOM     28  O   UNL     1       4.707  -2.892  27.238  0.00  0.00    -0.330 OA
ATOM     29  C   UNL     1       3.799  -3.824  26.608  0.00  0.00    +0.191 C 
ATOM     30  C   UNL     1       2.326  -3.339  26.575  0.00  0.00    +0.178 C 
ATOM     31  C   UNL     1       2.187  -1.824  26.316  0.00  0.00    +0.180 C 
ATOM     32  C   UNL     1       3.151  -1.078  27.252  0.00  0.00    +0.214 C 
BRANCH  32  33
ATOM     33  O   UNL     1       2.962   0.333  27.233  0.00  0.00    -0.383 OA
ATOM     34  H   UNL     1       2.663   0.631  28.107  0.00  0.00    +0.210 HD
ENDBRANCH  32  33
BRANCH  31  35
ATOM     35  O   UNL     1       0.828  -1.406  26.494  0.00  0.00    -0.386 OA
ATOM     36  H   UNL     1       0.521  -0.961  25.688  0.00  0.00    +0.210 HD
ENDBRANCH  31  35
BRANCH  30  37
ATOM     37  O   UNL     1       1.513  -4.103  25.684  0.00  0.00    -0.386 OA
ATOM     38  H   UNL     1       1.756  -3.864  24.771  0.00  0.00    +0.210 HD
ENDBRANCH  30  37
BRANCH  29  39
ATOM     39  C   UNL     1       4.390  -4.310  25.273  0.00  0.00    +0.266 C 
BRANCH  39  40
ATOM     40  O   UNL     1       4.894  -5.654  25.300  0.00  0.00    -0.462 OA
BRANCH  40  41
ATOM     41  C   UNL     1       4.447  -6.474  24.309  0.00  0.00    +0.318 C 
ATOM     42  O   UNL     1       4.279  -7.683  24.418  0.00  0.00    -0.250 OA
BRANCH  41  43
ATOM     43  C   UNL     1       4.174  -5.702  23.055  0.00  0.00    +0.240 C 
BRANCH  43  44
ATOM     44  C   UNL     1       5.340  -5.705  22.116  0.00  0.00    +0.316 C 
ATOM     45  O   UNL     1       5.658  -4.786  21.377  0.00  0.00    -0.250 OA
BRANCH  44  46
ATOM     46  O   UNL     1       6.051  -6.858  22.164  0.00  0.00    -0.480 OA
ATOM     47  H   UNL     1       6.034  -7.388  21.346  0.00  0.00    +0.295 HD
ENDBRANCH  44  46
ENDBRANCH  43  44
ENDBRANCH  41  43
ENDBRANCH  40  41
ENDBRANCH  39  40
ENDBRANCH  29  39
ENDBRANCH  26  27
ENDBRANCH  11  26
TORSDOF 16
ENDMDL
MODEL 9
REMARK VINA RESULT:      -6.4      2.130      7.792
REMARK  Name = 
REMARK  16 active torsions:
REMARK  status: ('A' for Active; 'I' for Inactive)
REMARK    1  A    between atoms: C_3  and  O_42
REMARK    2  A    between atoms: C_4  and  O_41
REMARK    3  A    between atoms: C_6  and  C_7
REMARK    4  A    between atoms: C_8  and  O_20
REMARK    5  A    between atoms: C_12  and  O_19
REMARK    6  A    between atoms: C_14  and  O_18
REMARK    7  A    between atoms: O_20  and  C_21
REMARK    8  A    between atoms: C_23  and  O_40
REMARK    9  A    between atoms: C_24  and  O_39
REMARK   10  A    between atoms: C_25  and  O_38
REMARK   11  A    between atoms: C_27  and  C_30
REMARK   12  A    between atoms: C_30  and  O_31
REMARK   13  A    between atoms: O_31  and  C_32
REMARK   14  A    between atoms: C_32  and  C_34
REMARK   15  A    between atoms: C_34  and  C_35
REMARK   16  A    between atoms: C_35  and  O_37
REMARK                            x       y       z     vdW  Elec       q    Type
REMARK                         _______ _______ _______ _____ _____    ______ ____
ROOT
ATOM      1  C   UNL     1       5.725  -1.797  25.246  0.00  0.00    +0.181 A 
ATOM      2  O   UNL     1       4.777  -2.070  26.235  0.00  0.00    -0.451 OA
ATOM      3  C   UNL     1       4.311  -1.088  27.054  0.00  0.00    +0.147 A 
ATOM      4  C   UNL     1       4.798   0.201  27.018  0.00  0.00    +0.109 A 
ATOM      5  C   UNL     1       4.239   1.153  27.888  0.00  0.00    +0.135 A 
ATOM      6  C   UNL     1       3.212   0.809  28.772  0.00  0.00    +0.091 A 
ATOM      7  C   UNL     1       2.748  -0.496  28.796  0.00  0.00    +0.124 A 
ATOM      8  C   UNL     1       5.893   0.507  26.084  0.00  0.00    +0.238 A 
ATOM      9  O   UNL     1       6.417   1.616  26.098  0.00  0.00    -0.283 OA
ATOM     10  C   UNL     1       3.291  -1.452  27.946  0.00  0.00    +0.092 A 
ATOM     11  C   UNL     1       6.298  -0.577  25.102  0.00  0.00    +0.214 A 
ENDROOT
BRANCH   1  13
ATOM     12  C   UNL     1       6.504  -4.185  24.733  0.00  0.00    +0.015 A 
ATOM     13  C   UNL     1       5.887  -2.987  24.346  0.00  0.00    +0.025 A 
ATOM     14  C   UNL     1       5.530  -2.881  22.985  0.00  0.00    +0.060 A 
ATOM     15  C   UNL     1       5.969  -3.823  22.061  0.00  0.00    +0.159 A 
ATOM     16  C   UNL     1       6.787  -4.870  22.453  0.00  0.00    +0.158 A 
ATOM     17  C   UNL     1       7.024  -5.087  23.797  0.00  0.00    +0.050 A 
BRANCH  16  18
ATOM     18  O   UNL     1       7.338  -5.655  21.484  0.00  0.00    -0.503 OA
ATOM     19  H   UNL     1       7.988  -5.115  21.002  0.00  0.00    +0.292 HD
ENDBRANCH  16  18
BRANCH  15  20
ATOM     20  O   UNL     1       5.628  -3.677  20.749  0.00  0.00    -0.503 OA
ATOM     21  H   UNL     1       5.996  -4.470  20.311  0.00  0.00    +0.292 HD
ENDBRANCH  15  20
ENDBRANCH   1  13
BRANCH   7  22
ATOM     22  O   UNL     1       1.759  -0.895  29.649  0.00  0.00    -0.507 OA
ATOM     23  H   UNL     1       1.692  -1.864  29.629  0.00  0.00    +0.292 HD
ENDBRANCH   7  22
BRANCH   5  24
ATOM     24  O   UNL     1       4.643   2.461  27.923  0.00  0.00    -0.506 OA
ATOM     25  H   UNL     1       5.600   2.495  27.697  0.00  0.00    +0.292 HD
ENDBRANCH   5  24
BRANCH  11  26
ATOM     26  O   UNL     1       7.380  -0.293  24.265  0.00  0.00    -0.453 OA
BRANCH  26  27
ATOM     27  C   UNL     1       8.733  -0.564  24.687  0.00  0.00    +0.340 C 
ATOM     28  O   UNL     1       9.418   0.656  25.059  0.00  0.00    -0.330 OA
ATOM     29  C   UNL     1       9.619   1.629  24.010  0.00  0.00    +0.191 C 
ATOM     30  C   UNL     1      10.135   1.020  22.680  0.00  0.00    +0.178 C 
ATOM     31  C   UNL     1       9.512  -0.354  22.355  0.00  0.00    +0.180 C 
ATOM     32  C   UNL     1       9.595  -1.238  23.610  0.00  0.00    +0.214 C 
BRANCH  32  33
ATOM     33  O   UNL     1       9.225  -2.590  23.363  0.00  0.00    -0.383 OA
ATOM     34  H   UNL     1       8.515  -2.615  22.702  0.00  0.00    +0.210 HD
ENDBRANCH  32  33
BRANCH  31  35
ATOM     35  O   UNL     1      10.168  -0.951  21.229  0.00  0.00    -0.386 OA
ATOM     36  H   UNL     1      11.128  -0.921  21.365  0.00  0.00    +0.210 HD
ENDBRANCH  31  35
BRANCH  30  37
ATOM     37  O   UNL     1      10.024   1.922  21.579  0.00  0.00    -0.386 OA
ATOM     38  H   UNL     1      10.167   2.827  21.912  0.00  0.00    +0.210 HD
ENDBRANCH  30  37
BRANCH  29  39
ATOM     39  C   UNL     1       8.392   2.553  23.910  0.00  0.00    +0.266 C 
BRANCH  39  40
ATOM     40  O   UNL     1       8.674   3.860  23.390  0.00  0.00    -0.462 OA
BRANCH  40  41
ATOM     41  C   UNL     1       9.027   4.800  24.310  0.00  0.00    +0.318 C 
ATOM     42  O   UNL     1       8.692   4.794  25.488  0.00  0.00    -0.250 OA
BRANCH  41  43
ATOM     43  C   UNL     1       9.899   5.852  23.695  0.00  0.00    +0.240 C 
BRANCH  43  44
ATOM     44  C   UNL     1      11.329   5.422  23.595  0.00  0.00    +0.316 C 
ATOM     45  O   UNL     1      12.280   5.996  24.104  0.00  0.00    -0.250 OA
BRANCH  44  46
ATOM     46  O   UNL     1      11.488   4.289  22.870  0.00  0.00    -0.480 OA
ATOM     47  H   UNL     1      12.392   3.923  22.867  0.00  0.00    +0.295 HD
ENDBRANCH  44  46
ENDBRANCH  43  44
ENDBRANCH  41  43
ENDBRANCH  40  41
ENDBRANCH  39  40
ENDBRANCH  29  39
ENDBRANCH  26  27
ENDBRANCH  11  26
TORSDOF 16
ENDMDL
