MODEL 1
REMARK VINA RESULT:      -7.1      0.000      0.000
REMARK  Name = 
REMARK  23 active torsions:
REMARK  status: ('A' for Active; 'I' for Inactive)
REMARK    1  A    between atoms: C_1  and  C_2
REMARK    2  A    between atoms: C_3  and  O_48
REMARK    3  A    between atoms: C_5  and  O_47
REMARK    4  A    between atoms: C_7  and  O_46
REMARK    5  A    between atoms: C_8  and  O_11
REMARK    6  A    between atoms: O_11  and  C_12
REMARK    7  A    between atoms: C_14  and  O_45
REMARK    8  A    between atoms: C_19  and  C_37
REMARK    9  A    between atoms: C_20  and  O_23
REMARK   10  A    between atoms: O_23  and  C_24
REMARK   11  A    between atoms: C_26  and  O_36
REMARK   12  A    between atoms: C_27  and  O_35
REMARK   13  A    between atoms: C_28  and  O_34
REMARK   14  A    between atoms: C_30  and  C_32
REMARK   15  A    between atoms: C_32  and  O_33
REMARK   16  A    between atoms: C_39  and  O_44
REMARK   17  A    between atoms: C_40  and  O_43
REMARK   18  A    between atoms: O_48  and  C_49
REMARK   19  A    between atoms: C_51  and  O_62
REMARK   20  A    between atoms: C_52  and  O_61
REMARK   21  A    between atoms: C_54  and  O_60
REMARK   22  A    between atoms: C_56  and  C_58
REMARK   23  A    between atoms: C_58  and  O_59
REMARK                            x       y       z     vdW  Elec       q    Type
REMARK                         _______ _______ _______ _____ _____    ______ ____
ROOT
ATOM      1  C   UNL     1       5.090   2.545  26.827  0.00  0.00    +0.131 A 
ATOM      2  C   UNL     1       5.968   1.453  26.795  0.00  0.00    +0.093 A 
ATOM      3  C   UNL     1       5.460   0.148  26.794  0.00  0.00    +0.147 A 
ATOM      4  O   UNL     1       6.337  -0.913  26.810  0.00  0.00    -0.451 OA
ATOM      5  C   UNL     1       5.848  -2.213  26.555  0.00  0.00    +0.181 A 
ATOM      6  C   UNL     1       4.519  -2.510  26.598  0.00  0.00    +0.214 A 
ATOM      7  C   UNL     1       3.642  -1.403  27.095  0.00  0.00    +0.238 A 
ATOM      8  O   UNL     1       2.662  -1.584  27.794  0.00  0.00    -0.283 OA
ATOM      9  C   UNL     1       4.090  -0.042  26.836  0.00  0.00    +0.109 A 
ATOM     10  C   UNL     1       3.212   1.041  26.793  0.00  0.00    +0.135 A 
ATOM     11  C   UNL     1       3.713   2.333  26.790  0.00  0.00    +0.092 A 
ENDROOT
BRANCH   5  12
ATOM     12  C   UNL     1       6.957  -3.205  26.291  0.00  0.00    +0.025 A 
ATOM     13  C   UNL     1       7.116  -4.399  27.024  0.00  0.00    +0.015 A 
ATOM     14  C   UNL     1       8.159  -5.301  26.790  0.00  0.00    +0.050 A 
ATOM     15  C   UNL     1       9.087  -5.018  25.811  0.00  0.00    +0.158 A 
ATOM     16  C   UNL     1       8.989  -3.845  25.077  0.00  0.00    +0.159 A 
ATOM     17  C   UNL     1       7.940  -2.944  25.306  0.00  0.00    +0.060 A 
BRANCH  16  18
ATOM     18  O   UNL     1       9.960  -3.615  24.140  0.00  0.00    -0.503 OA
ATOM     19  H   UNL     1      10.483  -4.427  24.030  0.00  0.00    +0.292 HD
ENDBRANCH  16  18
BRANCH  15  20
ATOM     20  O   UNL     1      10.099  -5.904  25.583  0.00  0.00    -0.503 OA
ATOM     21  H   UNL     1      10.843  -5.356  25.265  0.00  0.00    +0.292 HD
ENDBRANCH  15  20
ENDBRANCH   5  12
BRANCH  10  22
ATOM     22  O   UNL     1       1.861   0.845  26.719  0.00  0.00    -0.506 OA
ATOM     23  H   UNL     1       1.507   0.679  27.608  0.00  0.00    +0.292 HD
ENDBRANCH  10  22
BRANCH   6  24
ATOM     24  O   UNL     1       3.996  -3.749  26.230  0.00  0.00    -0.453 OA
BRANCH  24  25
ATOM     25  C   UNL     1       3.025  -3.800  25.172  0.00  0.00    +0.340 C 
ATOM     26  O   UNL     1       1.879  -4.562  25.561  0.00  0.00    -0.331 OA
ATOM     27  C   UNL     1       2.050  -5.988  25.516  0.00  0.00    +0.179 C 
ATOM     28  C   UNL     1       2.422  -6.431  24.096  0.00  0.00    +0.177 C 
ATOM     29  C   UNL     1       3.761  -5.799  23.727  0.00  0.00    +0.180 C 
ATOM     30  C   UNL     1       3.668  -4.275  23.844  0.00  0.00    +0.214 C 
BRANCH  29  31
ATOM     31  O   UNL     1       4.091  -6.197  22.383  0.00  0.00    -0.386 OA
ATOM     32  H   UNL     1       4.142  -5.388  21.840  0.00  0.00    +0.210 HD
ENDBRANCH  29  31
BRANCH  30  33
ATOM     33  O   UNL     1       4.954  -3.685  23.606  0.00  0.00    -0.383 OA
ATOM     34  H   UNL     1       4.817  -2.732  23.456  0.00  0.00    +0.210 HD
ENDBRANCH  30  33
BRANCH  28  35
ATOM     35  O   UNL     1       1.443  -5.987  23.144  0.00  0.00    -0.386 OA
ATOM     36  H   UNL     1       0.578  -6.064  23.587  0.00  0.00    +0.210 HD
ENDBRANCH  28  35
BRANCH  27  37
ATOM     37  C   UNL     1       0.744  -6.636  26.009  0.00  0.00    +0.190 C 
BRANCH  37  38
ATOM     38  O   UNL     1       0.486  -7.893  25.393  0.00  0.00    -0.392 OA
ATOM     39  H   UNL     1       0.849  -8.567  26.002  0.00  0.00    +0.210 HD
ENDBRANCH  37  38
ENDBRANCH  27  37
ENDBRANCH  24  25
ENDBRANCH   6  24
BRANCH   1  40
ATOM     40  O   UNL     1       5.416   3.866  26.919  0.00  0.00    -0.461 OA
BRANCH  40  44
ATOM     41  C   UNL     1       5.434   5.587  22.977  0.00  0.00    +0.041 C 
ATOM     42  C   UNL     1       6.277   4.377  23.386  0.00  0.00    +0.151 C 
ATOM     43  O   UNL     1       5.771   3.764  24.576  0.00  0.00    -0.334 OA
ATOM     44  C   UNL     1       5.961   4.522  25.778  0.00  0.00    +0.339 C 
ATOM     45  C   UNL     1       7.469   4.744  26.035  0.00  0.00    +0.214 C 
ATOM     46  C   UNL     1       8.043   5.486  24.821  0.00  0.00    +0.180 C 
ATOM     47  C   UNL     1       7.779   4.701  23.518  0.00  0.00    +0.181 C 
BRANCH  46  48
ATOM     48  O   UNL     1       9.441   5.751  24.989  0.00  0.00    -0.386 OA
ATOM     49  H   UNL     1       9.754   6.255  24.217  0.00  0.00    +0.210 HD
ENDBRANCH  46  48
BRANCH  45  50
ATOM     50  O   UNL     1       8.153   3.497  26.256  0.00  0.00    -0.383 OA
ATOM     51  H   UNL     1       7.670   3.024  26.964  0.00  0.00    +0.210 HD
ENDBRANCH  45  50
BRANCH  47  52
ATOM     52  O   UNL     1       8.624   3.523  23.537  0.00  0.00    -0.340 OA
BRANCH  52  53
ATOM     53  C   UNL     1       7.988   2.244  23.367  0.00  0.00    +0.282 C 
ATOM     54  O   UNL     1       8.435   1.353  24.403  0.00  0.00    -0.341 OA
ATOM     55  C   UNL     1       9.831   0.996  24.340  0.00  0.00    +0.178 C 
ATOM     56  C   UNL     1      10.225   0.411  22.962  0.00  0.00    +0.177 C 
ATOM     57  C   UNL     1       9.740   1.314  21.825  0.00  0.00    +0.179 C 
ATOM     58  C   UNL     1       8.235   1.586  21.991  0.00  0.00    +0.201 C 
BRANCH  58  59
ATOM     59  O   UNL     1       7.724   2.357  20.895  0.00  0.00    -0.384 OA
ATOM     60  H   UNL     1       7.387   3.194  21.269  0.00  0.00    +0.210 HD
ENDBRANCH  58  59
BRANCH  57  61
ATOM     61  O   UNL     1      10.486   2.540  21.766  0.00  0.00    -0.386 OA
ATOM     62  H   UNL     1      11.154   2.442  21.052  0.00  0.00    +0.210 HD
ENDBRANCH  57  61
BRANCH  56  63
ATOM     63  O   UNL     1       9.651  -0.890  22.790  0.00  0.00    -0.386 OA
ATOM     64  H   UNL     1      10.298  -1.558  23.078  0.00  0.00    +0.210 HD
ENDBRANCH  56  63
BRANCH  55  65
ATOM     65  C   UNL     1      10.143  -0.024  25.455  0.00  0.00    +0.190 C 
BRANCH  65  66
ATOM     66  O   UNL     1       9.185  -0.003  26.512  0.00  0.00    -0.392 OA
ATOM     67  H   UNL     1       8.696   0.836  26.471  0.00  0.00    +0.210 HD
ENDBRANCH  65  66
ENDBRANCH  55  65
ENDBRANCH  52  53
ENDBRANCH  47  52
ENDBRANCH  40  44
ENDBRANCH   1  40
TORSDOF 22
ENDMDL
MODEL 2
REMARK VINA RESULT:      -7.1      1.384      2.134
REMARK  Name = 
REMARK  23 active torsions:
REMARK  status: ('A' for Active; 'I' for Inactive)
REMARK    1  A    between atoms: C_1  and  C_2
REMARK    2  A    between atoms: C_3  and  O_48
REMARK    3  A    between atoms: C_5  and  O_47
REMARK    4  A    between atoms: C_7  and  O_46
REMARK    5  A    between atoms: C_8  and  O_11
REMARK    6  A    between atoms: O_11  and  C_12
REMARK    7  A    between atoms: C_14  and  O_45
REMARK    8  A    between atoms: C_19  and  C_37
REMARK    9  A    between atoms: C_20  and  O_23
REMARK   10  A    between atoms: O_23  and  C_24
REMARK   11  A    between atoms: C_26  and  O_36
REMARK   12  A    between atoms: C_27  and  O_35
REMARK   13  A    between atoms: C_28  and  O_34
REMARK   14  A    between atoms: C_30  and  C_32
REMARK   15  A    between atoms: C_32  and  O_33
REMARK   16  A    between atoms: C_39  and  O_44
REMARK   17  A    between atoms: C_40  and  O_43
REMARK   18  A    between atoms: O_48  and  C_49
REMARK   19  A    between atoms: C_51  and  O_62
REMARK   20  A    between atoms: C_52  and  O_61
REMARK   21  A    between atoms: C_54  and  O_60
REMARK   22  A    between atoms: C_56  and  C_58
REMARK   23  A    between atoms: C_58  and  O_59
REMARK                            x       y       z     vdW  Elec       q    Type
REMARK                         _______ _______ _______ _____ _____    ______ ____
ROOT
ATOM      1  C   UNL     1       5.110   2.566  26.796  0.00  0.00    +0.131 A 
ATOM      2  C   UNL     1       5.964   1.471  26.609  0.00  0.00    +0.093 A 
ATOM      3  C   UNL     1       5.437   0.174  26.560  0.00  0.00    +0.147 A 
ATOM      4  O   UNL     1       6.294  -0.894  26.423  0.00  0.00    -0.451 OA
ATOM      5  C   UNL     1       5.764  -2.167  26.120  0.00  0.00    +0.181 A 
ATOM      6  C   UNL     1       4.440  -2.453  26.259  0.00  0.00    +0.214 A 
ATOM      7  C   UNL     1       3.628  -1.377  26.908  0.00  0.00    +0.238 A 
ATOM      8  O   UNL     1       2.709  -1.598  27.677  0.00  0.00    -0.283 OA
ATOM      9  C   UNL     1       4.073  -0.005  26.709  0.00  0.00    +0.109 A 
ATOM     10  C   UNL     1       3.212   1.087  26.821  0.00  0.00    +0.135 A 
ATOM     11  C   UNL     1       3.732   2.371  26.866  0.00  0.00    +0.092 A 
ENDROOT
BRANCH   5  12
ATOM     12  C   UNL     1       6.830  -3.148  25.688  0.00  0.00    +0.025 A 
ATOM     13  C   UNL     1       6.851  -3.753  24.414  0.00  0.00    +0.015 A 
ATOM     14  C   UNL     1       7.827  -4.679  24.030  0.00  0.00    +0.050 A 
ATOM     15  C   UNL     1       8.810  -5.034  24.929  0.00  0.00    +0.158 A 
ATOM     16  C   UNL     1       8.820  -4.484  26.203  0.00  0.00    +0.159 A 
ATOM     17  C   UNL     1       7.847  -3.551  26.586  0.00  0.00    +0.060 A 
BRANCH  16  18
ATOM     18  O   UNL     1       9.809  -4.902  27.052  0.00  0.00    -0.503 OA
ATOM     19  H   UNL     1      10.013  -5.832  26.855  0.00  0.00    +0.292 HD
ENDBRANCH  16  18
BRANCH  15  20
ATOM     20  O   UNL     1       9.762  -5.932  24.546  0.00  0.00    -0.503 OA
ATOM     21  H   UNL     1      10.192  -6.209  25.379  0.00  0.00    +0.292 HD
ENDBRANCH  15  20
ENDBRANCH   5  12
BRANCH  10  22
ATOM     22  O   UNL     1       1.857   0.911  26.852  0.00  0.00    -0.506 OA
ATOM     23  H   UNL     1       1.562   0.815  27.773  0.00  0.00    +0.292 HD
ENDBRANCH  10  22
BRANCH   6  24
ATOM     24  O   UNL     1       3.867  -3.657  25.851  0.00  0.00    -0.453 OA
BRANCH  24  25
ATOM     25  C   UNL     1       3.283  -4.514  26.846  0.00  0.00    +0.340 C 
ATOM     26  O   UNL     1       4.198  -4.755  27.919  0.00  0.00    -0.331 OA
ATOM     27  C   UNL     1       5.223  -5.722  27.642  0.00  0.00    +0.179 C 
ATOM     28  C   UNL     1       4.592  -7.072  27.279  0.00  0.00    +0.177 C 
ATOM     29  C   UNL     1       3.773  -6.896  26.004  0.00  0.00    +0.180 C 
ATOM     30  C   UNL     1       2.716  -5.808  26.209  0.00  0.00    +0.214 C 
BRANCH  29  31
ATOM     31  O   UNL     1       3.162  -8.160  25.684  0.00  0.00    -0.386 OA
ATOM     32  H   UNL     1       2.228  -8.115  25.963  0.00  0.00    +0.210 HD
ENDBRANCH  29  31
BRANCH  30  33
ATOM     33  O   UNL     1       2.019  -5.563  24.978  0.00  0.00    -0.383 OA
ATOM     34  H   UNL     1       1.420  -6.317  24.825  0.00  0.00    +0.210 HD
ENDBRANCH  30  33
BRANCH  28  35
ATOM     35  O   UNL     1       3.708  -7.524  28.316  0.00  0.00    -0.386 OA
ATOM     36  H   UNL     1       3.518  -8.460  28.123  0.00  0.00    +0.210 HD
ENDBRANCH  28  35
BRANCH  27  37
ATOM     37  C   UNL     1       6.133  -5.814  28.879  0.00  0.00    +0.190 C 
BRANCH  37  38
ATOM     38  O   UNL     1       6.537  -7.148  29.169  0.00  0.00    -0.392 OA
ATOM     39  H   UNL     1       5.722  -7.688  29.128  0.00  0.00    +0.210 HD
ENDBRANCH  37  38
ENDBRANCH  27  37
ENDBRANCH  24  25
ENDBRANCH   6  24
BRANCH   1  40
ATOM     40  O   UNL     1       5.464   3.874  26.953  0.00  0.00    -0.461 OA
BRANCH  40  44
ATOM     41  C   UNL     1       5.612   5.782  23.100  0.00  0.00    +0.041 C 
ATOM     42  C   UNL     1       6.405   4.525  23.464  0.00  0.00    +0.151 C 
ATOM     43  O   UNL     1       5.857   3.873  24.614  0.00  0.00    -0.334 OA
ATOM     44  C   UNL     1       6.051   4.565  25.854  0.00  0.00    +0.339 C 
ATOM     45  C   UNL     1       7.562   4.721  26.147  0.00  0.00    +0.214 C 
ATOM     46  C   UNL     1       8.183   5.500  24.980  0.00  0.00    +0.180 C 
ATOM     47  C   UNL     1       7.915   4.789  23.636  0.00  0.00    +0.181 C 
BRANCH  46  48
ATOM     48  O   UNL     1       9.586   5.707  25.183  0.00  0.00    -0.386 OA
ATOM     49  H   UNL     1       9.949   6.152  24.397  0.00  0.00    +0.210 HD
ENDBRANCH  46  48
BRANCH  45  50
ATOM     50  O   UNL     1       8.198   3.441  26.318  0.00  0.00    -0.383 OA
ATOM     51  H   UNL     1       8.086   3.185  27.255  0.00  0.00    +0.210 HD
ENDBRANCH  45  50
BRANCH  47  52
ATOM     52  O   UNL     1       8.718   3.582  23.610  0.00  0.00    -0.340 OA
BRANCH  52  53
ATOM     53  C   UNL     1       8.043   2.337  23.365  0.00  0.00    +0.282 C 
ATOM     54  O   UNL     1       8.430   1.383  24.368  0.00  0.00    -0.341 OA
ATOM     55  C   UNL     1       9.814   0.978  24.323  0.00  0.00    +0.178 C 
ATOM     56  C   UNL     1      10.223   0.443  22.929  0.00  0.00    +0.177 C 
ATOM     57  C   UNL     1       9.800   1.415  21.824  0.00  0.00    +0.179 C 
ATOM     58  C   UNL     1       8.302   1.733  21.967  0.00  0.00    +0.201 C 
BRANCH  58  59
ATOM     59  O   UNL     1       7.847   2.573  20.895  0.00  0.00    -0.384 OA
ATOM     60  H   UNL     1       7.306   3.279  21.298  0.00  0.00    +0.210 HD
ENDBRANCH  58  59
BRANCH  57  61
ATOM     61  O   UNL     1      10.590   2.614  21.841  0.00  0.00    -0.386 OA
ATOM     62  H   UNL     1      11.257   2.535  21.124  0.00  0.00    +0.210 HD
ENDBRANCH  57  61
BRANCH  56  63
ATOM     63  O   UNL     1       9.607  -0.826  22.682  0.00  0.00    -0.386 OA
ATOM     64  H   UNL     1      10.051  -1.500  23.228  0.00  0.00    +0.210 HD
ENDBRANCH  56  63
BRANCH  55  65
ATOM     65  C   UNL     1      10.060  -0.104  25.396  0.00  0.00    +0.190 C 
BRANCH  65  66
ATOM     66  O   UNL     1       9.082  -0.089  26.435  0.00  0.00    -0.392 OA
ATOM     67  H   UNL     1       9.336  -0.740  27.109  0.00  0.00    +0.210 HD
ENDBRANCH  65  66
ENDBRANCH  55  65
ENDBRANCH  52  53
ENDBRANCH  47  52
ENDBRANCH  40  44
ENDBRANCH   1  40
TORSDOF 22
ENDMDL
MODEL 3
REMARK VINA RESULT:      -6.8      2.231      9.795
REMARK  Name = 
REMARK  23 active torsions:
REMARK  status: ('A' for Active; 'I' for Inactive)
REMARK    1  A    between atoms: C_1  and  C_2
REMARK    2  A    between atoms: C_3  and  O_48
REMARK    3  A    between atoms: C_5  and  O_47
REMARK    4  A    between atoms: C_7  and  O_46
REMARK    5  A    between atoms: C_8  and  O_11
REMARK    6  A    between atoms: O_11  and  C_12
REMARK    7  A    between atoms: C_14  and  O_45
REMARK    8  A    between atoms: C_19  and  C_37
REMARK    9  A    between atoms: C_20  and  O_23
REMARK   10  A    between atoms: O_23  and  C_24
REMARK   11  A    between atoms: C_26  and  O_36
REMARK   12  A    between atoms: C_27  and  O_35
REMARK   13  A    between atoms: C_28  and  O_34
REMARK   14  A    between atoms: C_30  and  C_32
REMARK   15  A    between atoms: C_32  and  O_33
REMARK   16  A    between atoms: C_39  and  O_44
REMARK   17  A    between atoms: C_40  and  O_43
REMARK   18  A    between atoms: O_48  and  C_49
REMARK   19  A    between atoms: C_51  and  O_62
REMARK   20  A    between atoms: C_52  and  O_61
REMARK   21  A    between atoms: C_54  and  O_60
REMARK   22  A    between atoms: C_56  and  C_58
REMARK   23  A    between atoms: C_58  and  O_59
REMARK                            x       y       z     vdW  Elec       q    Type
REMARK                         _______ _______ _______ _____ _____    ______ ____
ROOT
ATOM      1  C   UNL     1       5.120  -4.583  23.121  0.00  0.00    +0.131 A 
ATOM      2  C   UNL     1       4.596  -3.506  23.848  0.00  0.00    +0.093 A 
ATOM      3  C   UNL     1       5.439  -2.468  24.265  0.00  0.00    +0.147 A 
ATOM      4  O   UNL     1       4.917  -1.441  25.018  0.00  0.00    -0.451 OA
ATOM      5  C   UNL     1       5.690  -0.278  25.225  0.00  0.00    +0.181 A 
ATOM      6  C   UNL     1       7.028  -0.243  24.978  0.00  0.00    +0.214 A 
ATOM      7  C   UNL     1       7.640  -1.565  24.636  0.00  0.00    +0.238 A 
ATOM      8  O   UNL     1       8.751  -1.907  24.999  0.00  0.00    -0.283 OA
ATOM      9  C   UNL     1       6.786  -2.529  23.958  0.00  0.00    +0.109 A 
ATOM     10  C   UNL     1       7.298  -3.562  23.171  0.00  0.00    +0.135 A 
ATOM     11  C   UNL     1       6.465  -4.588  22.755  0.00  0.00    +0.092 A 
ENDROOT
BRANCH   5  12
ATOM     12  C   UNL     1       4.873   0.865  25.784  0.00  0.00    +0.025 A 
ATOM     13  C   UNL     1       4.582   2.036  25.052  0.00  0.00    +0.015 A 
ATOM     14  C   UNL     1       3.848   3.100  25.585  0.00  0.00    +0.050 A 
ATOM     15  C   UNL     1       3.391   3.021  26.883  0.00  0.00    +0.158 A 
ATOM     16  C   UNL     1       3.670   1.900  27.652  0.00  0.00    +0.159 A 
ATOM     17  C   UNL     1       4.400   0.830  27.117  0.00  0.00    +0.060 A 
BRANCH  16  18
ATOM     18  O   UNL     1       3.210   1.901  28.941  0.00  0.00    -0.503 OA
ATOM     19  H   UNL     1       2.573   2.628  29.042  0.00  0.00    +0.292 HD
ENDBRANCH  16  18
BRANCH  15  20
ATOM     20  O   UNL     1       2.669   4.059  27.395  0.00  0.00    -0.503 OA
ATOM     21  H   UNL     1       3.325   4.767  27.546  0.00  0.00    +0.292 HD
ENDBRANCH  15  20
ENDBRANCH   5  12
BRANCH  10  22
ATOM     22  O   UNL     1       8.606  -3.558  22.774  0.00  0.00    -0.506 OA
ATOM     23  H   UNL     1       9.184  -3.563  23.556  0.00  0.00    +0.292 HD
ENDBRANCH  10  22
BRANCH   6  24
ATOM     24  O   UNL     1       7.794   0.921  25.052  0.00  0.00    -0.453 OA
BRANCH  24  25
ATOM     25  C   UNL     1       7.934   1.728  23.871  0.00  0.00    +0.340 C 
ATOM     26  O   UNL     1       8.141   0.914  22.713  0.00  0.00    -0.331 OA
ATOM     27  C   UNL     1       9.473   0.399  22.558  0.00  0.00    +0.179 C 
ATOM     28  C   UNL     1      10.481   1.553  22.481  0.00  0.00    +0.177 C 
ATOM     29  C   UNL     1      10.438   2.321  23.798  0.00  0.00    +0.180 C 
ATOM     30  C   UNL     1       9.016   2.821  24.065  0.00  0.00    +0.214 C 
BRANCH  29  31
ATOM     31  O   UNL     1      11.366   3.418  23.710  0.00  0.00    -0.386 OA
ATOM     32  H   UNL     1      10.976   4.087  23.115  0.00  0.00    +0.210 HD
ENDBRANCH  29  31
BRANCH  30  33
ATOM     33  O   UNL     1       8.949   3.447  25.355  0.00  0.00    -0.383 OA
ATOM     34  H   UNL     1       8.102   3.191  25.762  0.00  0.00    +0.210 HD
ENDBRANCH  30  33
BRANCH  28  35
ATOM     35  O   UNL     1      10.142   2.463  21.424  0.00  0.00    -0.386 OA
ATOM     36  H   UNL     1      10.987   2.798  21.072  0.00  0.00    +0.210 HD
ENDBRANCH  28  35
BRANCH  27  37
ATOM     37  C   UNL     1       9.495  -0.483  21.298  0.00  0.00    +0.190 C 
BRANCH  37  38
ATOM     38  O   UNL     1      10.249  -1.678  21.473  0.00  0.00    -0.392 OA
ATOM     39  H   UNL     1       9.743  -2.220  22.111  0.00  0.00    +0.210 HD
ENDBRANCH  37  38
ENDBRANCH  27  37
ENDBRANCH  24  25
ENDBRANCH   6  24
BRANCH   1  40
ATOM     40  O   UNL     1       4.462  -5.708  22.718  0.00  0.00    -0.461 OA
BRANCH  40  44
ATOM     41  C   UNL     1       0.444  -5.355  24.214  0.00  0.00    +0.041 C 
ATOM     42  C   UNL     1       1.684  -5.453  25.106  0.00  0.00    +0.151 C 
ATOM     43  O   UNL     1       2.877  -5.128  24.384  0.00  0.00    -0.334 OA
ATOM     44  C   UNL     1       3.283  -6.102  23.415  0.00  0.00    +0.339 C 
ATOM     45  C   UNL     1       3.573  -7.455  24.107  0.00  0.00    +0.214 C 
ATOM     46  C   UNL     1       2.289  -7.894  24.821  0.00  0.00    +0.180 C 
ATOM     47  C   UNL     1       1.813  -6.815  25.818  0.00  0.00    +0.181 C 
BRANCH  46  48
ATOM     48  O   UNL     1       2.466  -9.157  25.476  0.00  0.00    -0.386 OA
ATOM     49  H   UNL     1       2.181  -9.862  24.869  0.00  0.00    +0.210 HD
ENDBRANCH  46  48
BRANCH  45  50
ATOM     50  O   UNL     1       4.673  -7.347  25.028  0.00  0.00    -0.383 OA
ATOM     51  H   UNL     1       4.675  -6.431  25.370  0.00  0.00    +0.210 HD
ENDBRANCH  45  50
BRANCH  47  52
ATOM     52  O   UNL     1       2.746  -6.800  26.927  0.00  0.00    -0.340 OA
BRANCH  52  53
ATOM     53  C   UNL     1       3.026  -5.532  27.546  0.00  0.00    +0.282 C 
ATOM     54  O   UNL     1       4.336  -5.092  27.151  0.00  0.00    -0.341 OA
ATOM     55  C   UNL     1       5.425  -5.902  27.640  0.00  0.00    +0.178 C 
ATOM     56  C   UNL     1       5.387  -6.067  29.179  0.00  0.00    +0.177 C 
ATOM     57  C   UNL     1       3.997  -6.505  29.648  0.00  0.00    +0.179 C 
ATOM     58  C   UNL     1       2.939  -5.541  29.088  0.00  0.00    +0.201 C 
BRANCH  58  59
ATOM     59  O   UNL     1       1.630  -5.866  29.579  0.00  0.00    -0.384 OA
ATOM     60  H   UNL     1       1.009  -5.743  28.835  0.00  0.00    +0.210 HD
ENDBRANCH  58  59
BRANCH  57  61
ATOM     61  O   UNL     1       3.714  -7.862  29.273  0.00  0.00    -0.386 OA
ATOM     62  H   UNL     1       4.324  -8.096  28.540  0.00  0.00    +0.210 HD
ENDBRANCH  57  61
BRANCH  56  63
ATOM     63  O   UNL     1       5.718  -4.831  29.821  0.00  0.00    -0.386 OA
ATOM     64  H   UNL     1       5.050  -4.644  30.504  0.00  0.00    +0.210 HD
ENDBRANCH  56  63
BRANCH  55  65
ATOM     65  C   UNL     1       6.763  -5.264  27.211  0.00  0.00    +0.190 C 
BRANCH  65  66
ATOM     66  O   UNL     1       7.898  -5.949  27.737  0.00  0.00    -0.392 OA
ATOM     67  H   UNL     1       8.399  -6.333  26.998  0.00  0.00    +0.210 HD
ENDBRANCH  65  66
ENDBRANCH  55  65
ENDBRANCH  52  53
ENDBRANCH  47  52
ENDBRANCH  40  44
ENDBRANCH   1  40
TORSDOF 22
ENDMDL
MODEL 4
REMARK VINA RESULT:      -6.5      2.623      5.724
REMARK  Name = 
REMARK  23 active torsions:
REMARK  status: ('A' for Active; 'I' for Inactive)
REMARK    1  A    between atoms: C_1  and  C_2
REMARK    2  A    between atoms: C_3  and  O_48
REMARK    3  A    between atoms: C_5  and  O_47
REMARK    4  A    between atoms: C_7  and  O_46
REMARK    5  A    between atoms: C_8  and  O_11
REMARK    6  A    between atoms: O_11  and  C_12
REMARK    7  A    between atoms: C_14  and  O_45
REMARK    8  A    between atoms: C_19  and  C_37
REMARK    9  A    between atoms: C_20  and  O_23
REMARK   10  A    between atoms: O_23  and  C_24
REMARK   11  A    between atoms: C_26  and  O_36
REMARK   12  A    between atoms: C_27  and  O_35
REMARK   13  A    between atoms: C_28  and  O_34
REMARK   14  A    between atoms: C_30  and  C_32
REMARK   15  A    between atoms: C_32  and  O_33
REMARK   16  A    between atoms: C_39  and  O_44
REMARK   17  A    between atoms: C_40  and  O_43
REMARK   18  A    between atoms: O_48  and  C_49
REMARK   19  A    between atoms: C_51  and  O_62
REMARK   20  A    between atoms: C_52  and  O_61
REMARK   21  A    between atoms: C_54  and  O_60
REMARK   22  A    between atoms: C_56  and  C_58
REMARK   23  A    between atoms: C_58  and  O_59
REMARK                            x       y       z     vdW  Elec       q    Type
REMARK                         _______ _______ _______ _____ _____    ______ ____
ROOT
ATOM      1  C   UNL     1       8.209   0.969  23.762  0.00  0.00    +0.131 A 
ATOM      2  C   UNL     1       7.134   0.098  23.537  0.00  0.00    +0.093 A 
ATOM      3  C   UNL     1       6.872  -0.937  24.443  0.00  0.00    +0.147 A 
ATOM      4  O   UNL     1       5.842  -1.812  24.182  0.00  0.00    -0.451 OA
ATOM      5  C   UNL     1       5.412  -2.690  25.200  0.00  0.00    +0.181 A 
ATOM      6  C   UNL     1       6.157  -2.929  26.315  0.00  0.00    +0.214 A 
ATOM      7  C   UNL     1       7.525  -2.325  26.299  0.00  0.00    +0.238 A 
ATOM      8  O   UNL     1       8.507  -2.871  26.770  0.00  0.00    -0.283 OA
ATOM      9  C   UNL     1       7.690  -1.089  25.548  0.00  0.00    +0.109 A 
ATOM     10  C   UNL     1       8.715  -0.180  25.815  0.00  0.00    +0.135 A 
ATOM     11  C   UNL     1       8.973   0.847  24.921  0.00  0.00    +0.092 A 
ENDROOT
BRANCH   5  12
ATOM     12  C   UNL     1       4.089  -3.346  24.875  0.00  0.00    +0.025 A 
ATOM     13  C   UNL     1       2.888  -3.036  25.547  0.00  0.00    +0.015 A 
ATOM     14  C   UNL     1       1.673  -3.665  25.258  0.00  0.00    +0.050 A 
ATOM     15  C   UNL     1       1.633  -4.640  24.285  0.00  0.00    +0.158 A 
ATOM     16  C   UNL     1       2.792  -4.998  23.611  0.00  0.00    +0.159 A 
ATOM     17  C   UNL     1       4.009  -4.364  23.895  0.00  0.00    +0.060 A 
BRANCH  16  18
ATOM     18  O   UNL     1       2.685  -5.992  22.677  0.00  0.00    -0.503 OA
ATOM     19  H   UNL     1       3.510  -6.505  22.674  0.00  0.00    +0.292 HD
ENDBRANCH  16  18
BRANCH  15  20
ATOM     20  O   UNL     1       0.444  -5.245  24.003  0.00  0.00    -0.503 OA
ATOM     21  H   UNL     1       0.058  -5.455  24.876  0.00  0.00    +0.292 HD
ENDBRANCH  15  20
ENDBRANCH   5  12
BRANCH  10  22
ATOM     22  O   UNL     1       9.446  -0.267  26.966  0.00  0.00    -0.506 OA
ATOM     23  H   UNL     1      10.378  -0.436  26.748  0.00  0.00    +0.292 HD
ENDBRANCH  10  22
BRANCH   6  24
ATOM     24  O   UNL     1       5.705  -3.691  27.393  0.00  0.00    -0.453 OA
BRANCH  24  25
ATOM     25  C   UNL     1       5.301  -5.049  27.154  0.00  0.00    +0.340 C 
ATOM     26  O   UNL     1       3.942  -5.259  27.550  0.00  0.00    -0.331 OA
ATOM     27  C   UNL     1       3.733  -5.411  28.963  0.00  0.00    +0.179 C 
ATOM     28  C   UNL     1       4.543  -6.602  29.492  0.00  0.00    +0.177 C 
ATOM     29  C   UNL     1       6.026  -6.312  29.278  0.00  0.00    +0.180 C 
ATOM     30  C   UNL     1       6.297  -6.051  27.794  0.00  0.00    +0.214 C 
BRANCH  29  31
ATOM     31  O   UNL     1       6.778  -7.444  29.751  0.00  0.00    -0.386 OA
ATOM     32  H   UNL     1       6.545  -7.582  30.689  0.00  0.00    +0.210 HD
ENDBRANCH  29  31
BRANCH  30  33
ATOM     33  O   UNL     1       7.667  -5.670  27.605  0.00  0.00    -0.383 OA
ATOM     34  H   UNL     1       8.077  -5.602  28.486  0.00  0.00    +0.210 HD
ENDBRANCH  30  33
BRANCH  28  35
ATOM     35  O   UNL     1       4.217  -7.804  28.779  0.00  0.00    -0.386 OA
ATOM     36  H   UNL     1       5.037  -8.331  28.746  0.00  0.00    +0.210 HD
ENDBRANCH  28  35
BRANCH  27  37
ATOM     37  C   UNL     1       2.223  -5.577  29.203  0.00  0.00    +0.190 C 
BRANCH  37  38
ATOM     38  O   UNL     1       1.576  -6.306  28.166  0.00  0.00    -0.392 OA
ATOM     39  H   UNL     1       1.429  -5.665  27.442  0.00  0.00    +0.210 HD
ENDBRANCH  37  38
ENDBRANCH  27  37
ENDBRANCH  24  25
ENDBRANCH   6  24
BRANCH   1  40
ATOM     40  O   UNL     1       8.653   1.965  22.943  0.00  0.00    -0.461 OA
BRANCH  40  44
ATOM     41  C   UNL     1       8.523   5.383  25.553  0.00  0.00    +0.041 C 
ATOM     42  C   UNL     1       7.289   4.761  24.895  0.00  0.00    +0.151 C 
ATOM     43  O   UNL     1       7.548   3.425  24.451  0.00  0.00    -0.334 OA
ATOM     44  C   UNL     1       8.420   3.320  23.319  0.00  0.00    +0.339 C 
ATOM     45  C   UNL     1       7.803   4.049  22.102  0.00  0.00    +0.214 C 
ATOM     46  C   UNL     1       7.592   5.515  22.497  0.00  0.00    +0.180 C 
ATOM     47  C   UNL     1       6.707   5.626  23.758  0.00  0.00    +0.181 C 
BRANCH  46  48
ATOM     48  O   UNL     1       7.039   6.271  21.412  0.00  0.00    -0.386 OA
ATOM     49  H   UNL     1       6.862   7.176  21.725  0.00  0.00    +0.210 HD
ENDBRANCH  46  48
BRANCH  45  50
ATOM     50  O   UNL     1       6.568   3.434  21.693  0.00  0.00    -0.383 OA
ATOM     51  H   UNL     1       5.853   3.841  22.223  0.00  0.00    +0.210 HD
ENDBRANCH  45  50
BRANCH  47  52
ATOM     52  O   UNL     1       5.358   5.253  23.382  0.00  0.00    -0.340 OA
BRANCH  52  53
ATOM     53  C   UNL     1       4.320   6.232  23.562  0.00  0.00    +0.282 C 
ATOM     54  O   UNL     1       3.456   5.812  24.631  0.00  0.00    -0.341 OA
ATOM     55  C   UNL     1       2.689   4.621  24.363  0.00  0.00    +0.178 C 
ATOM     56  C   UNL     1       1.865   4.735  23.058  0.00  0.00    +0.177 C 
ATOM     57  C   UNL     1       2.742   5.210  21.896  0.00  0.00    +0.179 C 
ATOM     58  C   UNL     1       3.471   6.502  22.300  0.00  0.00    +0.201 C 
BRANCH  58  59
ATOM     59  O   UNL     1       4.236   7.029  21.206  0.00  0.00    -0.384 OA
ATOM     60  H   UNL     1       5.004   7.492  21.593  0.00  0.00    +0.210 HD
ENDBRANCH  58  59
BRANCH  57  61
ATOM     61  O   UNL     1       3.671   4.196  21.483  0.00  0.00    -0.386 OA
ATOM     62  H   UNL     1       4.574   4.528  21.682  0.00  0.00    +0.210 HD
ENDBRANCH  57  61
BRANCH  56  63
ATOM     63  O   UNL     1       0.788   5.663  23.228  0.00  0.00    -0.386 OA
ATOM     64  H   UNL     1       0.244   5.663  22.420  0.00  0.00    +0.210 HD
ENDBRANCH  56  63
BRANCH  55  65
ATOM     65  C   UNL     1       1.750   4.344  25.557  0.00  0.00    +0.190 C 
BRANCH  65  66
ATOM     66  O   UNL     1       0.501   3.780  25.161  0.00  0.00    -0.392 OA
ATOM     67  H   UNL     1       0.622   3.318  24.316  0.00  0.00    +0.210 HD
ENDBRANCH  65  66
ENDBRANCH  55  65
ENDBRANCH  52  53
ENDBRANCH  47  52
ENDBRANCH  40  44
ENDBRANCH   1  40
TORSDOF 22
ENDMDL
MODEL 5
REMARK VINA RESULT:      -6.4      2.374      5.695
REMARK  Name = 
REMARK  23 active torsions:
REMARK  status: ('A' for Active; 'I' for Inactive)
REMARK    1  A    between atoms: C_1  and  C_2
REMARK    2  A    between atoms: C_3  and  O_48
REMARK    3  A    between atoms: C_5  and  O_47
REMARK    4  A    between atoms: C_7  and  O_46
REMARK    5  A    between atoms: C_8  and  O_11
REMARK    6  A    between atoms: O_11  and  C_12
REMARK    7  A    between atoms: C_14  and  O_45
REMARK    8  A    between atoms: C_19  and  C_37
REMARK    9  A    between atoms: C_20  and  O_23
REMARK   10  A    between atoms: O_23  and  C_24
REMARK   11  A    between atoms: C_26  and  O_36
REMARK   12  A    between atoms: C_27  and  O_35
REMARK   13  A    between atoms: C_28  and  O_34
REMARK   14  A    between atoms: C_30  and  C_32
REMARK   15  A    between atoms: C_32  and  O_33
REMARK   16  A    between atoms: C_39  and  O_44
REMARK   17  A    between atoms: C_40  and  O_43
REMARK   18  A    between atoms: O_48  and  C_49
REMARK   19  A    between atoms: C_51  and  O_62
REMARK   20  A    between atoms: C_52  and  O_61
REMARK   21  A    between atoms: C_54  and  O_60
REMARK   22  A    between atoms: C_56  and  C_58
REMARK   23  A    between atoms: C_58  and  O_59
REMARK                            x       y       z     vdW  Elec       q    Type
REMARK                         _______ _______ _______ _____ _____    ______ ____
ROOT
ATOM      1  C   UNL     1       7.330  -2.403  22.428  0.00  0.00    +0.131 A 
ATOM      2  C   UNL     1       6.485  -1.989  23.468  0.00  0.00    +0.093 A 
ATOM      3  C   UNL     1       5.418  -2.804  23.867  0.00  0.00    +0.147 A 
ATOM      4  O   UNL     1       4.571  -2.362  24.857  0.00  0.00    -0.451 OA
ATOM      5  C   UNL     1       3.658  -3.269  25.437  0.00  0.00    +0.181 A 
ATOM      6  C   UNL     1       3.363  -4.468  24.862  0.00  0.00    +0.214 A 
ATOM      7  C   UNL     1       3.946  -4.674  23.500  0.00  0.00    +0.238 A 
ATOM      8  O   UNL     1       3.367  -5.257  22.601  0.00  0.00    -0.283 OA
ATOM      9  C   UNL     1       5.209  -4.008  23.217  0.00  0.00    +0.109 A 
ATOM     10  C   UNL     1       6.091  -4.457  22.233  0.00  0.00    +0.135 A 
ATOM     11  C   UNL     1       7.149  -3.653  21.839  0.00  0.00    +0.092 A 
ENDROOT
BRANCH   5  12
ATOM     12  C   UNL     1       3.037  -2.730  26.705  0.00  0.00    +0.025 A 
ATOM     13  C   UNL     1       1.744  -2.167  26.752  0.00  0.00    +0.015 A 
ATOM     14  C   UNL     1       1.185  -1.647  27.924  0.00  0.00    +0.050 A 
ATOM     15  C   UNL     1       1.920  -1.671  29.090  0.00  0.00    +0.158 A 
ATOM     16  C   UNL     1       3.206  -2.194  29.091  0.00  0.00    +0.159 A 
ATOM     17  C   UNL     1       3.764  -2.720  27.919  0.00  0.00    +0.060 A 
BRANCH  16  18
ATOM     18  O   UNL     1       3.889  -2.159  30.277  0.00  0.00    -0.503 OA
ATOM     19  H   UNL     1       4.572  -1.471  30.220  0.00  0.00    +0.292 HD
ENDBRANCH  16  18
BRANCH  15  20
ATOM     20  O   UNL     1       1.367  -1.169  30.231  0.00  0.00    -0.503 OA
ATOM     21  H   UNL     1       1.034  -1.952  30.711  0.00  0.00    +0.292 HD
ENDBRANCH  15  20
ENDBRANCH   5  12
BRANCH  10  22
ATOM     22  O   UNL     1       5.946  -5.696  21.676  0.00  0.00    -0.506 OA
ATOM     23  H   UNL     1       5.080  -6.064  21.920  0.00  0.00    +0.292 HD
ENDBRANCH  10  22
BRANCH   6  24
ATOM     24  O   UNL     1       2.565  -5.436  25.471  0.00  0.00    -0.453 OA
BRANCH  24  25
ATOM     25  C   UNL     1       3.058  -6.784  25.552  0.00  0.00    +0.340 C 
ATOM     26  O   UNL     1       2.743  -7.518  24.365  0.00  0.00    -0.331 OA
ATOM     27  C   UNL     1       1.388  -7.986  24.278  0.00  0.00    +0.179 C 
ATOM     28  C   UNL     1       1.064  -8.897  25.468  0.00  0.00    +0.177 C 
ATOM     29  C   UNL     1       1.183  -8.078  26.750  0.00  0.00    +0.180 C 
ATOM     30  C   UNL     1       2.587  -7.476  26.856  0.00  0.00    +0.214 C 
BRANCH  29  31
ATOM     31  O   UNL     1       0.905  -8.945  27.865  0.00  0.00    -0.386 OA
ATOM     32  H   UNL     1       0.844  -8.388  28.664  0.00  0.00    +0.210 HD
ENDBRANCH  29  31
BRANCH  30  33
ATOM     33  O   UNL     1       2.666  -6.616  28.003  0.00  0.00    -0.383 OA
ATOM     34  H   UNL     1       2.893  -5.723  27.684  0.00  0.00    +0.210 HD
ENDBRANCH  30  33
BRANCH  28  35
ATOM     35  O   UNL     1       1.994  -9.988  25.550  0.00  0.00    -0.386 OA
ATOM     36  H   UNL     1       1.641 -10.596  26.226  0.00  0.00    +0.210 HD
ENDBRANCH  28  35
BRANCH  27  37
ATOM     37  C   UNL     1       1.223  -8.706  22.928  0.00  0.00    +0.190 C 
BRANCH  37  38
ATOM     38  O   UNL     1       1.841  -8.009  21.852  0.00  0.00    -0.392 OA
ATOM     39  H   UNL     1       1.756  -7.059  22.066  0.00  0.00    +0.210 HD
ENDBRANCH  37  38
ENDBRANCH  27  37
ENDBRANCH  24  25
ENDBRANCH   6  24
BRANCH   1  40
ATOM     40  O   UNL     1       8.352  -1.699  21.862  0.00  0.00    -0.461 OA
BRANCH  40  44
ATOM     41  C   UNL     1      10.163  -0.099  25.421  0.00  0.00    +0.041 C 
ATOM     42  C   UNL     1       8.996   0.562  24.684  0.00  0.00    +0.151 C 
ATOM     43  O   UNL     1       8.326  -0.366  23.824  0.00  0.00    -0.334 OA
ATOM     44  C   UNL     1       9.066  -0.760  22.661  0.00  0.00    +0.339 C 
ATOM     45  C   UNL     1       9.372   0.474  21.781  0.00  0.00    +0.214 C 
ATOM     46  C   UNL     1      10.175   1.464  22.633  0.00  0.00    +0.180 C 
ATOM     47  C   UNL     1       9.407   1.837  23.919  0.00  0.00    +0.181 C 
BRANCH  46  48
ATOM     48  O   UNL     1      10.520   2.635  21.882  0.00  0.00    -0.386 OA
ATOM     49  H   UNL     1      11.489   2.719  21.868  0.00  0.00    +0.210 HD
ENDBRANCH  46  48
BRANCH  45  50
ATOM     50  O   UNL     1       8.164   1.075  21.281  0.00  0.00    -0.383 OA
ATOM     51  H   UNL     1       7.430   0.461  21.485  0.00  0.00    +0.210 HD
ENDBRANCH  45  50
BRANCH  47  52
ATOM     52  O   UNL     1       8.281   2.666  23.534  0.00  0.00    -0.340 OA
BRANCH  52  53
ATOM     53  C   UNL     1       8.009   3.833  24.329  0.00  0.00    +0.282 C 
ATOM     54  O   UNL     1       6.707   3.706  24.924  0.00  0.00    -0.341 OA
ATOM     55  C   UNL     1       5.607   3.725  23.992  0.00  0.00    +0.178 C 
ATOM     56  C   UNL     1       5.630   4.977  23.082  0.00  0.00    +0.177 C 
ATOM     57  C   UNL     1       7.011   5.170  22.451  0.00  0.00    +0.179 C 
ATOM     58  C   UNL     1       8.084   5.166  23.553  0.00  0.00    +0.201 C 
BRANCH  58  59
ATOM     59  O   UNL     1       9.385   5.433  23.010  0.00  0.00    -0.384 OA
ATOM     60  H   UNL     1       9.963   4.693  23.280  0.00  0.00    +0.210 HD
ENDBRANCH  58  59
BRANCH  57  61
ATOM     61  O   UNL     1       7.284   4.169  21.457  0.00  0.00    -0.386 OA
ATOM     62  H   UNL     1       6.439   3.704  21.271  0.00  0.00    +0.210 HD
ENDBRANCH  57  61
BRANCH  56  63
ATOM     63  O   UNL     1       5.306   6.149  23.840  0.00  0.00    -0.386 OA
ATOM     64  H   UNL     1       5.690   6.925  23.395  0.00  0.00    +0.210 HD
ENDBRANCH  56  63
BRANCH  55  65
ATOM     65  C   UNL     1       4.278   3.668  24.776  0.00  0.00    +0.190 C 
BRANCH  65  66
ATOM     66  O   UNL     1       3.739   2.350  24.860  0.00  0.00    -0.392 OA
ATOM     67  H   UNL     1       4.462   1.711  24.753  0.00  0.00    +0.210 HD
ENDBRANCH  65  66
ENDBRANCH  55  65
ENDBRANCH  52  53
ENDBRANCH  47  52
ENDBRANCH  40  44
ENDBRANCH   1  40
TORSDOF 22
ENDMDL
MODEL 6
REMARK VINA RESULT:      -6.4      1.921      2.738
REMARK  Name = 
REMARK  23 active torsions:
REMARK  status: ('A' for Active; 'I' for Inactive)
REMARK    1  A    between atoms: C_1  and  C_2
REMARK    2  A    between atoms: C_3  and  O_48
REMARK    3  A    between atoms: C_5  and  O_47
REMARK    4  A    between atoms: C_7  and  O_46
REMARK    5  A    between atoms: C_8  and  O_11
REMARK    6  A    between atoms: O_11  and  C_12
REMARK    7  A    between atoms: C_14  and  O_45
REMARK    8  A    between atoms: C_19  and  C_37
REMARK    9  A    between atoms: C_20  and  O_23
REMARK   10  A    between atoms: O_23  and  C_24
REMARK   11  A    between atoms: C_26  and  O_36
REMARK   12  A    between atoms: C_27  and  O_35
REMARK   13  A    between atoms: C_28  and  O_34
REMARK   14  A    between atoms: C_30  and  C_32
REMARK   15  A    between atoms: C_32  and  O_33
REMARK   16  A    between atoms: C_39  and  O_44
REMARK   17  A    between atoms: C_40  and  O_43
REMARK   18  A    between atoms: O_48  and  C_49
REMARK   19  A    between atoms: C_51  and  O_62
REMARK   20  A    between atoms: C_52  and  O_61
REMARK   21  A    between atoms: C_54  and  O_60
REMARK   22  A    between atoms: C_56  and  C_58
REMARK   23  A    between atoms: C_58  and  O_59
REMARK                            x       y       z     vdW  Elec       q    Type
REMARK                         _______ _______ _______ _____ _____    ______ ____
ROOT
ATOM      1  C   UNL     1       4.795   1.112  28.241  0.00  0.00    +0.131 A 
ATOM      2  C   UNL     1       5.414   0.217  27.357  0.00  0.00    +0.093 A 
ATOM      3  C   UNL     1       4.821  -1.025  27.092  0.00  0.00    +0.147 A 
ATOM      4  O   UNL     1       5.466  -1.910  26.259  0.00  0.00    -0.451 OA
ATOM      5  C   UNL     1       4.768  -3.043  25.788  0.00  0.00    +0.181 A 
ATOM      6  C   UNL     1       3.603  -3.465  26.353  0.00  0.00    +0.214 A 
ATOM      7  C   UNL     1       3.212  -2.741  27.603  0.00  0.00    +0.238 A 
ATOM      8  O   UNL     1       2.680  -3.282  28.556  0.00  0.00    -0.283 OA
ATOM      9  C   UNL     1       3.632  -1.352  27.718  0.00  0.00    +0.109 A 
ATOM     10  C   UNL     1       2.976  -0.434  28.540  0.00  0.00    +0.135 A 
ATOM     11  C   UNL     1       3.559   0.796  28.801  0.00  0.00    +0.092 A 
ENDROOT
BRANCH   5  12
ATOM     12  C   UNL     1       5.487  -3.732  24.650  0.00  0.00    +0.025 A 
ATOM     13  C   UNL     1       6.540  -4.650  24.845  0.00  0.00    +0.015 A 
ATOM     14  C   UNL     1       7.217  -5.264  23.786  0.00  0.00    +0.050 A 
ATOM     15  C   UNL     1       6.858  -4.961  22.491  0.00  0.00    +0.158 A 
ATOM     16  C   UNL     1       5.844  -4.047  22.245  0.00  0.00    +0.159 A 
ATOM     17  C   UNL     1       5.160  -3.436  23.305  0.00  0.00    +0.060 A 
BRANCH  16  18
ATOM     18  O   UNL     1       5.559  -3.772  20.935  0.00  0.00    -0.503 OA
ATOM     19  H   UNL     1       6.302  -4.075  20.386  0.00  0.00    +0.292 HD
ENDBRANCH  16  18
BRANCH  15  20
ATOM     20  O   UNL     1       7.517  -5.568  21.463  0.00  0.00    -0.503 OA
ATOM     21  H   UNL     1       8.072  -6.250  21.890  0.00  0.00    +0.292 HD
ENDBRANCH  15  20
ENDBRANCH   5  12
BRANCH  10  22
ATOM     22  O   UNL     1       1.746  -0.719  29.064  0.00  0.00    -0.506 OA
ATOM     23  H   UNL     1       1.680  -1.672  29.242  0.00  0.00    +0.292 HD
ENDBRANCH  10  22
BRANCH   6  24
ATOM     24  O   UNL     1       2.827  -4.501  25.834  0.00  0.00    -0.453 OA
BRANCH  24  25
ATOM     25  C   UNL     1       3.427  -5.798  25.677  0.00  0.00    +0.340 C 
ATOM     26  O   UNL     1       3.222  -6.302  24.354  0.00  0.00    -0.331 OA
ATOM     27  C   UNL     1       1.914  -6.841  24.102  0.00  0.00    +0.179 C 
ATOM     28  C   UNL     1       1.620  -7.993  25.071  0.00  0.00    +0.177 C 
ATOM     29  C   UNL     1       1.620  -7.439  26.493  0.00  0.00    +0.180 C 
ATOM     30  C   UNL     1       2.964  -6.769  26.792  0.00  0.00    +0.214 C 
BRANCH  29  31
ATOM     31  O   UNL     1       1.371  -8.529  27.400  0.00  0.00    -0.386 OA
ATOM     32  H   UNL     1       2.235  -8.894  27.668  0.00  0.00    +0.210 HD
ENDBRANCH  29  31
BRANCH  30  33
ATOM     33  O   UNL     1       2.926  -6.152  28.088  0.00  0.00    -0.383 OA
ATOM     34  H   UNL     1       3.825  -5.830  28.285  0.00  0.00    +0.210 HD
ENDBRANCH  30  33
BRANCH  28  35
ATOM     35  O   UNL     1       2.633  -9.007  24.989  0.00  0.00    -0.386 OA
ATOM     36  H   UNL     1       2.483  -9.603  25.746  0.00  0.00    +0.210 HD
ENDBRANCH  28  35
BRANCH  27  37
ATOM     37  C   UNL     1       1.863  -7.287  22.630  0.00  0.00    +0.190 C 
BRANCH  37  38
ATOM     38  O   UNL     1       1.478  -8.648  22.479  0.00  0.00    -0.392 OA
ATOM     39  H   UNL     1       1.680  -8.880  21.550  0.00  0.00    +0.210 HD
ENDBRANCH  37  38
ENDBRANCH  27  37
ENDBRANCH  24  25
ENDBRANCH   6  24
BRANCH   1  40
ATOM     40  O   UNL     1       5.275   2.313  28.673  0.00  0.00    -0.461 OA
BRANCH  40  44
ATOM     41  C   UNL     1       3.891   5.172  25.771  0.00  0.00    +0.041 C 
ATOM     42  C   UNL     1       4.921   4.079  25.473  0.00  0.00    +0.151 C 
ATOM     43  O   UNL     1       4.874   3.033  26.449  0.00  0.00    -0.334 OA
ATOM     44  C   UNL     1       5.370   3.391  27.745  0.00  0.00    +0.339 C 
ATOM     45  C   UNL     1       6.858   3.804  27.652  0.00  0.00    +0.214 C 
ATOM     46  C   UNL     1       6.950   4.990  26.683  0.00  0.00    +0.180 C 
ATOM     47  C   UNL     1       6.353   4.626  25.306  0.00  0.00    +0.181 C 
BRANCH  46  48
ATOM     48  O   UNL     1       8.300   5.450  26.554  0.00  0.00    -0.386 OA
ATOM     49  H   UNL     1       8.313   6.197  25.931  0.00  0.00    +0.210 HD
ENDBRANCH  46  48
BRANCH  45  50
ATOM     50  O   UNL     1       7.680   2.707  27.215  0.00  0.00    -0.383 OA
ATOM     51  H   UNL     1       7.687   2.722  26.237  0.00  0.00    +0.210 HD
ENDBRANCH  45  50
BRANCH  47  52
ATOM     52  O   UNL     1       7.258   3.689  24.670  0.00  0.00    -0.340 OA
BRANCH  52  53
ATOM     53  C   UNL     1       6.679   2.579  23.963  0.00  0.00    +0.282 C 
ATOM     54  O   UNL     1       7.167   1.351  24.530  0.00  0.00    -0.341 OA
ATOM     55  C   UNL     1       8.577   1.112  24.344  0.00  0.00    +0.178 C 
ATOM     56  C   UNL     1       8.993   1.184  22.855  0.00  0.00    +0.177 C 
ATOM     57  C   UNL     1       8.465   2.464  22.200  0.00  0.00    +0.179 C 
ATOM     58  C   UNL     1       6.951   2.577  22.442  0.00  0.00    +0.201 C 
BRANCH  58  59
ATOM     59  O   UNL     1       6.402   3.719  21.768  0.00  0.00    -0.384 OA
ATOM     60  H   UNL     1       6.804   4.510  22.178  0.00  0.00    +0.210 HD
ENDBRANCH  58  59
BRANCH  57  61
ATOM     61  O   UNL     1       9.156   3.628  22.680  0.00  0.00    -0.386 OA
ATOM     62  H   UNL     1       8.542   4.108  23.277  0.00  0.00    +0.210 HD
ENDBRANCH  57  61
BRANCH  56  63
ATOM     63  O   UNL     1       8.475   0.057  22.138  0.00  0.00    -0.386 OA
ATOM     64  H   UNL     1       8.789   0.101  21.217  0.00  0.00    +0.210 HD
ENDBRANCH  56  63
BRANCH  55  65
ATOM     65  C   UNL     1       8.936  -0.272  24.925  0.00  0.00    +0.190 C 
BRANCH  65  66
ATOM     66  O   UNL     1       7.893  -1.232  24.761  0.00  0.00    -0.392 OA
ATOM     67  H   UNL     1       8.135  -1.833  24.038  0.00  0.00    +0.210 HD
ENDBRANCH  65  66
ENDBRANCH  55  65
ENDBRANCH  52  53
ENDBRANCH  47  52
ENDBRANCH  40  44
ENDBRANCH   1  40
TORSDOF 22
ENDMDL
MODEL 7
REMARK VINA RESULT:      -6.4      2.280      9.728
REMARK  Name = 
REMARK  23 active torsions:
REMARK  status: ('A' for Active; 'I' for Inactive)
REMARK    1  A    between atoms: C_1  and  C_2
REMARK    2  A    between atoms: C_3  and  O_48
REMARK    3  A    between atoms: C_5  and  O_47
REMARK    4  A    between atoms: C_7  and  O_46
REMARK    5  A    between atoms: C_8  and  O_11
REMARK    6  A    between atoms: O_11  and  C_12
REMARK    7  A    between atoms: C_14  and  O_45
REMARK    8  A    between atoms: C_19  and  C_37
REMARK    9  A    between atoms: C_20  and  O_23
REMARK   10  A    between atoms: O_23  and  C_24
REMARK   11  A    between atoms: C_26  and  O_36
REMARK   12  A    between atoms: C_27  and  O_35
REMARK   13  A    between atoms: C_28  and  O_34
REMARK   14  A    between atoms: C_30  and  C_32
REMARK   15  A    between atoms: C_32  and  O_33
REMARK   16  A    between atoms: C_39  and  O_44
REMARK   17  A    between atoms: C_40  and  O_43
REMARK   18  A    between atoms: O_48  and  C_49
REMARK   19  A    between atoms: C_51  and  O_62
REMARK   20  A    between atoms: C_52  and  O_61
REMARK   21  A    between atoms: C_54  and  O_60
REMARK   22  A    between atoms: C_56  and  C_58
REMARK   23  A    between atoms: C_58  and  O_59
REMARK                            x       y       z     vdW  Elec       q    Type
REMARK                         _______ _______ _______ _____ _____    ______ ____
ROOT
ATOM      1  C   UNL     1       7.274  -3.139  22.295  0.00  0.00    +0.131 A 
ATOM      2  C   UNL     1       6.475  -2.059  22.697  0.00  0.00    +0.093 A 
ATOM      3  C   UNL     1       7.056  -0.803  22.911  0.00  0.00    +0.147 A 
ATOM      4  O   UNL     1       6.266   0.235  23.350  0.00  0.00    -0.451 OA
ATOM      5  C   UNL     1       6.780   1.549  23.324  0.00  0.00    +0.181 A 
ATOM      6  C   UNL     1       8.110   1.805  23.179  0.00  0.00    +0.214 A 
ATOM      7  C   UNL     1       8.992   0.597  23.216  0.00  0.00    +0.238 A 
ATOM      8  O   UNL     1      10.093   0.583  23.734  0.00  0.00    -0.283 OA
ATOM      9  C   UNL     1       8.419  -0.650  22.730  0.00  0.00    +0.109 A 
ATOM     10  C   UNL     1       9.204  -1.703  22.259  0.00  0.00    +0.135 A 
ATOM     11  C   UNL     1       8.631  -2.947  22.044  0.00  0.00    +0.092 A 
ENDROOT
BRANCH   5  12
ATOM     12  C   UNL     1       5.706   2.593  23.525  0.00  0.00    +0.025 A 
ATOM     13  C   UNL     1       4.812   2.581  24.617  0.00  0.00    +0.015 A 
ATOM     14  C   UNL     1       3.804   3.536  24.783  0.00  0.00    +0.050 A 
ATOM     15  C   UNL     1       3.658   4.533  23.842  0.00  0.00    +0.158 A 
ATOM     16  C   UNL     1       4.497   4.576  22.738  0.00  0.00    +0.159 A 
ATOM     17  C   UNL     1       5.512   3.623  22.574  0.00  0.00    +0.060 A 
BRANCH  16  18
ATOM     18  O   UNL     1       4.278   5.576  21.830  0.00  0.00    -0.503 OA
ATOM     19  H   UNL     1       3.360   5.515  21.518  0.00  0.00    +0.292 HD
ENDBRANCH  16  18
BRANCH  15  20
ATOM     20  O   UNL     1       2.678   5.465  24.013  0.00  0.00    -0.503 OA
ATOM     21  H   UNL     1       2.367   5.335  24.930  0.00  0.00    +0.292 HD
ENDBRANCH  15  20
ENDBRANCH   5  12
BRANCH  10  22
ATOM     22  O   UNL     1      10.528  -1.517  21.973  0.00  0.00    -0.506 OA
ATOM     23  H   UNL     1      10.762  -0.583  22.111  0.00  0.00    +0.292 HD
ENDBRANCH  10  22
BRANCH   6  24
ATOM     24  O   UNL     1       8.633   3.089  23.024  0.00  0.00    -0.453 OA
BRANCH  24  25
ATOM     25  C   UNL     1       9.051   3.808  24.196  0.00  0.00    +0.340 C 
ATOM     26  O   UNL     1       8.170   4.901  24.470  0.00  0.00    -0.331 OA
ATOM     27  C   UNL     1       8.365   6.064  23.649  0.00  0.00    +0.179 C 
ATOM     28  C   UNL     1       9.797   6.590  23.808  0.00  0.00    +0.177 C 
ATOM     29  C   UNL     1      10.764   5.517  23.318  0.00  0.00    +0.180 C 
ATOM     30  C   UNL     1      10.543   4.219  24.099  0.00  0.00    +0.214 C 
BRANCH  29  31
ATOM     31  O   UNL     1      12.107   6.007  23.496  0.00  0.00    -0.386 OA
ATOM     32  H   UNL     1      12.457   6.232  22.614  0.00  0.00    +0.210 HD
ENDBRANCH  29  31
BRANCH  30  33
ATOM     33  O   UNL     1      11.374   3.177  23.566  0.00  0.00    -0.383 OA
ATOM     34  H   UNL     1      11.896   2.812  24.303  0.00  0.00    +0.210 HD
ENDBRANCH  30  33
BRANCH  28  35
ATOM     35  O   UNL     1      10.095   6.863  25.186  0.00  0.00    -0.386 OA
ATOM     36  H   UNL     1       9.841   6.063  25.682  0.00  0.00    +0.210 HD
ENDBRANCH  28  35
BRANCH  27  37
ATOM     37  C   UNL     1       7.309   7.108  24.049  0.00  0.00    +0.190 C 
BRANCH  37  38
ATOM     38  O   UNL     1       6.343   6.595  24.960  0.00  0.00    -0.392 OA
ATOM     39  H   UNL     1       6.377   7.181  25.742  0.00  0.00    +0.210 HD
ENDBRANCH  37  38
ENDBRANCH  27  37
ENDBRANCH  24  25
ENDBRANCH   6  24
BRANCH   1  40
ATOM     40  O   UNL     1       6.888  -4.437  22.130  0.00  0.00    -0.461 OA
BRANCH  40  44
ATOM     41  C   UNL     1       2.932  -5.626  23.329  0.00  0.00    +0.041 C 
ATOM     42  C   UNL     1       3.746  -4.535  24.028  0.00  0.00    +0.151 C 
ATOM     43  O   UNL     1       4.803  -4.052  23.192  0.00  0.00    -0.334 OA
ATOM     44  C   UNL     1       5.883  -4.971  22.987  0.00  0.00    +0.339 C 
ATOM     45  C   UNL     1       6.550  -5.319  24.339  0.00  0.00    +0.214 C 
ATOM     46  C   UNL     1       5.473  -5.930  25.244  0.00  0.00    +0.180 C 
ATOM     47  C   UNL     1       4.278  -4.966  25.409  0.00  0.00    +0.181 C 
BRANCH  46  48
ATOM     48  O   UNL     1       6.016  -6.301  26.517  0.00  0.00    -0.386 OA
ATOM     49  H   UNL     1       5.297  -6.662  27.065  0.00  0.00    +0.210 HD
ENDBRANCH  46  48
BRANCH  45  50
ATOM     50  O   UNL     1       7.144  -4.156  24.944  0.00  0.00    -0.383 OA
ATOM     51  H   UNL     1       7.241  -3.482  24.242  0.00  0.00    +0.210 HD
ENDBRANCH  45  50
BRANCH  47  52
ATOM     52  O   UNL     1       4.720  -3.856  26.230  0.00  0.00    -0.340 OA
BRANCH  52  53
ATOM     53  C   UNL     1       4.253  -2.541  25.881  0.00  0.00    +0.282 C 
ATOM     54  O   UNL     1       5.381  -1.662  25.735  0.00  0.00    -0.341 OA
ATOM     55  C   UNL     1       6.109  -1.399  26.951  0.00  0.00    +0.178 C 
ATOM     56  C   UNL     1       5.193  -0.868  28.080  0.00  0.00    +0.177 C 
ATOM     57  C   UNL     1       3.960  -1.758  28.249  0.00  0.00    +0.179 C 
ATOM     58  C   UNL     1       3.259  -1.927  26.891  0.00  0.00    +0.201 C 
BRANCH  58  59
ATOM     59  O   UNL     1       2.047  -2.683  27.024  0.00  0.00    -0.384 OA
ATOM     60  H   UNL     1       1.837  -2.719  27.977  0.00  0.00    +0.210 HD
ENDBRANCH  58  59
BRANCH  57  61
ATOM     61  O   UNL     1       4.299  -3.031  28.820  0.00  0.00    -0.386 OA
ATOM     62  H   UNL     1       4.938  -3.464  28.212  0.00  0.00    +0.210 HD
ENDBRANCH  57  61
BRANCH  56  63
ATOM     63  O   UNL     1       4.759   0.465  27.784  0.00  0.00    -0.386 OA
ATOM     64  H   UNL     1       4.230   0.446  26.966  0.00  0.00    +0.210 HD
ENDBRANCH  56  63
BRANCH  55  65
ATOM     65  C   UNL     1       7.231  -0.380  26.659  0.00  0.00    +0.190 C 
BRANCH  65  66
ATOM     66  O   UNL     1       7.705   0.277  27.833  0.00  0.00    -0.392 OA
ATOM     67  H   UNL     1       8.591   0.632  27.655  0.00  0.00    +0.210 HD
ENDBRANCH  65  66
ENDBRANCH  55  65
ENDBRANCH  52  53
ENDBRANCH  47  52
ENDBRANCH  40  44
ENDBRANCH   1  40
TORSDOF 22
ENDMDL
MODEL 8
REMARK VINA RESULT:      -6.4      1.869      2.695
REMARK  Name = 
REMARK  23 active torsions:
REMARK  status: ('A' for Active; 'I' for Inactive)
REMARK    1  A    between atoms: C_1  and  C_2
REMARK    2  A    between atoms: C_3  and  O_48
REMARK    3  A    between atoms: C_5  and  O_47
REMARK    4  A    between atoms: C_7  and  O_46
REMARK    5  A    between atoms: C_8  and  O_11
REMARK    6  A    between atoms: O_11  and  C_12
REMARK    7  A    between atoms: C_14  and  O_45
REMARK    8  A    between atoms: C_19  and  C_37
REMARK    9  A    between atoms: C_20  and  O_23
REMARK   10  A    between atoms: O_23  and  C_24
REMARK   11  A    between atoms: C_26  and  O_36
REMARK   12  A    between atoms: C_27  and  O_35
REMARK   13  A    between atoms: C_28  and  O_34
REMARK   14  A    between atoms: C_30  and  C_32
REMARK   15  A    between atoms: C_32  and  O_33
REMARK   16  A    between atoms: C_39  and  O_44
REMARK   17  A    between atoms: C_40  and  O_43
REMARK   18  A    between atoms: O_48  and  C_49
REMARK   19  A    between atoms: C_51  and  O_62
REMARK   20  A    between atoms: C_52  and  O_61
REMARK   21  A    between atoms: C_54  and  O_60
REMARK   22  A    between atoms: C_56  and  C_58
REMARK   23  A    between atoms: C_58  and  O_59
REMARK                            x       y       z     vdW  Elec       q    Type
REMARK                         _______ _______ _______ _____ _____    ______ ____
ROOT
ATOM      1  C   UNL     1       4.651   1.271  27.931  0.00  0.00    +0.131 A 
ATOM      2  C   UNL     1       5.300   0.313  27.140  0.00  0.00    +0.093 A 
ATOM      3  C   UNL     1       4.601  -0.818  26.699  0.00  0.00    +0.147 A 
ATOM      4  O   UNL     1       5.266  -1.772  25.962  0.00  0.00    -0.451 OA
ATOM      5  C   UNL     1       4.521  -2.775  25.305  0.00  0.00    +0.181 A 
ATOM      6  C   UNL     1       3.218  -3.028  25.609  0.00  0.00    +0.214 A 
ATOM      7  C   UNL     1       2.692  -2.283  26.795  0.00  0.00    +0.238 A 
ATOM      8  O   UNL     1       1.908  -2.759  27.596  0.00  0.00    -0.283 OA
ATOM      9  C   UNL     1       3.276  -0.976  27.063  0.00  0.00    +0.109 A 
ATOM     10  C   UNL     1       2.606   0.011  27.788  0.00  0.00    +0.135 A 
ATOM     11  C   UNL     1       3.295   1.132  28.222  0.00  0.00    +0.092 A 
ENDROOT
BRANCH   5  12
ATOM     12  C   UNL     1       5.347  -3.538  24.294  0.00  0.00    +0.025 A 
ATOM     13  C   UNL     1       4.878  -3.868  23.006  0.00  0.00    +0.015 A 
ATOM     14  C   UNL     1       5.639  -4.595  22.084  0.00  0.00    +0.050 A 
ATOM     15  C   UNL     1       6.899  -5.024  22.441  0.00  0.00    +0.158 A 
ATOM     16  C   UNL     1       7.398  -4.746  23.705  0.00  0.00    +0.159 A 
ATOM     17  C   UNL     1       6.639  -4.011  24.626  0.00  0.00    +0.060 A 
BRANCH  16  18
ATOM     18  O   UNL     1       8.644  -5.226  24.001  0.00  0.00    -0.503 OA
ATOM     19  H   UNL     1       8.565  -6.164  24.245  0.00  0.00    +0.292 HD
ENDBRANCH  16  18
BRANCH  15  20
ATOM     20  O   UNL     1       7.638  -5.728  21.536  0.00  0.00    -0.503 OA
ATOM     21  H   UNL     1       6.993  -6.304  21.082  0.00  0.00    +0.292 HD
ENDBRANCH  15  20
ENDBRANCH   5  12
BRANCH  10  22
ATOM     22  O   UNL     1       1.268  -0.097  28.046  0.00  0.00    -0.506 OA
ATOM     23  H   UNL     1       0.767   0.415  27.389  0.00  0.00    +0.292 HD
ENDBRANCH  10  22
BRANCH   6  24
ATOM     24  O   UNL     1       2.422  -3.924  24.895  0.00  0.00    -0.453 OA
BRANCH  24  25
ATOM     25  C   UNL     1       2.028  -5.152  25.529  0.00  0.00    +0.340 C 
ATOM     26  O   UNL     1       3.063  -5.643  26.386  0.00  0.00    -0.331 OA
ATOM     27  C   UNL     1       4.150  -6.301  25.715  0.00  0.00    +0.179 C 
ATOM     28  C   UNL     1       3.628  -7.498  24.910  0.00  0.00    +0.177 C 
ATOM     29  C   UNL     1       2.676  -6.979  23.836  0.00  0.00    +0.180 C 
ATOM     30  C   UNL     1       1.537  -6.189  24.486  0.00  0.00    +0.214 C 
BRANCH  29  31
ATOM     31  O   UNL     1       2.169  -8.109  23.101  0.00  0.00    -0.386 OA
ATOM     32  H   UNL     1       2.485  -8.028  22.182  0.00  0.00    +0.210 HD
ENDBRANCH  29  31
BRANCH  30  33
ATOM     33  O   UNL     1       0.703  -5.607  23.474  0.00  0.00    -0.383 OA
ATOM     34  H   UNL     1       1.055  -5.885  22.608  0.00  0.00    +0.210 HD
ENDBRANCH  30  33
BRANCH  28  35
ATOM     35  O   UNL     1       2.900  -8.406  25.749  0.00  0.00    -0.386 OA
ATOM     36  H   UNL     1       2.556  -9.104  25.161  0.00  0.00    +0.210 HD
ENDBRANCH  28  35
BRANCH  27  37
ATOM     37  C   UNL     1       5.180  -6.717  26.780  0.00  0.00    +0.190 C 
BRANCH  37  38
ATOM     38  O   UNL     1       4.591  -7.404  27.878  0.00  0.00    -0.392 OA
ATOM     39  H   UNL     1       4.608  -8.353  27.638  0.00  0.00    +0.210 HD
ENDBRANCH  37  38
ENDBRANCH  27  37
ENDBRANCH  24  25
ENDBRANCH   6  24
BRANCH   1  40
ATOM     40  O   UNL     1       5.202   2.375  28.512  0.00  0.00    -0.461 OA
BRANCH  40  44
ATOM     41  C   UNL     1       3.894   5.675  26.080  0.00  0.00    +0.041 C 
ATOM     42  C   UNL     1       4.861   4.589  25.601  0.00  0.00    +0.151 C 
ATOM     43  O   UNL     1       4.785   3.419  26.423  0.00  0.00    -0.334 OA
ATOM     44  C   UNL     1       5.329   3.567  27.741  0.00  0.00    +0.339 C 
ATOM     45  C   UNL     1       6.833   3.920  27.661  0.00  0.00    +0.214 C 
ATOM     46  C   UNL     1       6.961   5.225  26.865  0.00  0.00    +0.180 C 
ATOM     47  C   UNL     1       6.315   5.087  25.469  0.00  0.00    +0.181 C 
BRANCH  46  48
ATOM     48  O   UNL     1       8.330   5.636  26.760  0.00  0.00    -0.386 OA
ATOM     49  H   UNL     1       8.352   6.594  26.589  0.00  0.00    +0.210 HD
ENDBRANCH  46  48
BRANCH  45  50
ATOM     50  O   UNL     1       7.588   2.859  27.050  0.00  0.00    -0.383 OA
ATOM     51  H   UNL     1       7.016   2.449  26.371  0.00  0.00    +0.210 HD
ENDBRANCH  45  50
BRANCH  47  52
ATOM     52  O   UNL     1       7.156   4.208  24.681  0.00  0.00    -0.340 OA
BRANCH  52  53
ATOM     53  C   UNL     1       6.563   3.564  23.540  0.00  0.00    +0.282 C 
ATOM     54  O   UNL     1       6.473   2.151  23.788  0.00  0.00    -0.341 OA
ATOM     55  C   UNL     1       7.739   1.467  23.884  0.00  0.00    +0.178 C 
ATOM     56  C   UNL     1       8.631   1.708  22.642  0.00  0.00    +0.177 C 
ATOM     57  C   UNL     1       8.729   3.202  22.321  0.00  0.00    +0.179 C 
ATOM     58  C   UNL     1       7.316   3.797  22.211  0.00  0.00    +0.201 C 
BRANCH  58  59
ATOM     59  O   UNL     1       7.364   5.178  21.823  0.00  0.00    -0.384 OA
ATOM     60  H   UNL     1       6.662   5.638  22.323  0.00  0.00    +0.210 HD
ENDBRANCH  58  59
BRANCH  57  61
ATOM     61  O   UNL     1       9.514   3.904  23.298  0.00  0.00    -0.386 OA
ATOM     62  H   UNL     1       8.895   4.439  23.841  0.00  0.00    +0.210 HD
ENDBRANCH  57  61
BRANCH  56  63
ATOM     63  O   UNL     1       8.093   1.029  21.502  0.00  0.00    -0.386 OA
ATOM     64  H   UNL     1       8.695   1.158  20.748  0.00  0.00    +0.210 HD
ENDBRANCH  56  63
BRANCH  55  65
ATOM     65  C   UNL     1       7.485  -0.045  24.065  0.00  0.00    +0.190 C 
BRANCH  65  66
ATOM     66  O   UNL     1       6.379  -0.518  23.297  0.00  0.00    -0.392 OA
ATOM     67  H   UNL     1       6.575  -0.383  22.355  0.00  0.00    +0.210 HD
ENDBRANCH  65  66
ENDBRANCH  55  65
ENDBRANCH  52  53
ENDBRANCH  47  52
ENDBRANCH  40  44
ENDBRANCH   1  40
TORSDOF 22
ENDMDL
MODEL 9
REMARK VINA RESULT:      -6.3      2.253      8.894
REMARK  Name = 
REMARK  23 active torsions:
REMARK  status: ('A' for Active; 'I' for Inactive)
REMARK    1  A    between atoms: C_1  and  C_2
REMARK    2  A    between atoms: C_3  and  O_48
REMARK    3  A    between atoms: C_5  and  O_47
REMARK    4  A    between atoms: C_7  and  O_46
REMARK    5  A    between atoms: C_8  and  O_11
REMARK    6  A    between atoms: O_11  and  C_12
REMARK    7  A    between atoms: C_14  and  O_45
REMARK    8  A    between atoms: C_19  and  C_37
REMARK    9  A    between atoms: C_20  and  O_23
REMARK   10  A    between atoms: O_23  and  C_24
REMARK   11  A    between atoms: C_26  and  O_36
REMARK   12  A    between atoms: C_27  and  O_35
REMARK   13  A    between atoms: C_28  and  O_34
REMARK   14  A    between atoms: C_30  and  C_32
REMARK   15  A    between atoms: C_32  and  O_33
REMARK   16  A    between atoms: C_39  and  O_44
REMARK   17  A    between atoms: C_40  and  O_43
REMARK   18  A    between atoms: O_48  and  C_49
REMARK   19  A    between atoms: C_51  and  O_62
REMARK   20  A    between atoms: C_52  and  O_61
REMARK   21  A    between atoms: C_54  and  O_60
REMARK   22  A    between atoms: C_56  and  C_58
REMARK   23  A    between atoms: C_58  and  O_59
REMARK                            x       y       z     vdW  Elec       q    Type
REMARK                         _______ _______ _______ _____ _____    ______ ____
ROOT
ATOM      1  C   UNL     1       4.338  -1.123  27.481  0.00  0.00    +0.131 A 
ATOM      2  C   UNL     1       3.781  -0.103  26.695  0.00  0.00    +0.093 A 
ATOM      3  C   UNL     1       4.550   1.019  26.361  0.00  0.00    +0.147 A 
ATOM      4  O   UNL     1       3.974   2.032  25.628  0.00  0.00    -0.451 OA
ATOM      5  C   UNL     1       4.798   3.035  25.076  0.00  0.00    +0.181 A 
ATOM      6  C   UNL     1       6.085   3.222  25.481  0.00  0.00    +0.214 A 
ATOM      7  C   UNL     1       6.499   2.401  26.661  0.00  0.00    +0.238 A 
ATOM      8  O   UNL     1       7.241   2.808  27.537  0.00  0.00    -0.283 OA
ATOM      9  C   UNL     1       5.851   1.107  26.822  0.00  0.00    +0.109 A 
ATOM     10  C   UNL     1       6.431   0.062  27.542  0.00  0.00    +0.135 A 
ATOM     11  C   UNL     1       5.673  -1.051  27.871  0.00  0.00    +0.092 A 
ENDROOT
BRANCH   5  12
ATOM     12  C   UNL     1       4.074   3.877  24.050  0.00  0.00    +0.025 A 
ATOM     13  C   UNL     1       3.658   5.203  24.294  0.00  0.00    +0.015 A 
ATOM     14  C   UNL     1       2.966   5.967  23.348  0.00  0.00    +0.050 A 
ATOM     15  C   UNL     1       2.661   5.411  22.125  0.00  0.00    +0.158 A 
ATOM     16  C   UNL     1       3.028   4.103  21.844  0.00  0.00    +0.159 A 
ATOM     17  C   UNL     1       3.727   3.338  22.788  0.00  0.00    +0.060 A 
BRANCH  16  18
ATOM     18  O   UNL     1       2.668   3.606  20.621  0.00  0.00    -0.503 OA
ATOM     19  H   UNL     1       2.234   4.313  20.115  0.00  0.00    +0.292 HD
ENDBRANCH  16  18
BRANCH  15  20
ATOM     20  O   UNL     1       1.992   6.163  21.205  0.00  0.00    -0.503 OA
ATOM     21  H   UNL     1       1.950   5.601  20.407  0.00  0.00    +0.292 HD
ENDBRANCH  15  20
ENDBRANCH   5  12
BRANCH  10  22
ATOM     22  O   UNL     1       7.750   0.104  27.897  0.00  0.00    -0.506 OA
ATOM     23  H   UNL     1       7.852  -0.212  28.811  0.00  0.00    +0.292 HD
ENDBRANCH  10  22
BRANCH   6  24
ATOM     24  O   UNL     1       6.962   4.118  24.869  0.00  0.00    -0.453 OA
BRANCH  24  25
ATOM     25  C   UNL     1       7.585   3.735  23.632  0.00  0.00    +0.340 C 
ATOM     26  O   UNL     1       8.224   2.461  23.751  0.00  0.00    -0.331 OA
ATOM     27  C   UNL     1       9.493   2.474  24.423  0.00  0.00    +0.179 C 
ATOM     28  C   UNL     1      10.472   3.400  23.689  0.00  0.00    +0.177 C 
ATOM     29  C   UNL     1       9.917   4.821  23.731  0.00  0.00    +0.180 C 
ATOM     30  C   UNL     1       8.520   4.854  23.106  0.00  0.00    +0.214 C 
BRANCH  29  31
ATOM     31  O   UNL     1      10.826   5.679  23.017  0.00  0.00    -0.386 OA
ATOM     32  H   UNL     1      11.036   6.435  23.598  0.00  0.00    +0.210 HD
ENDBRANCH  29  31
BRANCH  30  33
ATOM     33  O   UNL     1       7.952   6.165  23.245  0.00  0.00    -0.383 OA
ATOM     34  H   UNL     1       7.093   6.067  23.693  0.00  0.00    +0.210 HD
ENDBRANCH  30  33
BRANCH  28  35
ATOM     35  O   UNL     1      10.609   3.017  22.312  0.00  0.00    -0.386 OA
ATOM     36  H   UNL     1      11.026   2.135  22.315  0.00  0.00    +0.210 HD
ENDBRANCH  28  35
BRANCH  27  37
ATOM     37  C   UNL     1      10.003   1.025  24.499  0.00  0.00    +0.190 C 
BRANCH  37  38
ATOM     38  O   UNL     1       9.732   0.409  25.753  0.00  0.00    -0.392 OA
ATOM     39  H   UNL     1       8.770   0.508  25.896  0.00  0.00    +0.210 HD
ENDBRANCH  37  38
ENDBRANCH  27  37
ENDBRANCH  24  25
ENDBRANCH   6  24
BRANCH   1  40
ATOM     40  O   UNL     1       3.708  -2.230  27.966  0.00  0.00    -0.461 OA
BRANCH  40  44
ATOM     41  C   UNL     1       6.300  -5.651  28.265  0.00  0.00    +0.041 C 
ATOM     42  C   UNL     1       6.219  -4.744  27.035  0.00  0.00    +0.151 C 
ATOM     43  O   UNL     1       5.630  -3.479  27.354  0.00  0.00    -0.334 OA
ATOM     44  C   UNL     1       4.225  -3.517  27.635  0.00  0.00    +0.339 C 
ATOM     45  C   UNL     1       3.448  -4.036  26.402  0.00  0.00    +0.214 C 
ATOM     46  C   UNL     1       3.981  -5.437  26.075  0.00  0.00    +0.180 C 
ATOM     47  C   UNL     1       5.506  -5.407  25.839  0.00  0.00    +0.181 C 
BRANCH  46  48
ATOM     48  O   UNL     1       3.296  -6.002  24.951  0.00  0.00    -0.386 OA
ATOM     49  H   UNL     1       2.725  -6.724  25.268  0.00  0.00    +0.210 HD
ENDBRANCH  46  48
BRANCH  45  50
ATOM     50  O   UNL     1       3.591  -3.147  25.280  0.00  0.00    -0.383 OA
ATOM     51  H   UNL     1       3.996  -3.662  24.553  0.00  0.00    +0.210 HD
ENDBRANCH  45  50
BRANCH  47  52
ATOM     52  O   UNL     1       5.742  -4.729  24.579  0.00  0.00    -0.340 OA
BRANCH  52  53
ATOM     53  C   UNL     1       7.088  -4.321  24.283  0.00  0.00    +0.282 C 
ATOM     54  O   UNL     1       7.221  -2.912  24.532  0.00  0.00    -0.341 OA
ATOM     55  C   UNL     1       6.459  -2.063  23.650  0.00  0.00    +0.178 C 
ATOM     56  C   UNL     1       6.760  -2.345  22.158  0.00  0.00    +0.177 C 
ATOM     57  C   UNL     1       6.661  -3.843  21.854  0.00  0.00    +0.179 C 
ATOM     58  C   UNL     1       7.546  -4.625  22.839  0.00  0.00    +0.201 C 
BRANCH  58  59
ATOM     59  O   UNL     1       7.550  -6.027  22.530  0.00  0.00    -0.384 OA
ATOM     60  H   UNL     1       8.033  -6.475  23.251  0.00  0.00    +0.210 HD
ENDBRANCH  58  59
BRANCH  57  61
ATOM     61  O   UNL     1       5.302  -4.304  21.897  0.00  0.00    -0.386 OA
ATOM     62  H   UNL     1       4.800  -3.796  21.222  0.00  0.00    +0.210 HD
ENDBRANCH  57  61
BRANCH  56  63
ATOM     63  O   UNL     1       8.077  -1.896  21.822  0.00  0.00    -0.386 OA
ATOM     64  H   UNL     1       8.726  -2.456  22.284  0.00  0.00    +0.210 HD
ENDBRANCH  56  63
BRANCH  55  65
ATOM     65  C   UNL     1       6.765  -0.586  23.979  0.00  0.00    +0.190 C 
BRANCH  65  66
ATOM     66  O   UNL     1       6.367   0.308  22.941  0.00  0.00    -0.392 OA
ATOM     67  H   UNL     1       5.399   0.287  22.866  0.00  0.00    +0.210 HD
ENDBRANCH  65  66
ENDBRANCH  55  65
ENDBRANCH  52  53
ENDBRANCH  47  52
ENDBRANCH  40  44
ENDBRANCH   1  40
TORSDOF 22
ENDMDL
