MODEL 1
REMARK VINA RESULT:      -7.5      0.000      0.000
REMARK  Name = 
REMARK  22 active torsions:
REMARK  status: ('A' for Active; 'I' for Inactive)
REMARK    1  A    between atoms: C_1  and  C_2
REMARK    2  A    between atoms: C_3  and  O_62
REMARK    3  A    between atoms: C_5  and  O_61
REMARK    4  A    between atoms: C_7  and  O_60
REMARK    5  A    between atoms: C_8  and  O_11
REMARK    6  A    between atoms: O_11  and  C_12
REMARK    7  A    between atoms: C_14  and  O_59
REMARK    8  A    between atoms: C_19  and  C_51
REMARK    9  A    between atoms: C_20  and  O_23
REMARK   10  A    between atoms: O_23  and  C_24
REMARK   11  A    between atoms: C_26  and  O_36
REMARK   12  A    between atoms: C_28  and  O_35
REMARK   13  A    between atoms: C_29  and  O_34
REMARK   14  A    between atoms: C_31  and  C_33
REMARK   15  A    between atoms: O_36  and  C_37
REMARK   16  A    between atoms: C_39  and  O_50
REMARK   17  A    between atoms: C_41  and  O_49
REMARK   18  A    between atoms: C_42  and  O_48
REMARK   19  A    between atoms: C_44  and  C_46
REMARK   20  A    between atoms: C_46  and  O_47
REMARK   21  A    between atoms: C_53  and  O_58
REMARK   22  A    between atoms: C_54  and  O_57
REMARK                            x       y       z     vdW  Elec       q    Type
REMARK                         _______ _______ _______ _____ _____    ______ ____
ROOT
ATOM      1  C   UNL     1       4.476  -4.737  25.194  0.00  0.00    +0.131 A 
ATOM      2  C   UNL     1       5.239  -3.806  24.494  0.00  0.00    +0.093 A 
ATOM      3  C   UNL     1       5.232  -2.460  24.847  0.00  0.00    +0.147 A 
ATOM      4  O   UNL     1       6.046  -1.655  24.096  0.00  0.00    -0.451 OA
ATOM      5  C   UNL     1       6.300  -0.399  24.575  0.00  0.00    +0.181 A 
ATOM      6  C   UNL     1       5.679   0.186  25.616  0.00  0.00    +0.214 A 
ATOM      7  C   UNL     1       4.531  -0.554  26.218  0.00  0.00    +0.238 A 
ATOM      8  O   UNL     1       3.663   0.029  26.868  0.00  0.00    -0.283 OA
ATOM      9  C   UNL     1       4.460  -2.002  25.910  0.00  0.00    +0.109 A 
ATOM     10  C   UNL     1       3.700  -2.933  26.624  0.00  0.00    +0.135 A 
ATOM     11  C   UNL     1       3.707  -4.292  26.272  0.00  0.00    +0.092 A 
ENDROOT
BRANCH   5  12
ATOM     12  C   UNL     1       7.395   0.288  23.873  0.00  0.00    +0.025 A 
ATOM     13  C   UNL     1       7.185   0.603  22.524  0.00  0.00    +0.015 A 
ATOM     14  C   UNL     1       8.180   1.223  21.776  0.00  0.00    +0.050 A 
ATOM     15  C   UNL     1       9.388   1.524  22.382  0.00  0.00    +0.158 A 
ATOM     16  C   UNL     1       9.610   1.222  23.726  0.00  0.00    +0.159 A 
ATOM     17  C   UNL     1       8.623   0.600  24.488  0.00  0.00    +0.060 A 
BRANCH  16  18
ATOM     18  O   UNL     1      10.829   1.569  24.243  0.00  0.00    -0.503 OA
ATOM     19  H   UNL     1      10.989   1.047  25.047  0.00  0.00    +0.292 HD
ENDBRANCH  16  18
BRANCH  15  20
ATOM     20  O   UNL     1      10.361   2.130  21.643  0.00  0.00    -0.503 OA
ATOM     21  H   UNL     1      11.051   2.373  22.292  0.00  0.00    +0.292 HD
ENDBRANCH  15  20
ENDBRANCH   5  12
BRANCH  10  22
ATOM     22  O   UNL     1       2.971  -2.535  27.708  0.00  0.00    -0.506 OA
ATOM     23  H   UNL     1       2.611  -3.306  28.175  0.00  0.00    +0.292 HD
ENDBRANCH  10  22
BRANCH   6  24
ATOM     24  O   UNL     1       5.844   1.522  25.788  0.00  0.00    -0.453 OA
BRANCH  24  25
ATOM     25  C   UNL     1       5.958   2.259  26.993  0.00  0.00    +0.340 C 
ATOM     26  O   UNL     1       6.723   1.620  28.019  0.00  0.00    -0.334 OA
ATOM     27  C   UNL     1       6.778   2.423  29.211  0.00  0.00    +0.150 C 
ATOM     28  C   UNL     1       7.530   1.628  30.277  0.00  0.00    +0.041 C 
ATOM     29  C   UNL     1       7.461   3.782  28.952  0.00  0.00    +0.174 C 
ATOM     30  C   UNL     1       6.792   4.519  27.772  0.00  0.00    +0.180 C 
ATOM     31  C   UNL     1       6.678   3.576  26.569  0.00  0.00    +0.221 C 
BRANCH  30  32
ATOM     32  O   UNL     1       7.534   5.703  27.434  0.00  0.00    -0.386 OA
ATOM     33  H   UNL     1       7.804   5.646  26.498  0.00  0.00    +0.210 HD
ENDBRANCH  30  32
BRANCH  29  34
ATOM     34  O   UNL     1       7.450   4.593  30.128  0.00  0.00    -0.387 OA
ATOM     35  H   UNL     1       7.468   4.016  30.912  0.00  0.00    +0.210 HD
ENDBRANCH  29  34
BRANCH  31  36
ATOM     36  O   UNL     1       6.214   4.189  25.351  0.00  0.00    -0.337 OA
BRANCH  36  37
ATOM     37  C   UNL     1       6.830   3.862  24.107  0.00  0.00    +0.282 C 
ATOM     38  O   UNL     1       8.123   4.452  23.976  0.00  0.00    -0.341 OA
ATOM     39  C   UNL     1       8.116   5.896  23.952  0.00  0.00    +0.178 C 
ATOM     40  C   UNL     1       7.219   6.504  22.882  0.00  0.00    +0.177 C 
ATOM     41  C   UNL     1       5.815   5.892  23.027  0.00  0.00    +0.179 C 
ATOM     42  C   UNL     1       5.907   4.351  22.955  0.00  0.00    +0.201 C 
BRANCH  42  43
ATOM     43  O   UNL     1       6.420   3.908  21.686  0.00  0.00    -0.384 OA
ATOM     44  H   UNL     1       6.196   2.957  21.606  0.00  0.00    +0.210 HD
ENDBRANCH  42  43
BRANCH  41  45
ATOM     45  O   UNL     1       4.964   6.432  22.005  0.00  0.00    -0.386 OA
ATOM     46  H   UNL     1       4.790   5.725  21.363  0.00  0.00    +0.210 HD
ENDBRANCH  41  45
BRANCH  40  47
ATOM     47  O   UNL     1       7.693   6.259  21.558  0.00  0.00    -0.386 OA
ATOM     48  H   UNL     1       7.471   7.059  21.040  0.00  0.00    +0.210 HD
ENDBRANCH  40  47
BRANCH  39  49
ATOM     49  C   UNL     1       9.561   6.394  24.009  0.00  0.00    +0.190 C 
BRANCH  49  50
ATOM     50  O   UNL     1      10.378   5.924  22.949  0.00  0.00    -0.392 OA
ATOM     51  H   UNL     1      10.823   6.711  22.586  0.00  0.00    +0.210 HD
ENDBRANCH  49  50
ENDBRANCH  39  49
ENDBRANCH  36  37
ENDBRANCH  31  36
ENDBRANCH  24  25
ENDBRANCH   6  24
BRANCH   1  52
ATOM     52  O   UNL     1       4.411  -6.082  24.914  0.00  0.00    -0.461 OA
BRANCH  52  56
ATOM     53  C   UNL     1       1.054  -8.641  25.530  0.00  0.00    +0.041 C 
ATOM     54  C   UNL     1       1.873  -8.642  24.240  0.00  0.00    +0.150 C 
ATOM     55  O   UNL     1       3.142  -8.013  24.446  0.00  0.00    -0.334 OA
ATOM     56  C   UNL     1       3.097  -6.589  24.617  0.00  0.00    +0.339 C 
ATOM     57  C   UNL     1       2.571  -5.964  23.310  0.00  0.00    +0.214 C 
ATOM     58  C   UNL     1       1.133  -6.486  23.115  0.00  0.00    +0.180 C 
ATOM     59  C   UNL     1       1.116  -8.025  23.050  0.00  0.00    +0.174 C 
BRANCH  57  60
ATOM     60  O   UNL     1       3.401  -6.383  22.201  0.00  0.00    -0.383 OA
ATOM     61  H   UNL     1       3.299  -7.353  22.132  0.00  0.00    +0.210 HD
ENDBRANCH  57  60
BRANCH  58  62
ATOM     62  O   UNL     1       0.523  -5.897  21.963  0.00  0.00    -0.386 OA
ATOM     63  H   UNL     1       0.900  -6.325  21.172  0.00  0.00    +0.210 HD
ENDBRANCH  58  62
BRANCH  59  64
ATOM     64  O   UNL     1       1.715  -8.475  21.825  0.00  0.00    -0.387 OA
ATOM     65  H   UNL     1       1.194  -9.253  21.525  0.00  0.00    +0.210 HD
ENDBRANCH  59  64
ENDBRANCH  52  56
ENDBRANCH   1  52
TORSDOF 20
ENDMDL
MODEL 2
REMARK VINA RESULT:      -7.2      2.288      5.401
REMARK  Name = 
REMARK  22 active torsions:
REMARK  status: ('A' for Active; 'I' for Inactive)
REMARK    1  A    between atoms: C_1  and  C_2
REMARK    2  A    between atoms: C_3  and  O_62
REMARK    3  A    between atoms: C_5  and  O_61
REMARK    4  A    between atoms: C_7  and  O_60
REMARK    5  A    between atoms: C_8  and  O_11
REMARK    6  A    between atoms: O_11  and  C_12
REMARK    7  A    between atoms: C_14  and  O_59
REMARK    8  A    between atoms: C_19  and  C_51
REMARK    9  A    between atoms: C_20  and  O_23
REMARK   10  A    between atoms: O_23  and  C_24
REMARK   11  A    between atoms: C_26  and  O_36
REMARK   12  A    between atoms: C_28  and  O_35
REMARK   13  A    between atoms: C_29  and  O_34
REMARK   14  A    between atoms: C_31  and  C_33
REMARK   15  A    between atoms: O_36  and  C_37
REMARK   16  A    between atoms: C_39  and  O_50
REMARK   17  A    between atoms: C_41  and  O_49
REMARK   18  A    between atoms: C_42  and  O_48
REMARK   19  A    between atoms: C_44  and  C_46
REMARK   20  A    between atoms: C_46  and  O_47
REMARK   21  A    between atoms: C_53  and  O_58
REMARK   22  A    between atoms: C_54  and  O_57
REMARK                            x       y       z     vdW  Elec       q    Type
REMARK                         _______ _______ _______ _____ _____    ______ ____
ROOT
ATOM      1  C   UNL     1       5.208  -4.471  26.926  0.00  0.00    +0.131 A 
ATOM      2  C   UNL     1       4.751  -3.154  26.941  0.00  0.00    +0.093 A 
ATOM      3  C   UNL     1       5.641  -2.085  26.894  0.00  0.00    +0.147 A 
ATOM      4  O   UNL     1       5.062  -0.845  26.888  0.00  0.00    -0.451 OA
ATOM      5  C   UNL     1       5.858   0.216  26.552  0.00  0.00    +0.181 A 
ATOM      6  C   UNL     1       7.195   0.182  26.409  0.00  0.00    +0.214 A 
ATOM      7  C   UNL     1       7.879  -1.096  26.770  0.00  0.00    +0.238 A 
ATOM      8  O   UNL     1       9.073  -1.121  27.065  0.00  0.00    -0.283 OA
ATOM      9  C   UNL     1       7.014  -2.298  26.832  0.00  0.00    +0.109 A 
ATOM     10  C   UNL     1       7.479  -3.616  26.804  0.00  0.00    +0.135 A 
ATOM     11  C   UNL     1       6.584  -4.697  26.849  0.00  0.00    +0.092 A 
ENDROOT
BRANCH   5  12
ATOM     12  C   UNL     1       5.107   1.455  26.290  0.00  0.00    +0.025 A 
ATOM     13  C   UNL     1       4.818   2.267  27.393  0.00  0.00    +0.015 A 
ATOM     14  C   UNL     1       4.084   3.439  27.240  0.00  0.00    +0.050 A 
ATOM     15  C   UNL     1       3.639   3.793  25.978  0.00  0.00    +0.158 A 
ATOM     16  C   UNL     1       3.924   2.997  24.868  0.00  0.00    +0.159 A 
ATOM     17  C   UNL     1       4.657   1.820  25.006  0.00  0.00    +0.060 A 
BRANCH  16  18
ATOM     18  O   UNL     1       3.454   3.433  23.660  0.00  0.00    -0.503 OA
ATOM     19  H   UNL     1       2.622   2.971  23.461  0.00  0.00    +0.292 HD
ENDBRANCH  16  18
BRANCH  15  20
ATOM     20  O   UNL     1       2.918   4.942  25.835  0.00  0.00    -0.503 OA
ATOM     21  H   UNL     1       3.578   5.618  25.580  0.00  0.00    +0.292 HD
ENDBRANCH  15  20
ENDBRANCH   5  12
BRANCH  10  22
ATOM     22  O   UNL     1       8.816  -3.870  26.688  0.00  0.00    -0.506 OA
ATOM     23  H   UNL     1       9.326  -3.253  27.237  0.00  0.00    +0.292 HD
ENDBRANCH  10  22
BRANCH   6  24
ATOM     24  O   UNL     1       7.861   1.363  26.351  0.00  0.00    -0.453 OA
BRANCH  24  25
ATOM     25  C   UNL     1       7.853   2.342  25.326  0.00  0.00    +0.340 C 
ATOM     26  O   UNL     1       7.770   3.693  25.783  0.00  0.00    -0.334 OA
ATOM     27  C   UNL     1       7.752   4.621  24.685  0.00  0.00    +0.150 C 
ATOM     28  C   UNL     1       7.569   6.024  25.260  0.00  0.00    +0.041 C 
ATOM     29  C   UNL     1       9.042   4.533  23.843  0.00  0.00    +0.174 C 
ATOM     30  C   UNL     1       9.305   3.081  23.388  0.00  0.00    +0.180 C 
ATOM     31  C   UNL     1       9.213   2.136  24.591  0.00  0.00    +0.221 C 
BRANCH  30  32
ATOM     32  O   UNL     1      10.587   2.981  22.746  0.00  0.00    -0.386 OA
ATOM     33  H   UNL     1      10.497   3.274  21.820  0.00  0.00    +0.210 HD
ENDBRANCH  30  32
BRANCH  29  34
ATOM     34  O   UNL     1       8.981   5.413  22.719  0.00  0.00    -0.387 OA
ATOM     35  H   UNL     1       9.675   5.163  22.083  0.00  0.00    +0.210 HD
ENDBRANCH  29  34
BRANCH  31  36
ATOM     36  O   UNL     1       9.594   0.772  24.330  0.00  0.00    -0.337 OA
BRANCH  36  37
ATOM     37  C   UNL     1       9.509   0.246  23.007  0.00  0.00    +0.282 C 
ATOM     38  O   UNL     1       8.161  -0.027  22.623  0.00  0.00    -0.341 OA
ATOM     39  C   UNL     1       7.517  -1.054  23.409  0.00  0.00    +0.178 C 
ATOM     40  C   UNL     1       8.266  -2.379  23.448  0.00  0.00    +0.177 C 
ATOM     41  C   UNL     1       9.716  -2.101  23.884  0.00  0.00    +0.179 C 
ATOM     42  C   UNL     1      10.352  -1.057  22.938  0.00  0.00    +0.201 C 
BRANCH  42  43
ATOM     43  O   UNL     1      10.414  -1.538  21.583  0.00  0.00    -0.384 OA
ATOM     44  H   UNL     1       9.518  -1.423  21.201  0.00  0.00    +0.210 HD
ENDBRANCH  42  43
BRANCH  41  45
ATOM     45  O   UNL     1      10.444  -3.337  23.896  0.00  0.00    -0.386 OA
ATOM     46  H   UNL     1      11.303  -3.169  24.317  0.00  0.00    +0.210 HD
ENDBRANCH  41  45
BRANCH  40  47
ATOM     47  O   UNL     1       8.285  -3.042  22.185  0.00  0.00    -0.386 OA
ATOM     48  H   UNL     1       7.752  -3.855  22.300  0.00  0.00    +0.210 HD
ENDBRANCH  40  47
BRANCH  39  49
ATOM     49  C   UNL     1       6.037  -1.107  23.029  0.00  0.00    +0.190 C 
BRANCH  49  50
ATOM     50  O   UNL     1       5.652  -2.296  22.360  0.00  0.00    -0.392 OA
ATOM     51  H   UNL     1       6.308  -2.970  22.615  0.00  0.00    +0.210 HD
ENDBRANCH  49  50
ENDBRANCH  39  49
ENDBRANCH  36  37
ENDBRANCH  31  36
ENDBRANCH  24  25
ENDBRANCH   6  24
BRANCH   1  52
ATOM     52  O   UNL     1       4.409  -5.589  26.979  0.00  0.00    -0.461 OA
BRANCH  52  56
ATOM     53  C   UNL     1       0.443  -5.734  25.414  0.00  0.00    +0.041 C 
ATOM     54  C   UNL     1       1.428  -6.894  25.288  0.00  0.00    +0.150 C 
ATOM     55  O   UNL     1       2.502  -6.751  26.224  0.00  0.00    -0.334 OA
ATOM     56  C   UNL     1       3.436  -5.703  25.924  0.00  0.00    +0.339 C 
ATOM     57  C   UNL     1       4.134  -6.047  24.595  0.00  0.00    +0.214 C 
ATOM     58  C   UNL     1       3.039  -6.060  23.508  0.00  0.00    +0.180 C 
ATOM     59  C   UNL     1       1.944  -7.088  23.851  0.00  0.00    +0.174 C 
BRANCH  57  60
ATOM     60  O   UNL     1       4.749  -7.353  24.690  0.00  0.00    -0.383 OA
ATOM     61  H   UNL     1       5.277  -7.469  23.875  0.00  0.00    +0.210 HD
ENDBRANCH  57  60
BRANCH  58  62
ATOM     62  O   UNL     1       3.601  -6.292  22.213  0.00  0.00    -0.386 OA
ATOM     63  H   UNL     1       4.538  -6.021  22.240  0.00  0.00    +0.210 HD
ENDBRANCH  58  62
BRANCH  59  64
ATOM     64  O   UNL     1       2.456  -8.423  23.709  0.00  0.00    -0.387 OA
ATOM     65  H   UNL     1       2.846  -8.670  24.577  0.00  0.00    +0.210 HD
ENDBRANCH  59  64
ENDBRANCH  52  56
ENDBRANCH   1  52
TORSDOF 20
ENDMDL
MODEL 3
REMARK VINA RESULT:      -6.4      2.023      4.630
REMARK  Name = 
REMARK  22 active torsions:
REMARK  status: ('A' for Active; 'I' for Inactive)
REMARK    1  A    between atoms: C_1  and  C_2
REMARK    2  A    between atoms: C_3  and  O_62
REMARK    3  A    between atoms: C_5  and  O_61
REMARK    4  A    between atoms: C_7  and  O_60
REMARK    5  A    between atoms: C_8  and  O_11
REMARK    6  A    between atoms: O_11  and  C_12
REMARK    7  A    between atoms: C_14  and  O_59
REMARK    8  A    between atoms: C_19  and  C_51
REMARK    9  A    between atoms: C_20  and  O_23
REMARK   10  A    between atoms: O_23  and  C_24
REMARK   11  A    between atoms: C_26  and  O_36
REMARK   12  A    between atoms: C_28  and  O_35
REMARK   13  A    between atoms: C_29  and  O_34
REMARK   14  A    between atoms: C_31  and  C_33
REMARK   15  A    between atoms: O_36  and  C_37
REMARK   16  A    between atoms: C_39  and  O_50
REMARK   17  A    between atoms: C_41  and  O_49
REMARK   18  A    between atoms: C_42  and  O_48
REMARK   19  A    between atoms: C_44  and  C_46
REMARK   20  A    between atoms: C_46  and  O_47
REMARK   21  A    between atoms: C_53  and  O_58
REMARK   22  A    between atoms: C_54  and  O_57
REMARK                            x       y       z     vdW  Elec       q    Type
REMARK                         _______ _______ _______ _____ _____    ______ ____
ROOT
ATOM      1  C   UNL     1       6.564  -4.373  24.676  0.00  0.00    +0.131 A 
ATOM      2  C   UNL     1       5.835  -3.467  25.443  0.00  0.00    +0.093 A 
ATOM      3  C   UNL     1       6.378  -2.240  25.813  0.00  0.00    +0.147 A 
ATOM      4  O   UNL     1       5.548  -1.432  26.542  0.00  0.00    -0.451 OA
ATOM      5  C   UNL     1       5.914  -0.120  26.681  0.00  0.00    +0.181 A 
ATOM      6  C   UNL     1       7.101   0.406  26.328  0.00  0.00    +0.214 A 
ATOM      7  C   UNL     1       8.150  -0.549  25.862  0.00  0.00    +0.238 A 
ATOM      8  O   UNL     1       9.345  -0.258  25.906  0.00  0.00    -0.283 OA
ATOM      9  C   UNL     1       7.666  -1.882  25.431  0.00  0.00    +0.109 A 
ATOM     10  C   UNL     1       8.400  -2.782  24.652  0.00  0.00    +0.135 A 
ATOM     11  C   UNL     1       7.854  -4.019  24.274  0.00  0.00    +0.092 A 
ENDROOT
BRANCH   5  12
ATOM     12  C   UNL     1       4.845   0.735  27.221  0.00  0.00    +0.025 A 
ATOM     13  C   UNL     1       4.771   0.854  28.614  0.00  0.00    +0.015 A 
ATOM     14  C   UNL     1       3.771   1.616  29.210  0.00  0.00    +0.050 A 
ATOM     15  C   UNL     1       2.844   2.256  28.405  0.00  0.00    +0.158 A 
ATOM     16  C   UNL     1       2.908   2.151  27.015  0.00  0.00    +0.159 A 
ATOM     17  C   UNL     1       3.903   1.391  26.404  0.00  0.00    +0.060 A 
BRANCH  16  18
ATOM     18  O   UNL     1       1.958   2.829  26.301  0.00  0.00    -0.503 OA
ATOM     19  H   UNL     1       1.272   2.201  26.017  0.00  0.00    +0.292 HD
ENDBRANCH  16  18
BRANCH  15  20
ATOM     20  O   UNL     1       1.865   2.999  28.995  0.00  0.00    -0.503 OA
ATOM     21  H   UNL     1       2.200   3.180  29.896  0.00  0.00    +0.292 HD
ENDBRANCH  15  20
ENDBRANCH   5  12
BRANCH  10  22
ATOM     22  O   UNL     1       9.648  -2.448  24.209  0.00  0.00    -0.506 OA
ATOM     23  H   UNL     1       9.642  -2.318  23.247  0.00  0.00    +0.292 HD
ENDBRANCH  10  22
BRANCH   6  24
ATOM     24  O   UNL     1       7.409   1.647  26.784  0.00  0.00    -0.453 OA
BRANCH  24  25
ATOM     25  C   UNL     1       6.921   2.904  26.346  0.00  0.00    +0.340 C 
ATOM     26  O   UNL     1       6.328   3.709  27.367  0.00  0.00    -0.334 OA
ATOM     27  C   UNL     1       5.846   4.957  26.840  0.00  0.00    +0.150 C 
ATOM     28  C   UNL     1       5.150   5.708  27.974  0.00  0.00    +0.041 C 
ATOM     29  C   UNL     1       6.989   5.802  26.239  0.00  0.00    +0.174 C 
ATOM     30  C   UNL     1       7.788   4.988  25.198  0.00  0.00    +0.180 C 
ATOM     31  C   UNL     1       8.185   3.633  25.793  0.00  0.00    +0.221 C 
BRANCH  30  32
ATOM     32  O   UNL     1       8.944   5.723  24.765  0.00  0.00    -0.386 OA
ATOM     33  H   UNL     1       8.648   6.518  24.283  0.00  0.00    +0.210 HD
ENDBRANCH  30  32
BRANCH  29  34
ATOM     34  O   UNL     1       6.487   7.008  25.662  0.00  0.00    -0.387 OA
ATOM     35  H   UNL     1       6.768   7.763  26.209  0.00  0.00    +0.210 HD
ENDBRANCH  29  34
BRANCH  31  36
ATOM     36  O   UNL     1       9.069   2.840  24.979  0.00  0.00    -0.337 OA
BRANCH  36  37
ATOM     37  C   UNL     1       9.341   3.227  23.633  0.00  0.00    +0.282 C 
ATOM     38  O   UNL     1       8.145   3.404  22.873  0.00  0.00    -0.341 OA
ATOM     39  C   UNL     1       7.368   2.199  22.701  0.00  0.00    +0.178 C 
ATOM     40  C   UNL     1       8.137   1.035  22.090  0.00  0.00    +0.177 C 
ATOM     41  C   UNL     1       9.418   0.819  22.915  0.00  0.00    +0.179 C 
ATOM     42  C   UNL     1      10.228   2.134  22.974  0.00  0.00    +0.201 C 
BRANCH  42  43
ATOM     43  O   UNL     1      10.648   2.558  21.665  0.00  0.00    -0.384 OA
ATOM     44  H   UNL     1      11.169   3.380  21.787  0.00  0.00    +0.210 HD
ENDBRANCH  42  43
BRANCH  41  45
ATOM     45  O   UNL     1      10.170  -0.256  22.334  0.00  0.00    -0.386 OA
ATOM     46  H   UNL     1      11.108  -0.103  22.537  0.00  0.00    +0.210 HD
ENDBRANCH  41  45
BRANCH  40  47
ATOM     47  O   UNL     1       8.500   1.265  20.729  0.00  0.00    -0.386 OA
ATOM     48  H   UNL     1       8.150   2.151  20.503  0.00  0.00    +0.210 HD
ENDBRANCH  40  47
BRANCH  39  49
ATOM     49  C   UNL     1       6.034   2.565  22.049  0.00  0.00    +0.190 C 
BRANCH  49  50
ATOM     50  O   UNL     1       5.859   3.955  21.828  0.00  0.00    -0.392 OA
ATOM     51  H   UNL     1       5.096   4.217  22.374  0.00  0.00    +0.210 HD
ENDBRANCH  49  50
ENDBRANCH  39  49
ENDBRANCH  36  37
ENDBRANCH  31  36
ENDBRANCH  24  25
ENDBRANCH   6  24
BRANCH   1  52
ATOM     52  O   UNL     1       6.118  -5.609  24.270  0.00  0.00    -0.461 OA
BRANCH  52  56
ATOM     53  C   UNL     1       2.844  -7.151  26.529  0.00  0.00    +0.041 C 
ATOM     54  C   UNL     1       3.186  -7.640  25.123  0.00  0.00    +0.150 C 
ATOM     55  O   UNL     1       4.523  -7.272  24.770  0.00  0.00    -0.334 OA
ATOM     56  C   UNL     1       4.724  -5.874  24.516  0.00  0.00    +0.339 C 
ATOM     57  C   UNL     1       3.886  -5.484  23.284  0.00  0.00    +0.214 C 
ATOM     58  C   UNL     1       2.408  -5.712  23.662  0.00  0.00    +0.180 C 
ATOM     59  C   UNL     1       2.168  -7.179  24.065  0.00  0.00    +0.174 C 
BRANCH  57  60
ATOM     60  O   UNL     1       4.243  -6.328  22.164  0.00  0.00    -0.383 OA
ATOM     61  H   UNL     1       5.219  -6.378  22.158  0.00  0.00    +0.210 HD
ENDBRANCH  57  60
BRANCH  58  62
ATOM     62  O   UNL     1       1.536  -5.299  22.605  0.00  0.00    -0.386 OA
ATOM     63  H   UNL     1       0.905  -6.023  22.438  0.00  0.00    +0.210 HD
ENDBRANCH  58  62
BRANCH  59  64
ATOM     64  O   UNL     1       2.267  -8.030  22.911  0.00  0.00    -0.387 OA
ATOM     65  H   UNL     1       2.582  -7.465  22.170  0.00  0.00    +0.210 HD
ENDBRANCH  59  64
ENDBRANCH  52  56
ENDBRANCH   1  52
TORSDOF 20
ENDMDL
MODEL 4
REMARK VINA RESULT:      -6.4      2.732      9.384
REMARK  Name = 
REMARK  22 active torsions:
REMARK  status: ('A' for Active; 'I' for Inactive)
REMARK    1  A    between atoms: C_1  and  C_2
REMARK    2  A    between atoms: C_3  and  O_62
REMARK    3  A    between atoms: C_5  and  O_61
REMARK    4  A    between atoms: C_7  and  O_60
REMARK    5  A    between atoms: C_8  and  O_11
REMARK    6  A    between atoms: O_11  and  C_12
REMARK    7  A    between atoms: C_14  and  O_59
REMARK    8  A    between atoms: C_19  and  C_51
REMARK    9  A    between atoms: C_20  and  O_23
REMARK   10  A    between atoms: O_23  and  C_24
REMARK   11  A    between atoms: C_26  and  O_36
REMARK   12  A    between atoms: C_28  and  O_35
REMARK   13  A    between atoms: C_29  and  O_34
REMARK   14  A    between atoms: C_31  and  C_33
REMARK   15  A    between atoms: O_36  and  C_37
REMARK   16  A    between atoms: C_39  and  O_50
REMARK   17  A    between atoms: C_41  and  O_49
REMARK   18  A    between atoms: C_42  and  O_48
REMARK   19  A    between atoms: C_44  and  C_46
REMARK   20  A    between atoms: C_46  and  O_47
REMARK   21  A    between atoms: C_53  and  O_58
REMARK   22  A    between atoms: C_54  and  O_57
REMARK                            x       y       z     vdW  Elec       q    Type
REMARK                         _______ _______ _______ _____ _____    ______ ____
ROOT
ATOM      1  C   UNL     1       5.004   2.704  25.570  0.00  0.00    +0.131 A 
ATOM      2  C   UNL     1       5.296   1.506  24.922  0.00  0.00    +0.093 A 
ATOM      3  C   UNL     1       5.014   0.281  25.518  0.00  0.00    +0.147 A 
ATOM      4  O   UNL     1       5.325  -0.819  24.765  0.00  0.00    -0.451 OA
ATOM      5  C   UNL     1       4.809  -2.021  25.168  0.00  0.00    +0.181 A 
ATOM      6  C   UNL     1       4.180  -2.255  26.334  0.00  0.00    +0.214 A 
ATOM      7  C   UNL     1       4.155  -1.137  27.323  0.00  0.00    +0.238 A 
ATOM      8  O   UNL     1       3.986  -1.347  28.524  0.00  0.00    -0.283 OA
ATOM      9  C   UNL     1       4.431   0.214  26.779  0.00  0.00    +0.109 A 
ATOM     10  C   UNL     1       4.125   1.413  27.431  0.00  0.00    +0.135 A 
ATOM     11  C   UNL     1       4.406   2.651  26.831  0.00  0.00    +0.092 A 
ENDROOT
BRANCH   5  12
ATOM     12  C   UNL     1       4.946  -3.087  24.162  0.00  0.00    +0.025 A 
ATOM     13  C   UNL     1       5.659  -2.772  22.998  0.00  0.00    +0.015 A 
ATOM     14  C   UNL     1       5.808  -3.710  21.982  0.00  0.00    +0.050 A 
ATOM     15  C   UNL     1       5.240  -4.963  22.134  0.00  0.00    +0.158 A 
ATOM     16  C   UNL     1       4.532  -5.293  23.290  0.00  0.00    +0.159 A 
ATOM     17  C   UNL     1       4.373  -4.364  24.317  0.00  0.00    +0.060 A 
BRANCH  16  18
ATOM     18  O   UNL     1       4.017  -6.559  23.358  0.00  0.00    -0.503 OA
ATOM     19  H   UNL     1       3.332  -6.656  22.675  0.00  0.00    +0.292 HD
ENDBRANCH  16  18
BRANCH  15  20
ATOM     20  O   UNL     1       5.388  -5.877  21.133  0.00  0.00    -0.503 OA
ATOM     21  H   UNL     1       4.624  -6.480  21.233  0.00  0.00    +0.292 HD
ENDBRANCH  15  20
ENDBRANCH   5  12
BRANCH  10  22
ATOM     22  O   UNL     1       3.503   1.394  28.646  0.00  0.00    -0.506 OA
ATOM     23  H   UNL     1       4.051   0.930  29.299  0.00  0.00    +0.292 HD
ENDBRANCH  10  22
BRANCH   6  24
ATOM     24  O   UNL     1       3.980  -3.546  26.702  0.00  0.00    -0.453 OA
BRANCH  24  25
ATOM     25  C   UNL     1       4.425  -4.221  27.867  0.00  0.00    +0.340 C 
ATOM     26  O   UNL     1       3.525  -5.210  28.372  0.00  0.00    -0.334 OA
ATOM     27  C   UNL     1       4.041  -5.835  29.559  0.00  0.00    +0.150 C 
ATOM     28  C   UNL     1       2.981  -6.804  30.078  0.00  0.00    +0.041 C 
ATOM     29  C   UNL     1       5.371  -6.568  29.284  0.00  0.00    +0.174 C 
ATOM     30  C   UNL     1       6.395  -5.622  28.620  0.00  0.00    +0.180 C 
ATOM     31  C   UNL     1       5.748  -4.918  27.422  0.00  0.00    +0.221 C 
BRANCH  30  32
ATOM     32  O   UNL     1       7.567  -6.352  28.220  0.00  0.00    -0.386 OA
ATOM     33  H   UNL     1       8.094  -6.557  29.016  0.00  0.00    +0.210 HD
ENDBRANCH  30  32
BRANCH  29  34
ATOM     34  O   UNL     1       5.905  -7.128  30.485  0.00  0.00    -0.387 OA
ATOM     35  H   UNL     1       6.820  -7.420  30.320  0.00  0.00    +0.210 HD
ENDBRANCH  29  34
BRANCH  31  36
ATOM     36  O   UNL     1       6.643  -4.125  26.619  0.00  0.00    -0.337 OA
BRANCH  36  37
ATOM     37  C   UNL     1       8.054  -4.286  26.752  0.00  0.00    +0.282 C 
ATOM     38  O   UNL     1       8.754  -3.053  26.582  0.00  0.00    -0.341 OA
ATOM     39  C   UNL     1       8.627  -2.477  25.263  0.00  0.00    +0.178 C 
ATOM     40  C   UNL     1       9.040  -3.404  24.128  0.00  0.00    +0.177 C 
ATOM     41  C   UNL     1       8.274  -4.730  24.287  0.00  0.00    +0.179 C 
ATOM     42  C   UNL     1       8.536  -5.317  25.692  0.00  0.00    +0.201 C 
BRANCH  42  43
ATOM     43  O   UNL     1       9.928  -5.619  25.891  0.00  0.00    -0.384 OA
ATOM     44  H   UNL     1      10.336  -4.823  26.292  0.00  0.00    +0.210 HD
ENDBRANCH  42  43
BRANCH  41  45
ATOM     45  O   UNL     1       8.675  -5.627  23.241  0.00  0.00    -0.386 OA
ATOM     46  H   UNL     1       8.471  -5.201  22.393  0.00  0.00    +0.210 HD
ENDBRANCH  41  45
BRANCH  40  47
ATOM     47  O   UNL     1      10.440  -3.680  24.119  0.00  0.00    -0.386 OA
ATOM     48  H   UNL     1      10.834  -3.052  23.480  0.00  0.00    +0.210 HD
ENDBRANCH  40  47
BRANCH  39  49
ATOM     49  C   UNL     1       9.250  -1.081  25.277  0.00  0.00    +0.190 C 
BRANCH  49  50
ATOM     50  O   UNL     1       9.787  -0.673  24.029  0.00  0.00    -0.392 OA
ATOM     51  H   UNL     1       9.086  -0.834  23.372  0.00  0.00    +0.210 HD
ENDBRANCH  49  50
ENDBRANCH  39  49
ENDBRANCH  36  37
ENDBRANCH  31  36
ENDBRANCH  24  25
ENDBRANCH   6  24
BRANCH   1  52
ATOM     52  O   UNL     1       5.254   3.960  25.067  0.00  0.00    -0.461 OA
BRANCH  52  56
ATOM     53  C   UNL     1       9.281   3.015  24.024  0.00  0.00    +0.041 C 
ATOM     54  C   UNL     1       8.839   4.415  24.445  0.00  0.00    +0.150 C 
ATOM     55  O   UNL     1       7.575   4.367  25.115  0.00  0.00    -0.334 OA
ATOM     56  C   UNL     1       6.449   4.081  24.274  0.00  0.00    +0.339 C 
ATOM     57  C   UNL     1       6.299   5.234  23.262  0.00  0.00    +0.214 C 
ATOM     58  C   UNL     1       7.576   5.235  22.398  0.00  0.00    +0.180 C 
ATOM     59  C   UNL     1       8.829   5.416  23.276  0.00  0.00    +0.174 C 
BRANCH  57  60
ATOM     60  O   UNL     1       6.182   6.490  23.969  0.00  0.00    -0.383 OA
ATOM     61  H   UNL     1       5.256   6.785  23.855  0.00  0.00    +0.210 HD
ENDBRANCH  57  60
BRANCH  58  62
ATOM     62  O   UNL     1       7.499   6.224  21.367  0.00  0.00    -0.386 OA
ATOM     63  H   UNL     1       7.869   7.054  21.721  0.00  0.00    +0.210 HD
ENDBRANCH  58  62
BRANCH  59  64
ATOM     64  O   UNL     1       8.876   6.754  23.798  0.00  0.00    -0.387 OA
ATOM     65  H   UNL     1       9.238   7.323  23.082  0.00  0.00    +0.210 HD
ENDBRANCH  59  64
ENDBRANCH  52  56
ENDBRANCH   1  52
TORSDOF 20
ENDMDL
MODEL 5
REMARK VINA RESULT:      -6.3      2.040      4.712
REMARK  Name = 
REMARK  22 active torsions:
REMARK  status: ('A' for Active; 'I' for Inactive)
REMARK    1  A    between atoms: C_1  and  C_2
REMARK    2  A    between atoms: C_3  and  O_62
REMARK    3  A    between atoms: C_5  and  O_61
REMARK    4  A    between atoms: C_7  and  O_60
REMARK    5  A    between atoms: C_8  and  O_11
REMARK    6  A    between atoms: O_11  and  C_12
REMARK    7  A    between atoms: C_14  and  O_59
REMARK    8  A    between atoms: C_19  and  C_51
REMARK    9  A    between atoms: C_20  and  O_23
REMARK   10  A    between atoms: O_23  and  C_24
REMARK   11  A    between atoms: C_26  and  O_36
REMARK   12  A    between atoms: C_28  and  O_35
REMARK   13  A    between atoms: C_29  and  O_34
REMARK   14  A    between atoms: C_31  and  C_33
REMARK   15  A    between atoms: O_36  and  C_37
REMARK   16  A    between atoms: C_39  and  O_50
REMARK   17  A    between atoms: C_41  and  O_49
REMARK   18  A    between atoms: C_42  and  O_48
REMARK   19  A    between atoms: C_44  and  C_46
REMARK   20  A    between atoms: C_46  and  O_47
REMARK   21  A    between atoms: C_53  and  O_58
REMARK   22  A    between atoms: C_54  and  O_57
REMARK                            x       y       z     vdW  Elec       q    Type
REMARK                         _______ _______ _______ _____ _____    ______ ____
ROOT
ATOM      1  C   UNL     1       5.517  -4.271  25.228  0.00  0.00    +0.131 A 
ATOM      2  C   UNL     1       5.337  -3.134  26.013  0.00  0.00    +0.093 A 
ATOM      3  C   UNL     1       5.580  -1.863  25.501  0.00  0.00    +0.147 A 
ATOM      4  O   UNL     1       5.338  -0.831  26.367  0.00  0.00    -0.451 OA
ATOM      5  C   UNL     1       5.278   0.430  25.837  0.00  0.00    +0.181 A 
ATOM      6  C   UNL     1       5.615   0.772  24.580  0.00  0.00    +0.214 A 
ATOM      7  C   UNL     1       6.226  -0.295  23.733  0.00  0.00    +0.238 A 
ATOM      8  O   UNL     1       6.924  -0.017  22.758  0.00  0.00    -0.283 OA
ATOM      9  C   UNL     1       6.010  -1.688  24.190  0.00  0.00    +0.109 A 
ATOM     10  C   UNL     1       6.182  -2.824  23.393  0.00  0.00    +0.135 A 
ATOM     11  C   UNL     1       5.936  -4.108  23.905  0.00  0.00    +0.092 A 
ENDROOT
BRANCH   5  12
ATOM     12  C   UNL     1       4.736   1.433  26.768  0.00  0.00    +0.025 A 
ATOM     13  C   UNL     1       3.342   1.516  26.870  0.00  0.00    +0.015 A 
ATOM     14  C   UNL     1       2.745   2.458  27.701  0.00  0.00    +0.050 A 
ATOM     15  C   UNL     1       3.549   3.319  28.427  0.00  0.00    +0.158 A 
ATOM     16  C   UNL     1       4.940   3.245  28.341  0.00  0.00    +0.159 A 
ATOM     17  C   UNL     1       5.552   2.307  27.512  0.00  0.00    +0.060 A 
BRANCH  16  18
ATOM     18  O   UNL     1       5.653   4.128  29.105  0.00  0.00    -0.503 OA
ATOM     19  H   UNL     1       5.429   5.033  28.831  0.00  0.00    +0.292 HD
ENDBRANCH  16  18
BRANCH  15  20
ATOM     20  O   UNL     1       2.958   4.242  29.239  0.00  0.00    -0.503 OA
ATOM     21  H   UNL     1       3.203   5.107  28.851  0.00  0.00    +0.292 HD
ENDBRANCH  15  20
ENDBRANCH   5  12
BRANCH  10  22
ATOM     22  O   UNL     1       6.550  -2.695  22.085  0.00  0.00    -0.506 OA
ATOM     23  H   UNL     1       6.041  -3.304  21.528  0.00  0.00    +0.292 HD
ENDBRANCH  10  22
BRANCH   6  24
ATOM     24  O   UNL     1       5.766   2.091  24.297  0.00  0.00    -0.453 OA
BRANCH  24  25
ATOM     25  C   UNL     1       4.896   2.954  23.585  0.00  0.00    +0.340 C 
ATOM     26  O   UNL     1       3.504   2.675  23.747  0.00  0.00    -0.334 OA
ATOM     27  C   UNL     1       2.692   3.582  22.983  0.00  0.00    +0.150 C 
ATOM     28  C   UNL     1       1.234   3.154  23.141  0.00  0.00    +0.041 C 
ATOM     29  C   UNL     1       2.889   5.044  23.437  0.00  0.00    +0.174 C 
ATOM     30  C   UNL     1       4.385   5.429  23.420  0.00  0.00    +0.180 C 
ATOM     31  C   UNL     1       5.201   4.369  24.167  0.00  0.00    +0.221 C 
BRANCH  30  32
ATOM     32  O   UNL     1       4.575   6.731  23.996  0.00  0.00    -0.386 OA
ATOM     33  H   UNL     1       5.533   6.906  24.066  0.00  0.00    +0.210 HD
ENDBRANCH  30  32
BRANCH  29  34
ATOM     34  O   UNL     1       2.127   5.940  22.626  0.00  0.00    -0.387 OA
ATOM     35  H   UNL     1       2.685   6.258  21.894  0.00  0.00    +0.210 HD
ENDBRANCH  29  34
BRANCH  31  36
ATOM     36  O   UNL     1       6.593   4.689  24.360  0.00  0.00    -0.337 OA
BRANCH  36  37
ATOM     37  C   UNL     1       7.405   5.045  23.244  0.00  0.00    +0.282 C 
ATOM     38  O   UNL     1       8.095   3.920  22.700  0.00  0.00    -0.341 OA
ATOM     39  C   UNL     1       9.049   3.317  23.602  0.00  0.00    +0.178 C 
ATOM     40  C   UNL     1      10.094   4.280  24.150  0.00  0.00    +0.177 C 
ATOM     41  C   UNL     1       9.361   5.488  24.761  0.00  0.00    +0.179 C 
ATOM     42  C   UNL     1       8.429   6.122  23.703  0.00  0.00    +0.201 C 
BRANCH  42  43
ATOM     43  O   UNL     1       9.169   6.617  22.572  0.00  0.00    -0.384 OA
ATOM     44  H   UNL     1       9.805   5.914  22.321  0.00  0.00    +0.210 HD
ENDBRANCH  42  43
BRANCH  41  45
ATOM     45  O   UNL     1      10.333   6.421  25.255  0.00  0.00    -0.386 OA
ATOM     46  H   UNL     1      10.827   6.764  24.493  0.00  0.00    +0.210 HD
ENDBRANCH  41  45
BRANCH  40  47
ATOM     47  O   UNL     1      10.996   4.748  23.148  0.00  0.00    -0.386 OA
ATOM     48  H   UNL     1      10.637   5.607  22.843  0.00  0.00    +0.210 HD
ENDBRANCH  40  47
BRANCH  39  49
ATOM     49  C   UNL     1       9.565   2.021  22.975  0.00  0.00    +0.190 C 
BRANCH  49  50
ATOM     50  O   UNL     1      10.086   2.178  21.665  0.00  0.00    -0.392 OA
ATOM     51  H   UNL     1      10.671   1.414  21.517  0.00  0.00    +0.210 HD
ENDBRANCH  49  50
ENDBRANCH  39  49
ENDBRANCH  36  37
ENDBRANCH  31  36
ENDBRANCH  24  25
ENDBRANCH   6  24
BRANCH   1  52
ATOM     52  O   UNL     1       5.314  -5.565  25.647  0.00  0.00    -0.461 OA
BRANCH  52  56
ATOM     53  C   UNL     1       1.600  -6.407  27.569  0.00  0.00    +0.041 C 
ATOM     54  C   UNL     1       2.420  -7.473  26.846  0.00  0.00    +0.150 C 
ATOM     55  O   UNL     1       3.769  -7.032  26.657  0.00  0.00    -0.334 OA
ATOM     56  C   UNL     1       3.940  -5.995  25.679  0.00  0.00    +0.339 C 
ATOM     57  C   UNL     1       3.529  -6.558  24.305  0.00  0.00    +0.214 C 
ATOM     58  C   UNL     1       2.029  -6.907  24.399  0.00  0.00    +0.180 C 
ATOM     59  C   UNL     1       1.778  -7.929  25.524  0.00  0.00    +0.174 C 
BRANCH  57  60
ATOM     60  O   UNL     1       4.295  -7.751  24.017  0.00  0.00    -0.383 OA
ATOM     61  H   UNL     1       4.463  -7.743  23.054  0.00  0.00    +0.210 HD
ENDBRANCH  57  60
BRANCH  58  62
ATOM     62  O   UNL     1       1.527  -7.365  23.140  0.00  0.00    -0.386 OA
ATOM     63  H   UNL     1       1.575  -6.622  22.511  0.00  0.00    +0.210 HD
ENDBRANCH  58  62
BRANCH  59  64
ATOM     64  O   UNL     1       2.312  -9.211  25.156  0.00  0.00    -0.387 OA
ATOM     65  H   UNL     1       1.702  -9.888  25.525  0.00  0.00    +0.210 HD
ENDBRANCH  59  64
ENDBRANCH  52  56
ENDBRANCH   1  52
TORSDOF 20
ENDMDL
MODEL 6
REMARK VINA RESULT:      -6.1      2.702      5.383
REMARK  Name = 
REMARK  22 active torsions:
REMARK  status: ('A' for Active; 'I' for Inactive)
REMARK    1  A    between atoms: C_1  and  C_2
REMARK    2  A    between atoms: C_3  and  O_62
REMARK    3  A    between atoms: C_5  and  O_61
REMARK    4  A    between atoms: C_7  and  O_60
REMARK    5  A    between atoms: C_8  and  O_11
REMARK    6  A    between atoms: O_11  and  C_12
REMARK    7  A    between atoms: C_14  and  O_59
REMARK    8  A    between atoms: C_19  and  C_51
REMARK    9  A    between atoms: C_20  and  O_23
REMARK   10  A    between atoms: O_23  and  C_24
REMARK   11  A    between atoms: C_26  and  O_36
REMARK   12  A    between atoms: C_28  and  O_35
REMARK   13  A    between atoms: C_29  and  O_34
REMARK   14  A    between atoms: C_31  and  C_33
REMARK   15  A    between atoms: O_36  and  C_37
REMARK   16  A    between atoms: C_39  and  O_50
REMARK   17  A    between atoms: C_41  and  O_49
REMARK   18  A    between atoms: C_42  and  O_48
REMARK   19  A    between atoms: C_44  and  C_46
REMARK   20  A    between atoms: C_46  and  O_47
REMARK   21  A    between atoms: C_53  and  O_58
REMARK   22  A    between atoms: C_54  and  O_57
REMARK                            x       y       z     vdW  Elec       q    Type
REMARK                         _______ _______ _______ _____ _____    ______ ____
ROOT
ATOM      1  C   UNL     1       5.864  -3.925  25.712  0.00  0.00    +0.131 A 
ATOM      2  C   UNL     1       5.897  -2.720  26.412  0.00  0.00    +0.093 A 
ATOM      3  C   UNL     1       6.040  -1.507  25.746  0.00  0.00    +0.147 A 
ATOM      4  O   UNL     1       6.029  -0.398  26.548  0.00  0.00    -0.451 OA
ATOM      5  C   UNL     1       5.874   0.817  25.936  0.00  0.00    +0.181 A 
ATOM      6  C   UNL     1       5.916   1.039  24.610  0.00  0.00    +0.214 A 
ATOM      7  C   UNL     1       6.289  -0.118  23.744  0.00  0.00    +0.238 A 
ATOM      8  O   UNL     1       6.746   0.049  22.613  0.00  0.00    -0.283 OA
ATOM      9  C   UNL     1       6.156  -1.459  24.361  0.00  0.00    +0.109 A 
ATOM     10  C   UNL     1       6.113  -2.663  23.651  0.00  0.00    +0.135 A 
ATOM     11  C   UNL     1       5.966  -3.888  24.320  0.00  0.00    +0.092 A 
ENDROOT
BRANCH   5  12
ATOM     12  C   UNL     1       5.586   1.915  26.872  0.00  0.00    +0.025 A 
ATOM     13  C   UNL     1       4.237   2.213  27.104  0.00  0.00    +0.015 A 
ATOM     14  C   UNL     1       3.876   3.257  27.949  0.00  0.00    +0.050 A 
ATOM     15  C   UNL     1       4.870   4.003  28.560  0.00  0.00    +0.158 A 
ATOM     16  C   UNL     1       6.217   3.714  28.343  0.00  0.00    +0.159 A 
ATOM     17  C   UNL     1       6.595   2.672  27.498  0.00  0.00    +0.060 A 
BRANCH  16  18
ATOM     18  O   UNL     1       7.128   4.496  28.999  0.00  0.00    -0.503 OA
ATOM     19  H   UNL     1       7.953   3.993  29.107  0.00  0.00    +0.292 HD
ENDBRANCH  16  18
BRANCH  15  20
ATOM     20  O   UNL     1       4.509   5.026  29.385  0.00  0.00    -0.503 OA
ATOM     21  H   UNL     1       3.668   4.733  29.792  0.00  0.00    +0.292 HD
ENDBRANCH  15  20
ENDBRANCH   5  12
BRANCH  10  22
ATOM     22  O   UNL     1       6.169  -2.657  22.287  0.00  0.00    -0.506 OA
ATOM     23  H   UNL     1       6.931  -2.139  21.982  0.00  0.00    +0.292 HD
ENDBRANCH  10  22
BRANCH   6  24
ATOM     24  O   UNL     1       6.025   2.323  24.182  0.00  0.00    -0.453 OA
BRANCH  24  25
ATOM     25  C   UNL     1       5.131   3.073  23.378  0.00  0.00    +0.340 C 
ATOM     26  O   UNL     1       3.759   2.685  23.478  0.00  0.00    -0.334 OA
ATOM     27  C   UNL     1       2.922   3.481  22.623  0.00  0.00    +0.150 C 
ATOM     28  C   UNL     1       1.497   2.939  22.724  0.00  0.00    +0.041 C 
ATOM     29  C   UNL     1       2.971   4.975  23.007  0.00  0.00    +0.174 C 
ATOM     30  C   UNL     1       4.429   5.484  23.051  0.00  0.00    +0.180 C 
ATOM     31  C   UNL     1       5.284   4.536  23.898  0.00  0.00    +0.221 C 
BRANCH  30  32
ATOM     32  O   UNL     1       4.477   6.825  23.565  0.00  0.00    -0.386 OA
ATOM     33  H   UNL     1       4.557   6.784  24.537  0.00  0.00    +0.210 HD
ENDBRANCH  30  32
BRANCH  29  34
ATOM     34  O   UNL     1       2.187   5.762  22.109  0.00  0.00    -0.387 OA
ATOM     35  H   UNL     1       1.278   5.825  22.453  0.00  0.00    +0.210 HD
ENDBRANCH  29  34
BRANCH  31  36
ATOM     36  O   UNL     1       6.630   4.982  24.149  0.00  0.00    -0.337 OA
BRANCH  36  37
ATOM     37  C   UNL     1       7.494   5.296  23.059  0.00  0.00    +0.282 C 
ATOM     38  O   UNL     1       8.112   4.132  22.510  0.00  0.00    -0.341 OA
ATOM     39  C   UNL     1       8.997   3.445  23.423  0.00  0.00    +0.178 C 
ATOM     40  C   UNL     1      10.096   4.320  24.013  0.00  0.00    +0.177 C 
ATOM     41  C   UNL     1       9.439   5.568  24.628  0.00  0.00    +0.179 C 
ATOM     42  C   UNL     1       8.583   6.286  23.560  0.00  0.00    +0.201 C 
BRANCH  42  43
ATOM     43  O   UNL     1       9.384   6.744  22.457  0.00  0.00    -0.384 OA
ATOM     44  H   UNL     1       8.764   6.966  21.730  0.00  0.00    +0.210 HD
ENDBRANCH  42  43
BRANCH  41  45
ATOM     45  O   UNL     1      10.465   6.418  25.162  0.00  0.00    -0.386 OA
ATOM     46  H   UNL     1      10.121   7.327  25.167  0.00  0.00    +0.210 HD
ENDBRANCH  41  45
BRANCH  40  47
ATOM     47  O   UNL     1      11.054   4.736  23.040  0.00  0.00    -0.386 OA
ATOM     48  H   UNL     1      11.006   4.078  22.317  0.00  0.00    +0.210 HD
ENDBRANCH  40  47
BRANCH  39  49
ATOM     49  C   UNL     1       9.431   2.125  22.785  0.00  0.00    +0.190 C 
BRANCH  49  50
ATOM     50  O   UNL     1      10.007   2.266  21.497  0.00  0.00    -0.392 OA
ATOM     51  H   UNL     1       9.600   1.574  20.945  0.00  0.00    +0.210 HD
ENDBRANCH  49  50
ENDBRANCH  39  49
ENDBRANCH  36  37
ENDBRANCH  31  36
ENDBRANCH  24  25
ENDBRANCH   6  24
BRANCH   1  52
ATOM     52  O   UNL     1       5.736  -5.170  26.281  0.00  0.00    -0.461 OA
BRANCH  52  56
ATOM     53  C   UNL     1       3.723  -3.644  29.718  0.00  0.00    +0.041 C 
ATOM     54  C   UNL     1       4.650  -4.856  29.770  0.00  0.00    +0.150 C 
ATOM     55  O   UNL     1       5.488  -4.903  28.610  0.00  0.00    -0.334 OA
ATOM     56  C   UNL     1       4.820  -5.253  27.389  0.00  0.00    +0.339 C 
ATOM     57  C   UNL     1       4.285  -6.691  27.528  0.00  0.00    +0.214 C 
ATOM     58  C   UNL     1       3.249  -6.670  28.671  0.00  0.00    +0.180 C 
ATOM     59  C   UNL     1       3.893  -6.180  29.981  0.00  0.00    +0.174 C 
BRANCH  57  60
ATOM     60  O   UNL     1       5.372  -7.585  27.864  0.00  0.00    -0.383 OA
ATOM     61  H   UNL     1       5.653  -7.347  28.770  0.00  0.00    +0.210 HD
ENDBRANCH  57  60
BRANCH  58  62
ATOM     62  O   UNL     1       2.630  -7.950  28.827  0.00  0.00    -0.386 OA
ATOM     63  H   UNL     1       1.664  -7.820  28.805  0.00  0.00    +0.210 HD
ENDBRANCH  58  62
BRANCH  59  64
ATOM     64  O   UNL     1       4.804  -7.170  30.485  0.00  0.00    -0.387 OA
ATOM     65  H   UNL     1       5.068  -7.727  29.718  0.00  0.00    +0.210 HD
ENDBRANCH  59  64
ENDBRANCH  52  56
ENDBRANCH   1  52
TORSDOF 20
ENDMDL
MODEL 7
REMARK VINA RESULT:      -6.0      1.697      2.237
REMARK  Name = 
REMARK  22 active torsions:
REMARK  status: ('A' for Active; 'I' for Inactive)
REMARK    1  A    between atoms: C_1  and  C_2
REMARK    2  A    between atoms: C_3  and  O_62
REMARK    3  A    between atoms: C_5  and  O_61
REMARK    4  A    between atoms: C_7  and  O_60
REMARK    5  A    between atoms: C_8  and  O_11
REMARK    6  A    between atoms: O_11  and  C_12
REMARK    7  A    between atoms: C_14  and  O_59
REMARK    8  A    between atoms: C_19  and  C_51
REMARK    9  A    between atoms: C_20  and  O_23
REMARK   10  A    between atoms: O_23  and  C_24
REMARK   11  A    between atoms: C_26  and  O_36
REMARK   12  A    between atoms: C_28  and  O_35
REMARK   13  A    between atoms: C_29  and  O_34
REMARK   14  A    between atoms: C_31  and  C_33
REMARK   15  A    between atoms: O_36  and  C_37
REMARK   16  A    between atoms: C_39  and  O_50
REMARK   17  A    between atoms: C_41  and  O_49
REMARK   18  A    between atoms: C_42  and  O_48
REMARK   19  A    between atoms: C_44  and  C_46
REMARK   20  A    between atoms: C_46  and  O_47
REMARK   21  A    between atoms: C_53  and  O_58
REMARK   22  A    between atoms: C_54  and  O_57
REMARK                            x       y       z     vdW  Elec       q    Type
REMARK                         _______ _______ _______ _____ _____    ______ ____
ROOT
ATOM      1  C   UNL     1       4.510  -4.464  25.319  0.00  0.00    +0.131 A 
ATOM      2  C   UNL     1       5.276  -3.548  24.601  0.00  0.00    +0.093 A 
ATOM      3  C   UNL     1       5.239  -2.190  24.902  0.00  0.00    +0.147 A 
ATOM      4  O   UNL     1       6.059  -1.402  24.139  0.00  0.00    -0.451 OA
ATOM      5  C   UNL     1       6.282  -0.124  24.575  0.00  0.00    +0.181 A 
ATOM      6  C   UNL     1       5.628   0.490  25.579  0.00  0.00    +0.214 A 
ATOM      7  C   UNL     1       4.477  -0.245  26.182  0.00  0.00    +0.238 A 
ATOM      8  O   UNL     1       3.586   0.348  26.789  0.00  0.00    -0.283 OA
ATOM      9  C   UNL     1       4.436  -1.705  25.928  0.00  0.00    +0.109 A 
ATOM     10  C   UNL     1       3.674  -2.620  26.661  0.00  0.00    +0.135 A 
ATOM     11  C   UNL     1       3.710  -3.991  26.361  0.00  0.00    +0.092 A 
ENDROOT
BRANCH   5  12
ATOM     12  C   UNL     1       7.383   0.554  23.873  0.00  0.00    +0.025 A 
ATOM     13  C   UNL     1       7.111   1.039  22.587  0.00  0.00    +0.015 A 
ATOM     14  C   UNL     1       8.104   1.663  21.839  0.00  0.00    +0.050 A 
ATOM     15  C   UNL     1       9.371   1.797  22.382  0.00  0.00    +0.158 A 
ATOM     16  C   UNL     1       9.655   1.324  23.663  0.00  0.00    +0.159 A 
ATOM     17  C   UNL     1       8.671   0.696  24.424  0.00  0.00    +0.060 A 
BRANCH  16  18
ATOM     18  O   UNL     1      10.930   1.514  24.121  0.00  0.00    -0.503 OA
ATOM     19  H   UNL     1      10.934   2.266  24.737  0.00  0.00    +0.292 HD
ENDBRANCH  16  18
BRANCH  15  20
ATOM     20  O   UNL     1      10.340   2.408  21.642  0.00  0.00    -0.503 OA
ATOM     21  H   UNL     1      10.187   2.097  20.727  0.00  0.00    +0.292 HD
ENDBRANCH  15  20
ENDBRANCH   5  12
BRANCH  10  22
ATOM     22  O   UNL     1       2.913  -2.193  27.712  0.00  0.00    -0.506 OA
ATOM     23  H   UNL     1       2.062  -2.658  27.723  0.00  0.00    +0.292 HD
ENDBRANCH  10  22
BRANCH   6  24
ATOM     24  O   UNL     1       5.768   1.834  25.703  0.00  0.00    -0.453 OA
BRANCH  24  25
ATOM     25  C   UNL     1       5.334   2.683  26.752  0.00  0.00    +0.340 C 
ATOM     26  O   UNL     1       6.379   3.373  27.441  0.00  0.00    -0.334 OA
ATOM     27  C   UNL     1       5.859   4.198  28.496  0.00  0.00    +0.150 C 
ATOM     28  C   UNL     1       7.044   4.820  29.233  0.00  0.00    +0.041 C 
ATOM     29  C   UNL     1       4.914   5.290  27.953  0.00  0.00    +0.174 C 
ATOM     30  C   UNL     1       3.799   4.670  27.082  0.00  0.00    +0.180 C 
ATOM     31  C   UNL     1       4.418   3.728  26.043  0.00  0.00    +0.221 C 
BRANCH  30  32
ATOM     32  O   UNL     1       3.024   5.702  26.450  0.00  0.00    -0.386 OA
ATOM     33  H   UNL     1       2.754   5.392  25.564  0.00  0.00    +0.210 HD
ENDBRANCH  30  32
BRANCH  29  34
ATOM     34  O   UNL     1       4.354   6.060  29.018  0.00  0.00    -0.387 OA
ATOM     35  H   UNL     1       3.396   6.158  28.869  0.00  0.00    +0.210 HD
ENDBRANCH  29  34
BRANCH  31  36
ATOM     36  O   UNL     1       3.499   3.205  25.064  0.00  0.00    -0.337 OA
BRANCH  36  37
ATOM     37  C   UNL     1       3.896   3.093  23.699  0.00  0.00    +0.282 C 
ATOM     38  O   UNL     1       4.822   4.113  23.324  0.00  0.00    -0.341 OA
ATOM     39  C   UNL     1       4.285   5.453  23.384  0.00  0.00    +0.178 C 
ATOM     40  C   UNL     1       3.014   5.659  22.571  0.00  0.00    +0.177 C 
ATOM     41  C   UNL     1       1.998   4.579  22.984  0.00  0.00    +0.179 C 
ATOM     42  C   UNL     1       2.626   3.178  22.807  0.00  0.00    +0.201 C 
BRANCH  42  43
ATOM     43  O   UNL     1       2.967   2.919  21.433  0.00  0.00    -0.384 OA
ATOM     44  H   UNL     1       3.815   3.380  21.260  0.00  0.00    +0.210 HD
ENDBRANCH  42  43
BRANCH  41  45
ATOM     45  O   UNL     1       0.804   4.740  22.205  0.00  0.00    -0.386 OA
ATOM     46  H   UNL     1       0.817   4.069  21.504  0.00  0.00    +0.210 HD
ENDBRANCH  41  45
BRANCH  40  47
ATOM     47  O   UNL     1       3.235   5.568  21.164  0.00  0.00    -0.386 OA
ATOM     48  H   UNL     1       2.963   4.663  20.907  0.00  0.00    +0.210 HD
ENDBRANCH  40  47
BRANCH  39  49
ATOM     49  C   UNL     1       5.423   6.447  23.152  0.00  0.00    +0.190 C 
BRANCH  49  50
ATOM     50  O   UNL     1       6.010   6.367  21.864  0.00  0.00    -0.392 OA
ATOM     51  H   UNL     1       5.373   6.782  21.255  0.00  0.00    +0.210 HD
ENDBRANCH  49  50
ENDBRANCH  39  49
ENDBRANCH  36  37
ENDBRANCH  31  36
ENDBRANCH  24  25
ENDBRANCH   6  24
BRANCH   1  52
ATOM     52  O   UNL     1       4.473  -5.820  25.090  0.00  0.00    -0.461 OA
BRANCH  52  56
ATOM     53  C   UNL     1       1.174  -8.447  25.731  0.00  0.00    +0.041 C 
ATOM     54  C   UNL     1       1.997  -8.447  24.444  0.00  0.00    +0.150 C 
ATOM     55  O   UNL     1       3.251  -7.786  24.645  0.00  0.00    -0.334 OA
ATOM     56  C   UNL     1       3.172  -6.361  24.796  0.00  0.00    +0.339 C 
ATOM     57  C   UNL     1       2.636  -5.767  23.478  0.00  0.00    +0.214 C 
ATOM     58  C   UNL     1       1.211  -6.325  23.287  0.00  0.00    +0.180 C 
ATOM     59  C   UNL     1       1.230  -7.865  23.244  0.00  0.00    +0.174 C 
BRANCH  57  60
ATOM     60  O   UNL     1       3.479  -6.182  22.378  0.00  0.00    -0.383 OA
ATOM     61  H   UNL     1       3.349  -5.522  21.668  0.00  0.00    +0.210 HD
ENDBRANCH  57  60
BRANCH  58  62
ATOM     62  O   UNL     1       0.591  -5.766  22.125  0.00  0.00    -0.386 OA
ATOM     63  H   UNL     1       1.280  -5.309  21.609  0.00  0.00    +0.210 HD
ENDBRANCH  58  62
BRANCH  59  64
ATOM     64  O   UNL     1       1.844  -8.318  22.026  0.00  0.00    -0.387 OA
ATOM     65  H   UNL     1       2.009  -9.281  22.134  0.00  0.00    +0.210 HD
ENDBRANCH  59  64
ENDBRANCH  52  56
ENDBRANCH   1  52
TORSDOF 20
ENDMDL
MODEL 8
REMARK VINA RESULT:      -6.0      2.179      4.613
REMARK  Name = 
REMARK  22 active torsions:
REMARK  status: ('A' for Active; 'I' for Inactive)
REMARK    1  A    between atoms: C_1  and  C_2
REMARK    2  A    between atoms: C_3  and  O_62
REMARK    3  A    between atoms: C_5  and  O_61
REMARK    4  A    between atoms: C_7  and  O_60
REMARK    5  A    between atoms: C_8  and  O_11
REMARK    6  A    between atoms: O_11  and  C_12
REMARK    7  A    between atoms: C_14  and  O_59
REMARK    8  A    between atoms: C_19  and  C_51
REMARK    9  A    between atoms: C_20  and  O_23
REMARK   10  A    between atoms: O_23  and  C_24
REMARK   11  A    between atoms: C_26  and  O_36
REMARK   12  A    between atoms: C_28  and  O_35
REMARK   13  A    between atoms: C_29  and  O_34
REMARK   14  A    between atoms: C_31  and  C_33
REMARK   15  A    between atoms: O_36  and  C_37
REMARK   16  A    between atoms: C_39  and  O_50
REMARK   17  A    between atoms: C_41  and  O_49
REMARK   18  A    between atoms: C_42  and  O_48
REMARK   19  A    between atoms: C_44  and  C_46
REMARK   20  A    between atoms: C_46  and  O_47
REMARK   21  A    between atoms: C_53  and  O_58
REMARK   22  A    between atoms: C_54  and  O_57
REMARK                            x       y       z     vdW  Elec       q    Type
REMARK                         _______ _______ _______ _____ _____    ______ ____
ROOT
ATOM      1  C   UNL     1       5.840  -5.261  25.774  0.00  0.00    +0.131 A 
ATOM      2  C   UNL     1       5.173  -4.344  26.584  0.00  0.00    +0.093 A 
ATOM      3  C   UNL     1       5.730  -3.102  26.871  0.00  0.00    +0.147 A 
ATOM      4  O   UNL     1       4.960  -2.286  27.655  0.00  0.00    -0.451 OA
ATOM      5  C   UNL     1       5.318  -0.966  27.726  0.00  0.00    +0.181 A 
ATOM      6  C   UNL     1       6.458  -0.434  27.249  0.00  0.00    +0.214 A 
ATOM      7  C   UNL     1       7.472  -1.387  26.708  0.00  0.00    +0.238 A 
ATOM      8  O   UNL     1       8.661  -1.080  26.630  0.00  0.00    -0.283 OA
ATOM      9  C   UNL     1       6.970  -2.737  26.358  0.00  0.00    +0.109 A 
ATOM     10  C   UNL     1       7.640  -3.647  25.535  0.00  0.00    +0.135 A 
ATOM     11  C   UNL     1       7.080  -4.901  25.242  0.00  0.00    +0.092 A 
ENDROOT
BRANCH   5  12
ATOM     12  C   UNL     1       4.292  -0.111  28.344  0.00  0.00    +0.025 A 
ATOM     13  C   UNL     1       4.342   0.034  29.737  0.00  0.00    +0.015 A 
ATOM     14  C   UNL     1       3.392   0.797  30.406  0.00  0.00    +0.050 A 
ATOM     15  C   UNL     1       2.388   1.413  29.676  0.00  0.00    +0.158 A 
ATOM     16  C   UNL     1       2.328   1.281  28.289  0.00  0.00    +0.159 A 
ATOM     17  C   UNL     1       3.273   0.519  27.604  0.00  0.00    +0.060 A 
BRANCH  16  18
ATOM     18  O   UNL     1       1.310   1.936  27.651  0.00  0.00    -0.503 OA
ATOM     19  H   UNL     1       0.518   1.372  27.664  0.00  0.00    +0.292 HD
ENDBRANCH  16  18
BRANCH  15  20
ATOM     20  O   UNL     1       1.458   2.158  30.339  0.00  0.00    -0.503 OA
ATOM     21  H   UNL     1       0.650   2.089  29.791  0.00  0.00    +0.292 HD
ENDBRANCH  15  20
ENDBRANCH   5  12
BRANCH  10  22
ATOM     22  O   UNL     1       8.834  -3.309  24.967  0.00  0.00    -0.506 OA
ATOM     23  H   UNL     1       9.144  -2.457  25.313  0.00  0.00    +0.292 HD
ENDBRANCH  10  22
BRANCH   6  24
ATOM     24  O   UNL     1       6.788   0.822  27.642  0.00  0.00    -0.453 OA
BRANCH  24  25
ATOM     25  C   UNL     1       6.126   2.045  27.368  0.00  0.00    +0.340 C 
ATOM     26  O   UNL     1       5.687   2.765  28.523  0.00  0.00    -0.334 OA
ATOM     27  C   UNL     1       5.014   3.982  28.161  0.00  0.00    +0.150 C 
ATOM     28  C   UNL     1       4.502   4.635  29.443  0.00  0.00    +0.041 C 
ATOM     29  C   UNL     1       5.944   4.941  27.388  0.00  0.00    +0.174 C 
ATOM     30  C   UNL     1       6.580   4.231  26.173  0.00  0.00    +0.180 C 
ATOM     31  C   UNL     1       7.193   2.897  26.614  0.00  0.00    +0.221 C 
BRANCH  30  32
ATOM     32  O   UNL     1       7.566   5.075  25.557  0.00  0.00    -0.386 OA
ATOM     33  H   UNL     1       8.351   4.536  25.344  0.00  0.00    +0.210 HD
ENDBRANCH  30  32
BRANCH  29  34
ATOM     34  O   UNL     1       5.244   6.116  26.978  0.00  0.00    -0.387 OA
ATOM     35  H   UNL     1       4.883   6.561  27.766  0.00  0.00    +0.210 HD
ENDBRANCH  29  34
BRANCH  31  36
ATOM     36  O   UNL     1       7.956   2.208  25.605  0.00  0.00    -0.337 OA
BRANCH  36  37
ATOM     37  C   UNL     1       7.288   1.528  24.544  0.00  0.00    +0.282 C 
ATOM     38  O   UNL     1       8.098   0.501  23.970  0.00  0.00    -0.341 OA
ATOM     39  C   UNL     1       9.298   0.983  23.326  0.00  0.00    +0.178 C 
ATOM     40  C   UNL     1       9.057   2.037  22.254  0.00  0.00    +0.177 C 
ATOM     41  C   UNL     1       8.205   3.162  22.867  0.00  0.00    +0.179 C 
ATOM     42  C   UNL     1       6.904   2.568  23.454  0.00  0.00    +0.201 C 
BRANCH  42  43
ATOM     43  O   UNL     1       6.097   1.947  22.437  0.00  0.00    -0.384 OA
ATOM     44  H   UNL     1       5.852   2.652  21.801  0.00  0.00    +0.210 HD
ENDBRANCH  42  43
BRANCH  41  45
ATOM     45  O   UNL     1       7.943   4.149  21.860  0.00  0.00    -0.386 OA
ATOM     46  H   UNL     1       8.701   4.160  21.253  0.00  0.00    +0.210 HD
ENDBRANCH  41  45
BRANCH  40  47
ATOM     47  O   UNL     1       8.381   1.519  21.110  0.00  0.00    -0.386 OA
ATOM     48  H   UNL     1       7.756   0.845  21.449  0.00  0.00    +0.210 HD
ENDBRANCH  40  47
BRANCH  39  49
ATOM     49  C   UNL     1      10.160  -0.218  22.935  0.00  0.00    +0.190 C 
BRANCH  49  50
ATOM     50  O   UNL     1      10.215  -1.237  23.919  0.00  0.00    -0.392 OA
ATOM     51  H   UNL     1      10.696  -1.978  23.509  0.00  0.00    +0.210 HD
ENDBRANCH  49  50
ENDBRANCH  39  49
ENDBRANCH  36  37
ENDBRANCH  31  36
ENDBRANCH  24  25
ENDBRANCH   6  24
BRANCH   1  52
ATOM     52  O   UNL     1       5.376  -6.513  25.443  0.00  0.00    -0.461 OA
BRANCH  52  56
ATOM     53  C   UNL     1       1.432  -7.899  26.295  0.00  0.00    +0.041 C 
ATOM     54  C   UNL     1       2.152  -8.200  24.982  0.00  0.00    +0.150 C 
ATOM     55  O   UNL     1       3.561  -7.981  25.116  0.00  0.00    -0.334 OA
ATOM     56  C   UNL     1       3.957  -6.606  25.214  0.00  0.00    +0.339 C 
ATOM     57  C   UNL     1       3.587  -5.903  23.894  0.00  0.00    +0.214 C 
ATOM     58  C   UNL     1       2.051  -5.968  23.771  0.00  0.00    +0.180 C 
ATOM     59  C   UNL     1       1.565  -7.430  23.786  0.00  0.00    +0.174 C 
BRANCH  57  60
ATOM     60  O   UNL     1       4.200  -6.599  22.783  0.00  0.00    -0.383 OA
ATOM     61  H   UNL     1       3.531  -7.231  22.451  0.00  0.00    +0.210 HD
ENDBRANCH  57  60
BRANCH  58  62
ATOM     62  O   UNL     1       1.597  -5.267  22.610  0.00  0.00    -0.386 OA
ATOM     63  H   UNL     1       1.614  -5.888  21.859  0.00  0.00    +0.210 HD
ENDBRANCH  58  62
BRANCH  59  64
ATOM     64  O   UNL     1       1.943  -8.089  22.567  0.00  0.00    -0.387 OA
ATOM     65  H   UNL     1       2.900  -8.302  22.647  0.00  0.00    +0.210 HD
ENDBRANCH  59  64
ENDBRANCH  52  56
ENDBRANCH   1  52
TORSDOF 20
ENDMDL
MODEL 9
REMARK VINA RESULT:      -5.9      2.340      4.792
REMARK  Name = 
REMARK  22 active torsions:
REMARK  status: ('A' for Active; 'I' for Inactive)
REMARK    1  A    between atoms: C_1  and  C_2
REMARK    2  A    between atoms: C_3  and  O_62
REMARK    3  A    between atoms: C_5  and  O_61
REMARK    4  A    between atoms: C_7  and  O_60
REMARK    5  A    between atoms: C_8  and  O_11
REMARK    6  A    between atoms: O_11  and  C_12
REMARK    7  A    between atoms: C_14  and  O_59
REMARK    8  A    between atoms: C_19  and  C_51
REMARK    9  A    between atoms: C_20  and  O_23
REMARK   10  A    between atoms: O_23  and  C_24
REMARK   11  A    between atoms: C_26  and  O_36
REMARK   12  A    between atoms: C_28  and  O_35
REMARK   13  A    between atoms: C_29  and  O_34
REMARK   14  A    between atoms: C_31  and  C_33
REMARK   15  A    between atoms: O_36  and  C_37
REMARK   16  A    between atoms: C_39  and  O_50
REMARK   17  A    between atoms: C_41  and  O_49
REMARK   18  A    between atoms: C_42  and  O_48
REMARK   19  A    between atoms: C_44  and  C_46
REMARK   20  A    between atoms: C_46  and  O_47
REMARK   21  A    between atoms: C_53  and  O_58
REMARK   22  A    between atoms: C_54  and  O_57
REMARK                            x       y       z     vdW  Elec       q    Type
REMARK                         _______ _______ _______ _____ _____    ______ ____
ROOT
ATOM      1  C   UNL     1       6.177  -4.104  24.924  0.00  0.00    +0.131 A 
ATOM      2  C   UNL     1       5.923  -2.966  25.687  0.00  0.00    +0.093 A 
ATOM      3  C   UNL     1       6.189  -1.694  25.189  0.00  0.00    +0.147 A 
ATOM      4  O   UNL     1       5.869  -0.661  26.029  0.00  0.00    -0.451 OA
ATOM      5  C   UNL     1       5.835   0.597  25.490  0.00  0.00    +0.181 A 
ATOM      6  C   UNL     1       6.265   0.938  24.261  0.00  0.00    +0.214 A 
ATOM      7  C   UNL     1       6.952  -0.125  23.469  0.00  0.00    +0.238 A 
ATOM      8  O   UNL     1       7.720   0.158  22.549  0.00  0.00    -0.283 OA
ATOM      9  C   UNL     1       6.717  -1.519  23.915  0.00  0.00    +0.109 A 
ATOM     10  C   UNL     1       6.964  -2.656  23.139  0.00  0.00    +0.135 A 
ATOM     11  C   UNL     1       6.694  -3.940  23.637  0.00  0.00    +0.092 A 
ENDROOT
BRANCH   5  12
ATOM     12  C   UNL     1       5.211   1.597  26.371  0.00  0.00    +0.025 A 
ATOM     13  C   UNL     1       3.820   1.736  26.286  0.00  0.00    +0.015 A 
ATOM     14  C   UNL     1       3.153   2.681  27.059  0.00  0.00    +0.050 A 
ATOM     15  C   UNL     1       3.884   3.487  27.915  0.00  0.00    +0.158 A 
ATOM     16  C   UNL     1       5.269   3.356  28.014  0.00  0.00    +0.159 A 
ATOM     17  C   UNL     1       5.952   2.415  27.246  0.00  0.00    +0.060 A 
BRANCH  16  18
ATOM     18  O   UNL     1       5.905   4.187  28.896  0.00  0.00    -0.503 OA
ATOM     19  H   UNL     1       6.855   4.197  28.688  0.00  0.00    +0.292 HD
ENDBRANCH  16  18
BRANCH  15  20
ATOM     20  O   UNL     1       3.224   4.413  28.668  0.00  0.00    -0.503 OA
ATOM     21  H   UNL     1       3.646   5.265  28.440  0.00  0.00    +0.292 HD
ENDBRANCH  15  20
ENDBRANCH   5  12
BRANCH  10  22
ATOM     22  O   UNL     1       7.431  -2.527  21.862  0.00  0.00    -0.506 OA
ATOM     23  H   UNL     1       7.028  -3.195  21.285  0.00  0.00    +0.292 HD
ENDBRANCH  10  22
BRANCH   6  24
ATOM     24  O   UNL     1       6.421   2.257  23.984  0.00  0.00    -0.453 OA
BRANCH  24  25
ATOM     25  C   UNL     1       7.488   3.122  24.336  0.00  0.00    +0.340 C 
ATOM     26  O   UNL     1       8.711   2.886  23.636  0.00  0.00    -0.334 OA
ATOM     27  C   UNL     1       9.744   3.792  24.060  0.00  0.00    +0.150 C 
ATOM     28  C   UNL     1      11.031   3.410  23.332  0.00  0.00    +0.041 C 
ATOM     29  C   UNL     1       9.366   5.261  23.776  0.00  0.00    +0.174 C 
ATOM     30  C   UNL     1       7.990   5.603  24.388  0.00  0.00    +0.180 C 
ATOM     31  C   UNL     1       6.961   4.545  23.974  0.00  0.00    +0.221 C 
BRANCH  30  32
ATOM     32  O   UNL     1       7.573   6.917  23.982  0.00  0.00    -0.386 OA
ATOM     33  H   UNL     1       8.274   7.554  24.215  0.00  0.00    +0.210 HD
ENDBRANCH  30  32
BRANCH  29  34
ATOM     34  O   UNL     1      10.371   6.152  24.262  0.00  0.00    -0.387 OA
ATOM     35  H   UNL     1      10.683   5.837  25.129  0.00  0.00    +0.210 HD
ENDBRANCH  29  34
BRANCH  31  36
ATOM     36  O   UNL     1       5.600   4.832  24.349  0.00  0.00    -0.337 OA
BRANCH  36  37
ATOM     37  C   UNL     1       4.761   5.584  23.475  0.00  0.00    +0.282 C 
ATOM     38  O   UNL     1       3.784   6.342  24.188  0.00  0.00    -0.341 OA
ATOM     39  C   UNL     1       2.832   5.541  24.922  0.00  0.00    +0.178 C 
ATOM     40  C   UNL     1       2.094   4.510  24.078  0.00  0.00    +0.177 C 
ATOM     41  C   UNL     1       3.139   3.670  23.322  0.00  0.00    +0.179 C 
ATOM     42  C   UNL     1       4.058   4.601  22.498  0.00  0.00    +0.201 C 
BRANCH  42  43
ATOM     43  O   UNL     1       3.318   5.332  21.504  0.00  0.00    -0.384 OA
ATOM     44  H   UNL     1       3.755   5.159  20.643  0.00  0.00    +0.210 HD
ENDBRANCH  42  43
BRANCH  41  45
ATOM     45  O   UNL     1       2.458   2.713  22.498  0.00  0.00    -0.386 OA
ATOM     46  H   UNL     1       1.529   2.690  22.779  0.00  0.00    +0.210 HD
ENDBRANCH  41  45
BRANCH  40  47
ATOM     47  O   UNL     1       1.207   5.102  23.131  0.00  0.00    -0.386 OA
ATOM     48  H   UNL     1       0.541   4.416  22.921  0.00  0.00    +0.210 HD
ENDBRANCH  40  47
BRANCH  39  49
ATOM     49  C   UNL     1       1.977   6.467  25.788  0.00  0.00    +0.190 C 
BRANCH  49  50
ATOM     50  O   UNL     1       1.374   5.827  26.901  0.00  0.00    -0.392 OA
ATOM     51  H   UNL     1       2.039   5.202  27.241  0.00  0.00    +0.210 HD
ENDBRANCH  49  50
ENDBRANCH  39  49
ENDBRANCH  36  37
ENDBRANCH  31  36
ENDBRANCH  24  25
ENDBRANCH   6  24
BRANCH   1  52
ATOM     52  O   UNL     1       5.957  -5.398  25.332  0.00  0.00    -0.461 OA
BRANCH  52  56
ATOM     53  C   UNL     1       2.422  -6.070  27.623  0.00  0.00    +0.041 C 
ATOM     54  C   UNL     1       3.116  -7.172  26.826  0.00  0.00    +0.150 C 
ATOM     55  O   UNL     1       4.457  -6.793  26.499  0.00  0.00    -0.334 OA
ATOM     56  C   UNL     1       4.575  -5.765  25.505  0.00  0.00    +0.339 C 
ATOM     57  C   UNL     1       4.002  -6.308  24.182  0.00  0.00    +0.214 C 
ATOM     58  C   UNL     1       2.505  -6.588  24.429  0.00  0.00    +0.180 C 
ATOM     59  C   UNL     1       2.322  -7.598  25.578  0.00  0.00    +0.174 C 
BRANCH  57  60
ATOM     60  O   UNL     1       4.680  -7.534  23.823  0.00  0.00    -0.383 OA
ATOM     61  H   UNL     1       5.487  -7.573  24.372  0.00  0.00    +0.210 HD
ENDBRANCH  57  60
BRANCH  58  62
ATOM     62  O   UNL     1       1.858  -7.022  23.229  0.00  0.00    -0.386 OA
ATOM     63  H   UNL     1       1.583  -6.229  22.733  0.00  0.00    +0.210 HD
ENDBRANCH  58  62
BRANCH  59  64
ATOM     64  O   UNL     1       2.758  -8.903  25.162  0.00  0.00    -0.387 OA
ATOM     65  H   UNL     1       3.688  -9.000  25.468  0.00  0.00    +0.210 HD
ENDBRANCH  59  64
ENDBRANCH  52  56
ENDBRANCH   1  52
TORSDOF 20
ENDMDL
