MODEL 1
REMARK VINA RESULT:      -6.3      0.000      0.000
REMARK  Name = 
REMARK  24 active torsions:
REMARK  status: ('A' for Active; 'I' for Inactive)
REMARK    1  A    between atoms: C_3  and  O_64
REMARK    2  A    between atoms: C_4  and  O_63
REMARK    3  A    between atoms: C_6  and  C_7
REMARK    4  A    between atoms: C_8  and  O_34
REMARK    5  A    between atoms: C_12  and  O_33
REMARK    6  A    between atoms: C_14  and  O_18
REMARK    7  A    between atoms: O_18  and  C_19
REMARK    8  A    between atoms: C_21  and  O_32
REMARK    9  A    between atoms: C_22  and  O_31
REMARK   10  A    between atoms: C_24  and  O_30
REMARK   11  A    between atoms: C_26  and  C_28
REMARK   12  A    between atoms: C_28  and  O_29
REMARK   13  A    between atoms: O_34  and  C_35
REMARK   14  A    between atoms: C_37  and  O_48
REMARK   15  A    between atoms: C_38  and  O_47
REMARK   16  A    between atoms: C_40  and  O_46
REMARK   17  A    between atoms: C_42  and  C_44
REMARK   18  A    between atoms: C_44  and  O_45
REMARK   19  A    between atoms: O_48  and  C_49
REMARK   20  A    between atoms: C_51  and  O_62
REMARK   21  A    between atoms: C_52  and  O_61
REMARK   22  A    between atoms: C_54  and  O_60
REMARK   23  A    between atoms: C_56  and  C_58
REMARK   24  A    between atoms: C_58  and  O_59
REMARK                            x       y       z     vdW  Elec       q    Type
REMARK                         _______ _______ _______ _____ _____    ______ ____
ROOT
ATOM      1  C   UNL     1       7.074   1.285  26.011  0.00  0.00    +0.181 A 
ATOM      2  O   UNL     1       6.337   0.121  25.780  0.00  0.00    -0.451 OA
ATOM      3  C   UNL     1       6.840  -0.865  24.969  0.00  0.00    +0.147 A 
ATOM      4  C   UNL     1       8.074  -0.787  24.376  0.00  0.00    +0.109 A 
ATOM      5  C   UNL     1       8.585  -1.898  23.682  0.00  0.00    +0.135 A 
ATOM      6  C   UNL     1       7.844  -3.079  23.589  0.00  0.00    +0.092 A 
ATOM      7  C   UNL     1       6.564  -3.153  24.155  0.00  0.00    +0.131 A 
ATOM      8  C   UNL     1       8.755   0.519  24.435  0.00  0.00    +0.238 A 
ATOM      9  O   UNL     1       9.715   0.690  23.696  0.00  0.00    -0.283 OA
ATOM     10  C   UNL     1       6.061  -2.009  24.795  0.00  0.00    +0.093 A 
ATOM     11  C   UNL     1       8.224   1.565  25.354  0.00  0.00    +0.214 A 
ENDROOT
BRANCH   1  13
ATOM     12  C   UNL     1       7.161   2.192  28.340  0.00  0.00    +0.015 A 
ATOM     13  C   UNL     1       6.489   2.141  27.098  0.00  0.00    +0.025 A 
ATOM     14  C   UNL     1       5.382   2.995  26.942  0.00  0.00    +0.060 A 
ATOM     15  C   UNL     1       5.059   3.930  27.925  0.00  0.00    +0.159 A 
ATOM     16  C   UNL     1       5.775   4.001  29.110  0.00  0.00    +0.158 A 
ATOM     17  C   UNL     1       6.807   3.108  29.342  0.00  0.00    +0.050 A 
BRANCH  16  18
ATOM     18  O   UNL     1       5.441   4.976  30.005  0.00  0.00    -0.503 OA
ATOM     19  H   UNL     1       5.908   5.791  29.756  0.00  0.00    +0.292 HD
ENDBRANCH  16  18
BRANCH  15  20
ATOM     20  O   UNL     1       4.044   4.817  27.689  0.00  0.00    -0.503 OA
ATOM     21  H   UNL     1       3.454   4.730  28.464  0.00  0.00    +0.292 HD
ENDBRANCH  15  20
ENDBRANCH   1  13
BRANCH   5  22
ATOM     22  O   UNL     1       9.824  -1.910  23.099  0.00  0.00    -0.506 OA
ATOM     23  H   UNL     1      10.474  -1.533  23.736  0.00  0.00    +0.292 HD
ENDBRANCH   5  22
BRANCH  11  24
ATOM     24  O   UNL     1       8.697   2.864  25.235  0.00  0.00    -0.453 OA
BRANCH  24  25
ATOM     25  C   UNL     1       8.562   3.608  24.017  0.00  0.00    +0.340 C 
ATOM     26  O   UNL     1       9.867   4.133  23.612  0.00  0.00    -0.331 OA
ATOM     27  C   UNL     1      10.484   5.137  24.457  0.00  0.00    +0.179 C 
ATOM     28  C   UNL     1       9.545   6.179  25.113  0.00  0.00    +0.177 C 
ATOM     29  C   UNL     1       8.147   5.651  25.389  0.00  0.00    +0.180 C 
ATOM     30  C   UNL     1       7.682   4.852  24.147  0.00  0.00    +0.221 C 
BRANCH  29  31
ATOM     31  O   UNL     1       8.225   4.979  26.656  0.00  0.00    -0.386 OA
ATOM     32  H   UNL     1       7.893   5.580  27.344  0.00  0.00    +0.210 HD
ENDBRANCH  29  31
BRANCH  28  33
ATOM     33  O   UNL     1      10.136   6.652  26.331  0.00  0.00    -0.386 OA
ATOM     34  H   UNL     1       9.957   5.942  26.988  0.00  0.00    +0.210 HD
ENDBRANCH  28  33
BRANCH  27  35
ATOM     35  C   UNL     1      11.484   5.983  23.617  0.00  0.00    +0.190 C 
BRANCH  35  36
ATOM     36  O   UNL     1      12.667   6.358  24.310  0.00  0.00    -0.392 OA
ATOM     37  H   UNL     1      12.497   6.239  25.267  0.00  0.00    +0.210 HD
ENDBRANCH  35  36
ENDBRANCH  27  35
BRANCH  30  38
ATOM     38  O   UNL     1       6.264   4.764  24.170  0.00  0.00    -0.337 OA
BRANCH  38  39
ATOM     39  C   UNL     1       5.478   5.361  23.138  0.00  0.00    +0.282 C 
ATOM     40  O   UNL     1       4.379   6.151  23.569  0.00  0.00    -0.341 OA
ATOM     41  C   UNL     1       3.471   5.467  24.445  0.00  0.00    +0.178 C 
ATOM     42  C   UNL     1       2.940   4.113  23.931  0.00  0.00    +0.177 C 
ATOM     43  C   UNL     1       3.902   3.358  22.987  0.00  0.00    +0.179 C 
ATOM     44  C   UNL     1       4.924   4.235  22.235  0.00  0.00    +0.201 C 
BRANCH  44  45
ATOM     45  O   UNL     1       5.987   3.407  21.726  0.00  0.00    -0.384 OA
ATOM     46  H   UNL     1       5.751   2.476  21.894  0.00  0.00    +0.210 HD
ENDBRANCH  44  45
BRANCH  43  47
ATOM     47  O   UNL     1       4.568   2.323  23.730  0.00  0.00    -0.386 OA
ATOM     48  H   UNL     1       5.490   2.623  23.877  0.00  0.00    +0.210 HD
ENDBRANCH  43  47
BRANCH  42  49
ATOM     49  O   UNL     1       1.658   4.228  23.307  0.00  0.00    -0.386 OA
ATOM     50  H   UNL     1       1.732   4.967  22.671  0.00  0.00    +0.210 HD
ENDBRANCH  42  49
BRANCH  41  51
ATOM     51  C   UNL     1       2.423   6.491  24.914  0.00  0.00    +0.190 C 
BRANCH  51  52
ATOM     52  O   UNL     1       1.607   5.929  25.947  0.00  0.00    -0.392 OA
ATOM     53  H   UNL     1       2.019   6.151  26.797  0.00  0.00    +0.210 HD
ENDBRANCH  51  52
ENDBRANCH  41  51
ENDBRANCH  38  39
ENDBRANCH  30  38
ENDBRANCH  24  25
ENDBRANCH  11  24
BRANCH   7  54
ATOM     54  O   UNL     1       5.928  -4.384  24.090  0.00  0.00    -0.461 OA
BRANCH  54  55
ATOM     55  C   UNL     1       4.670  -4.416  24.792  0.00  0.00    +0.339 C 
ATOM     56  O   UNL     1       4.875  -4.751  26.169  0.00  0.00    -0.331 OA
ATOM     57  C   UNL     1       5.251  -6.124  26.363  0.00  0.00    +0.179 C 
ATOM     58  C   UNL     1       4.011  -6.974  26.067  0.00  0.00    +0.177 C 
ATOM     59  C   UNL     1       3.655  -6.804  24.581  0.00  0.00    +0.180 C 
ATOM     60  C   UNL     1       3.574  -5.323  24.171  0.00  0.00    +0.214 C 
BRANCH  60  61
ATOM     61  O   UNL     1       3.470  -5.186  22.751  0.00  0.00    -0.383 OA
ATOM     62  H   UNL     1       4.050  -4.446  22.483  0.00  0.00    +0.210 HD
ENDBRANCH  60  61
BRANCH  59  63
ATOM     63  O   UNL     1       4.568  -7.517  23.735  0.00  0.00    -0.386 OA
ATOM     64  H   UNL     1       5.017  -8.206  24.256  0.00  0.00    +0.210 HD
ENDBRANCH  59  63
BRANCH  58  65
ATOM     65  O   UNL     1       2.936  -6.524  26.902  0.00  0.00    -0.386 OA
ATOM     66  H   UNL     1       3.121  -6.766  27.825  0.00  0.00    +0.210 HD
ENDBRANCH  58  65
BRANCH  57  67
ATOM     67  C   UNL     1       5.764  -6.282  27.798  0.00  0.00    +0.190 C 
BRANCH  67  68
ATOM     68  O   UNL     1       5.318  -7.517  28.374  0.00  0.00    -0.392 OA
ATOM     69  H   UNL     1       4.416  -7.388  28.716  0.00  0.00    +0.210 HD
ENDBRANCH  67  68
ENDBRANCH  57  67
ENDBRANCH  54  55
ENDBRANCH   7  54
TORSDOF 24
ENDMDL
MODEL 2
REMARK VINA RESULT:      -6.2      2.310     10.997
REMARK  Name = 
REMARK  24 active torsions:
REMARK  status: ('A' for Active; 'I' for Inactive)
REMARK    1  A    between atoms: C_3  and  O_64
REMARK    2  A    between atoms: C_4  and  O_63
REMARK    3  A    between atoms: C_6  and  C_7
REMARK    4  A    between atoms: C_8  and  O_34
REMARK    5  A    between atoms: C_12  and  O_33
REMARK    6  A    between atoms: C_14  and  O_18
REMARK    7  A    between atoms: O_18  and  C_19
REMARK    8  A    between atoms: C_21  and  O_32
REMARK    9  A    between atoms: C_22  and  O_31
REMARK   10  A    between atoms: C_24  and  O_30
REMARK   11  A    between atoms: C_26  and  C_28
REMARK   12  A    between atoms: C_28  and  O_29
REMARK   13  A    between atoms: O_34  and  C_35
REMARK   14  A    between atoms: C_37  and  O_48
REMARK   15  A    between atoms: C_38  and  O_47
REMARK   16  A    between atoms: C_40  and  O_46
REMARK   17  A    between atoms: C_42  and  C_44
REMARK   18  A    between atoms: C_44  and  O_45
REMARK   19  A    between atoms: O_48  and  C_49
REMARK   20  A    between atoms: C_51  and  O_62
REMARK   21  A    between atoms: C_52  and  O_61
REMARK   22  A    between atoms: C_54  and  O_60
REMARK   23  A    between atoms: C_56  and  C_58
REMARK   24  A    between atoms: C_58  and  O_59
REMARK                            x       y       z     vdW  Elec       q    Type
REMARK                         _______ _______ _______ _____ _____    ______ ____
ROOT
ATOM      1  C   UNL     1       5.717  -2.319  25.137  0.00  0.00    +0.181 A 
ATOM      2  O   UNL     1       5.589  -1.025  24.627  0.00  0.00    -0.451 OA
ATOM      3  C   UNL     1       5.414   0.039  25.476  0.00  0.00    +0.147 A 
ATOM      4  C   UNL     1       5.384  -0.093  26.841  0.00  0.00    +0.109 A 
ATOM      5  C   UNL     1       5.351   1.055  27.652  0.00  0.00    +0.135 A 
ATOM      6  C   UNL     1       5.346   2.329  27.077  0.00  0.00    +0.092 A 
ATOM      7  C   UNL     1       5.333   2.473  25.683  0.00  0.00    +0.131 A 
ATOM      8  C   UNL     1       5.295  -1.466  27.372  0.00  0.00    +0.238 A 
ATOM      9  O   UNL     1       4.999  -1.598  28.551  0.00  0.00    -0.283 OA
ATOM     10  C   UNL     1       5.312   1.306  24.902  0.00  0.00    +0.093 A 
ATOM     11  C   UNL     1       5.533  -2.609  26.447  0.00  0.00    +0.214 A 
ENDROOT
BRANCH   1  13
ATOM     12  C   UNL     1       7.515  -3.599  23.962  0.00  0.00    +0.015 A 
ATOM     13  C   UNL     1       6.137  -3.318  24.097  0.00  0.00    +0.025 A 
ATOM     14  C   UNL     1       5.255  -4.091  23.322  0.00  0.00    +0.060 A 
ATOM     15  C   UNL     1       5.724  -5.163  22.561  0.00  0.00    +0.159 A 
ATOM     16  C   UNL     1       7.078  -5.455  22.496  0.00  0.00    +0.158 A 
ATOM     17  C   UNL     1       7.987  -4.652  23.164  0.00  0.00    +0.050 A 
BRANCH  16  18
ATOM     18  O   UNL     1       7.465  -6.549  21.778  0.00  0.00    -0.503 OA
ATOM     19  H   UNL     1       7.164  -6.432  20.860  0.00  0.00    +0.292 HD
ENDBRANCH  16  18
BRANCH  15  20
ATOM     20  O   UNL     1       4.824  -5.958  21.908  0.00  0.00    -0.503 OA
ATOM     21  H   UNL     1       4.729  -6.746  22.480  0.00  0.00    +0.292 HD
ENDBRANCH  15  20
ENDBRANCH   1  13
BRANCH   5  22
ATOM     22  O   UNL     1       5.360   1.006  29.020  0.00  0.00    -0.506 OA
ATOM     23  H   UNL     1       5.979   0.293  29.304  0.00  0.00    +0.292 HD
ENDBRANCH   5  22
BRANCH  11  24
ATOM     24  O   UNL     1       5.210  -3.892  26.870  0.00  0.00    -0.453 OA
BRANCH  24  25
ATOM     25  C   UNL     1       3.882  -4.237  27.282  0.00  0.00    +0.340 C 
ATOM     26  O   UNL     1       3.877  -4.560  28.711  0.00  0.00    -0.331 OA
ATOM     27  C   UNL     1       4.594  -5.746  29.138  0.00  0.00    +0.179 C 
ATOM     28  C   UNL     1       4.545  -6.976  28.199  0.00  0.00    +0.177 C 
ATOM     29  C   UNL     1       4.401  -6.615  26.730  0.00  0.00    +0.180 C 
ATOM     30  C   UNL     1       3.335  -5.498  26.613  0.00  0.00    +0.221 C 
BRANCH  29  31
ATOM     31  O   UNL     1       5.732  -6.355  26.258  0.00  0.00    -0.386 OA
ATOM     32  H   UNL     1       6.065  -5.558  26.704  0.00  0.00    +0.210 HD
ENDBRANCH  29  31
BRANCH  28  33
ATOM     33  O   UNL     1       5.724  -7.769  28.392  0.00  0.00    -0.386 OA
ATOM     34  H   UNL     1       6.204  -7.716  27.536  0.00  0.00    +0.210 HD
ENDBRANCH  28  33
BRANCH  27  35
ATOM     35  C   UNL     1       4.004  -6.255  30.485  0.00  0.00    +0.190 C 
BRANCH  35  36
ATOM     36  O   UNL     1       3.536  -7.597  30.454  0.00  0.00    -0.392 OA
ATOM     37  H   UNL     1       4.304  -8.171  30.261  0.00  0.00    +0.210 HD
ENDBRANCH  35  36
ENDBRANCH  27  35
BRANCH  30  38
ATOM     38  O   UNL     1       2.842  -5.481  25.281  0.00  0.00    -0.337 OA
BRANCH  38  39
ATOM     39  C   UNL     1       1.450  -5.656  25.014  0.00  0.00    +0.282 C 
ATOM     40  O   UNL     1       0.722  -6.418  25.967  0.00  0.00    -0.341 OA
ATOM     41  C   UNL     1       1.268  -7.722  26.216  0.00  0.00    +0.178 C 
ATOM     42  C   UNL     1       1.516  -8.592  24.967  0.00  0.00    +0.177 C 
ATOM     43  C   UNL     1       1.831  -7.799  23.680  0.00  0.00    +0.179 C 
ATOM     44  C   UNL     1       1.300  -6.351  23.641  0.00  0.00    +0.201 C 
BRANCH  44  45
ATOM     45  O   UNL     1       1.984  -5.614  22.609  0.00  0.00    -0.384 OA
ATOM     46  H   UNL     1       1.447  -5.665  21.797  0.00  0.00    +0.210 HD
ENDBRANCH  44  45
BRANCH  43  47
ATOM     47  O   UNL     1       3.250  -7.827  23.448  0.00  0.00    -0.386 OA
ATOM     48  H   UNL     1       3.501  -8.767  23.322  0.00  0.00    +0.210 HD
ENDBRANCH  43  47
BRANCH  42  49
ATOM     49  O   UNL     1       0.444  -9.503  24.711  0.00  0.00    -0.386 OA
ATOM     50  H   UNL     1       0.797 -10.169  24.087  0.00  0.00    +0.210 HD
ENDBRANCH  42  49
BRANCH  41  51
ATOM     51  C   UNL     1       0.447  -8.356  27.352  0.00  0.00    +0.190 C 
BRANCH  51  52
ATOM     52  O   UNL     1       1.098  -8.151  28.610  0.00  0.00    -0.392 OA
ATOM     53  H   UNL     1       0.494  -8.459  29.304  0.00  0.00    +0.210 HD
ENDBRANCH  51  52
ENDBRANCH  41  51
ENDBRANCH  38  39
ENDBRANCH  30  38
ENDBRANCH  24  25
ENDBRANCH  11  24
BRANCH   7  54
ATOM     54  O   UNL     1       5.410   3.767  25.193  0.00  0.00    -0.461 OA
BRANCH  54  55
ATOM     55  C   UNL     1       5.610   3.828  23.767  0.00  0.00    +0.339 C 
ATOM     56  O   UNL     1       7.008   3.830  23.456  0.00  0.00    -0.331 OA
ATOM     57  C   UNL     1       7.658   5.062  23.805  0.00  0.00    +0.179 C 
ATOM     58  C   UNL     1       7.169   6.123  22.815  0.00  0.00    +0.177 C 
ATOM     59  C   UNL     1       5.660   6.327  23.035  0.00  0.00    +0.180 C 
ATOM     60  C   UNL     1       4.891   4.994  23.035  0.00  0.00    +0.214 C 
BRANCH  60  61
ATOM     61  O   UNL     1       3.539   5.179  23.465  0.00  0.00    -0.383 OA
ATOM     62  H   UNL     1       3.539   5.177  24.442  0.00  0.00    +0.210 HD
ENDBRANCH  60  61
BRANCH  59  63
ATOM     63  O   UNL     1       5.398   7.066  24.236  0.00  0.00    -0.386 OA
ATOM     64  H   UNL     1       6.089   7.740  24.357  0.00  0.00    +0.210 HD
ENDBRANCH  59  63
BRANCH  58  65
ATOM     65  O   UNL     1       7.431   5.664  21.483  0.00  0.00    -0.386 OA
ATOM     66  H   UNL     1       7.954   4.846  21.521  0.00  0.00    +0.210 HD
ENDBRANCH  58  65
BRANCH  57  67
ATOM     67  C   UNL     1       9.173   4.835  23.750  0.00  0.00    +0.190 C 
BRANCH  67  68
ATOM     68  O   UNL     1       9.500   3.728  22.899  0.00  0.00    -0.392 OA
ATOM     69  H   UNL     1       9.812   2.994  23.457  0.00  0.00    +0.210 HD
ENDBRANCH  67  68
ENDBRANCH  57  67
ENDBRANCH  54  55
ENDBRANCH   7  54
TORSDOF 24
ENDMDL
MODEL 3
REMARK VINA RESULT:      -6.1      2.604      9.679
REMARK  Name = 
REMARK  24 active torsions:
REMARK  status: ('A' for Active; 'I' for Inactive)
REMARK    1  A    between atoms: C_3  and  O_64
REMARK    2  A    between atoms: C_4  and  O_63
REMARK    3  A    between atoms: C_6  and  C_7
REMARK    4  A    between atoms: C_8  and  O_34
REMARK    5  A    between atoms: C_12  and  O_33
REMARK    6  A    between atoms: C_14  and  O_18
REMARK    7  A    between atoms: O_18  and  C_19
REMARK    8  A    between atoms: C_21  and  O_32
REMARK    9  A    between atoms: C_22  and  O_31
REMARK   10  A    between atoms: C_24  and  O_30
REMARK   11  A    between atoms: C_26  and  C_28
REMARK   12  A    between atoms: C_28  and  O_29
REMARK   13  A    between atoms: O_34  and  C_35
REMARK   14  A    between atoms: C_37  and  O_48
REMARK   15  A    between atoms: C_38  and  O_47
REMARK   16  A    between atoms: C_40  and  O_46
REMARK   17  A    between atoms: C_42  and  C_44
REMARK   18  A    between atoms: C_44  and  O_45
REMARK   19  A    between atoms: O_48  and  C_49
REMARK   20  A    between atoms: C_51  and  O_62
REMARK   21  A    between atoms: C_52  and  O_61
REMARK   22  A    between atoms: C_54  and  O_60
REMARK   23  A    between atoms: C_56  and  C_58
REMARK   24  A    between atoms: C_58  and  O_59
REMARK                            x       y       z     vdW  Elec       q    Type
REMARK                         _______ _______ _______ _____ _____    ______ ____
ROOT
ATOM      1  C   UNL     1       5.462  -0.738  27.458  0.00  0.00    +0.181 A 
ATOM      2  O   UNL     1       5.980   0.532  27.189  0.00  0.00    -0.451 OA
ATOM      3  C   UNL     1       7.124   0.667  26.443  0.00  0.00    +0.147 A 
ATOM      4  C   UNL     1       7.795  -0.401  25.905  0.00  0.00    +0.109 A 
ATOM      5  C   UNL     1       8.872  -0.177  25.030  0.00  0.00    +0.135 A 
ATOM      6  C   UNL     1       9.265   1.124  24.706  0.00  0.00    +0.092 A 
ATOM      7  C   UNL     1       8.613   2.222  25.284  0.00  0.00    +0.131 A 
ATOM      8  C   UNL     1       7.386  -1.740  26.366  0.00  0.00    +0.238 A 
ATOM      9  O   UNL     1       8.132  -2.677  26.116  0.00  0.00    -0.283 OA
ATOM     10  C   UNL     1       7.576   1.963  26.196  0.00  0.00    +0.093 A 
ATOM     11  C   UNL     1       6.118  -1.878  27.136  0.00  0.00    +0.214 A 
ENDROOT
BRANCH   1  13
ATOM     12  C   UNL     1       3.999  -0.629  29.484  0.00  0.00    +0.015 A 
ATOM     13  C   UNL     1       4.093  -0.692  28.075  0.00  0.00    +0.025 A 
ATOM     14  C   UNL     1       2.890  -0.586  27.356  0.00  0.00    +0.060 A 
ATOM     15  C   UNL     1       1.690  -0.303  28.010  0.00  0.00    +0.159 A 
ATOM     16  C   UNL     1       1.638  -0.185  29.390  0.00  0.00    +0.158 A 
ATOM     17  C   UNL     1       2.784  -0.385  30.140  0.00  0.00    +0.050 A 
BRANCH  16  18
ATOM     18  O   UNL     1       0.443   0.146  29.962  0.00  0.00    -0.503 OA
ATOM     19  H   UNL     1       0.459   1.097  30.169  0.00  0.00    +0.292 HD
ENDBRANCH  16  18
BRANCH  15  20
ATOM     20  O   UNL     1       0.561  -0.098  27.266  0.00  0.00    -0.503 OA
ATOM     21  H   UNL     1       0.883  -0.009  26.347  0.00  0.00    +0.292 HD
ENDBRANCH  15  20
ENDBRANCH   1  13
BRANCH   5  22
ATOM     22  O   UNL     1       9.565  -1.190  24.422  0.00  0.00    -0.506 OA
ATOM     23  H   UNL     1       9.116  -1.412  23.574  0.00  0.00    +0.292 HD
ENDBRANCH   5  22
BRANCH  11  24
ATOM     24  O   UNL     1       5.853  -3.078  27.782  0.00  0.00    -0.453 OA
BRANCH  24  25
ATOM     25  C   UNL     1       4.656  -3.823  27.527  0.00  0.00    +0.340 C 
ATOM     26  O   UNL     1       4.140  -4.371  28.784  0.00  0.00    -0.331 OA
ATOM     27  C   UNL     1       4.933  -5.382  29.456  0.00  0.00    +0.179 C 
ATOM     28  C   UNL     1       5.674  -6.406  28.562  0.00  0.00    +0.177 C 
ATOM     29  C   UNL     1       6.070  -5.854  27.203  0.00  0.00    +0.180 C 
ATOM     30  C   UNL     1       4.869  -5.052  26.644  0.00  0.00    +0.221 C 
BRANCH  29  31
ATOM     31  O   UNL     1       7.321  -5.179  27.403  0.00  0.00    -0.386 OA
ATOM     32  H   UNL     1       7.159  -4.386  27.942  0.00  0.00    +0.210 HD
ENDBRANCH  29  31
BRANCH  28  33
ATOM     33  O   UNL     1       6.838  -6.884  29.251  0.00  0.00    -0.386 OA
ATOM     34  H   UNL     1       7.584  -6.371  28.867  0.00  0.00    +0.210 HD
ENDBRANCH  28  33
BRANCH  27  35
ATOM     35  C   UNL     1       4.012  -6.247  30.365  0.00  0.00    +0.190 C 
BRANCH  35  36
ATOM     36  O   UNL     1       3.725  -7.541  29.853  0.00  0.00    -0.392 OA
ATOM     37  H   UNL     1       2.758  -7.674  29.915  0.00  0.00    +0.210 HD
ENDBRANCH  35  36
ENDBRANCH  27  35
BRANCH  30  38
ATOM     38  O   UNL     1       5.016  -4.941  25.235  0.00  0.00    -0.337 OA
BRANCH  38  39
ATOM     39  C   UNL     1       6.040  -5.661  24.547  0.00  0.00    +0.282 C 
ATOM     40  O   UNL     1       6.991  -4.874  23.843  0.00  0.00    -0.341 OA
ATOM     41  C   UNL     1       6.414  -3.961  22.898  0.00  0.00    +0.178 C 
ATOM     42  C   UNL     1       5.432  -4.583  21.883  0.00  0.00    +0.177 C 
ATOM     43  C   UNL     1       4.674  -5.826  22.396  0.00  0.00    +0.179 C 
ATOM     44  C   UNL     1       5.368  -6.611  23.529  0.00  0.00    +0.201 C 
BRANCH  44  45
ATOM     45  O   UNL     1       4.411  -7.472  24.176  0.00  0.00    -0.384 OA
ATOM     46  H   UNL     1       3.797  -6.910  24.686  0.00  0.00    +0.210 HD
ENDBRANCH  44  45
BRANCH  43  47
ATOM     47  O   UNL     1       3.346  -5.437  22.786  0.00  0.00    -0.386 OA
ATOM     48  H   UNL     1       2.807  -6.255  22.828  0.00  0.00    +0.210 HD
ENDBRANCH  43  47
BRANCH  42  49
ATOM     49  O   UNL     1       6.056  -4.890  20.634  0.00  0.00    -0.386 OA
ATOM     50  H   UNL     1       5.644  -4.299  19.973  0.00  0.00    +0.210 HD
ENDBRANCH  42  49
BRANCH  41  51
ATOM     51  C   UNL     1       7.558  -3.107  22.324  0.00  0.00    +0.190 C 
BRANCH  51  52
ATOM     52  O   UNL     1       7.321  -1.721  22.585  0.00  0.00    -0.392 OA
ATOM     53  H   UNL     1       8.175  -1.315  22.802  0.00  0.00    +0.210 HD
ENDBRANCH  51  52
ENDBRANCH  41  51
ENDBRANCH  38  39
ENDBRANCH  30  38
ENDBRANCH  24  25
ENDBRANCH  11  24
BRANCH   7  54
ATOM     54  O   UNL     1       9.008   3.477  24.850  0.00  0.00    -0.461 OA
BRANCH  54  55
ATOM     55  C   UNL     1       7.980   4.478  24.981  0.00  0.00    +0.339 C 
ATOM     56  O   UNL     1       6.878   4.179  24.117  0.00  0.00    -0.331 OA
ATOM     57  C   UNL     1       7.183   4.382  22.728  0.00  0.00    +0.179 C 
ATOM     58  C   UNL     1       7.286   5.895  22.508  0.00  0.00    +0.177 C 
ATOM     59  C   UNL     1       8.484   6.418  23.319  0.00  0.00    +0.180 C 
ATOM     60  C   UNL     1       8.440   5.948  24.783  0.00  0.00    +0.214 C 
BRANCH  60  61
ATOM     61  O   UNL     1       9.666   6.248  25.457  0.00  0.00    -0.383 OA
ATOM     62  H   UNL     1       9.513   7.040  26.008  0.00  0.00    +0.210 HD
ENDBRANCH  60  61
BRANCH  59  63
ATOM     63  O   UNL     1       9.731   6.061  22.706  0.00  0.00    -0.386 OA
ATOM     64  H   UNL     1      10.259   5.536  23.334  0.00  0.00    +0.210 HD
ENDBRANCH  59  63
BRANCH  58  65
ATOM     65  O   UNL     1       6.068   6.507  22.949  0.00  0.00    -0.386 OA
ATOM     66  H   UNL     1       6.272   7.342  23.403  0.00  0.00    +0.210 HD
ENDBRANCH  58  65
BRANCH  57  67
ATOM     67  C   UNL     1       6.079   3.723  21.894  0.00  0.00    +0.190 C 
BRANCH  67  68
ATOM     68  O   UNL     1       5.347   2.764  22.670  0.00  0.00    -0.392 OA
ATOM     69  H   UNL     1       4.412   3.032  22.687  0.00  0.00    +0.210 HD
ENDBRANCH  67  68
ENDBRANCH  57  67
ENDBRANCH  54  55
ENDBRANCH   7  54
TORSDOF 24
ENDMDL
MODEL 4
REMARK VINA RESULT:      -6.1      2.218      5.268
REMARK  Name = 
REMARK  24 active torsions:
REMARK  status: ('A' for Active; 'I' for Inactive)
REMARK    1  A    between atoms: C_3  and  O_64
REMARK    2  A    between atoms: C_4  and  O_63
REMARK    3  A    between atoms: C_6  and  C_7
REMARK    4  A    between atoms: C_8  and  O_34
REMARK    5  A    between atoms: C_12  and  O_33
REMARK    6  A    between atoms: C_14  and  O_18
REMARK    7  A    between atoms: O_18  and  C_19
REMARK    8  A    between atoms: C_21  and  O_32
REMARK    9  A    between atoms: C_22  and  O_31
REMARK   10  A    between atoms: C_24  and  O_30
REMARK   11  A    between atoms: C_26  and  C_28
REMARK   12  A    between atoms: C_28  and  O_29
REMARK   13  A    between atoms: O_34  and  C_35
REMARK   14  A    between atoms: C_37  and  O_48
REMARK   15  A    between atoms: C_38  and  O_47
REMARK   16  A    between atoms: C_40  and  O_46
REMARK   17  A    between atoms: C_42  and  C_44
REMARK   18  A    between atoms: C_44  and  O_45
REMARK   19  A    between atoms: O_48  and  C_49
REMARK   20  A    between atoms: C_51  and  O_62
REMARK   21  A    between atoms: C_52  and  O_61
REMARK   22  A    between atoms: C_54  and  O_60
REMARK   23  A    between atoms: C_56  and  C_58
REMARK   24  A    between atoms: C_58  and  O_59
REMARK                            x       y       z     vdW  Elec       q    Type
REMARK                         _______ _______ _______ _____ _____    ______ ____
ROOT
ATOM      1  C   UNL     1       6.002   0.264  25.122  0.00  0.00    +0.181 A 
ATOM      2  O   UNL     1       5.814  -1.117  25.217  0.00  0.00    -0.451 OA
ATOM      3  C   UNL     1       4.799  -1.625  25.987  0.00  0.00    +0.147 A 
ATOM      4  C   UNL     1       3.911  -0.833  26.670  0.00  0.00    +0.109 A 
ATOM      5  C   UNL     1       2.809  -1.418  27.317  0.00  0.00    +0.135 A 
ATOM      6  C   UNL     1       2.612  -2.801  27.272  0.00  0.00    +0.092 A 
ATOM      7  C   UNL     1       3.537  -3.623  26.614  0.00  0.00    +0.131 A 
ATOM      8  C   UNL     1       4.235   0.603  26.754  0.00  0.00    +0.238 A 
ATOM      9  O   UNL     1       3.619   1.275  27.569  0.00  0.00    -0.283 OA
ATOM     10  C   UNL     1       4.656  -3.012  26.024  0.00  0.00    +0.093 A 
ATOM     11  C   UNL     1       5.309   1.149  25.877  0.00  0.00    +0.214 A 
ENDROOT
BRANCH   1  13
ATOM     12  C   UNL     1       6.576   1.543  23.051  0.00  0.00    +0.015 A 
ATOM     13  C   UNL     1       6.994   0.647  24.061  0.00  0.00    +0.025 A 
ATOM     14  C   UNL     1       8.350   0.277  24.056  0.00  0.00    +0.060 A 
ATOM     15  C   UNL     1       9.250   0.874  23.172  0.00  0.00    +0.159 A 
ATOM     16  C   UNL     1       8.822   1.799  22.231  0.00  0.00    +0.158 A 
ATOM     17  C   UNL     1       7.476   2.111  22.138  0.00  0.00    +0.050 A 
BRANCH  16  18
ATOM     18  O   UNL     1       9.762   2.385  21.434  0.00  0.00    -0.503 OA
ATOM     19  H   UNL     1      10.602   2.410  21.923  0.00  0.00    +0.292 HD
ENDBRANCH  16  18
BRANCH  15  20
ATOM     20  O   UNL     1      10.579   0.570  23.272  0.00  0.00    -0.503 OA
ATOM     21  H   UNL     1      10.673  -0.284  22.805  0.00  0.00    +0.292 HD
ENDBRANCH  15  20
ENDBRANCH   1  13
BRANCH   5  22
ATOM     22  O   UNL     1       1.860  -0.691  27.983  0.00  0.00    -0.506 OA
ATOM     23  H   UNL     1       1.926   0.249  27.695  0.00  0.00    +0.292 HD
ENDBRANCH   5  22
BRANCH  11  24
ATOM     24  O   UNL     1       5.789   2.428  26.122  0.00  0.00    -0.453 OA
BRANCH  24  25
ATOM     25  C   UNL     1       7.121   2.656  26.597  0.00  0.00    +0.340 C 
ATOM     26  O   UNL     1       7.226   2.232  27.995  0.00  0.00    -0.331 OA
ATOM     27  C   UNL     1       6.472   2.976  28.985  0.00  0.00    +0.179 C 
ATOM     28  C   UNL     1       6.359   4.507  28.782  0.00  0.00    +0.177 C 
ATOM     29  C   UNL     1       6.402   4.933  27.324  0.00  0.00    +0.180 C 
ATOM     30  C   UNL     1       7.525   4.131  26.623  0.00  0.00    +0.221 C 
BRANCH  29  31
ATOM     31  O   UNL     1       5.055   4.808  26.840  0.00  0.00    -0.386 OA
ATOM     32  H   UNL     1       4.451   4.846  27.600  0.00  0.00    +0.210 HD
ENDBRANCH  29  31
BRANCH  28  33
ATOM     33  O   UNL     1       5.151   4.981  29.393  0.00  0.00    -0.386 OA
ATOM     34  H   UNL     1       4.999   5.866  28.991  0.00  0.00    +0.210 HD
ENDBRANCH  28  33
BRANCH  27  35
ATOM     35  C   UNL     1       7.139   2.812  30.381  0.00  0.00    +0.190 C 
BRANCH  35  36
ATOM     36  O   UNL     1       8.479   2.336  30.342  0.00  0.00    -0.392 OA
ATOM     37  H   UNL     1       9.044   3.076  30.044  0.00  0.00    +0.210 HD
ENDBRANCH  35  36
ENDBRANCH  27  35
BRANCH  30  38
ATOM     38  O   UNL     1       7.903   4.821  25.439  0.00  0.00    -0.337 OA
BRANCH  38  39
ATOM     39  C   UNL     1       7.402   6.130  25.164  0.00  0.00    +0.282 C 
ATOM     40  O   UNL     1       6.175   6.191  24.450  0.00  0.00    -0.341 OA
ATOM     41  C   UNL     1       6.183   5.476  23.206  0.00  0.00    +0.178 C 
ATOM     42  C   UNL     1       7.337   5.822  22.244  0.00  0.00    +0.177 C 
ATOM     43  C   UNL     1       8.637   6.286  22.935  0.00  0.00    +0.179 C 
ATOM     44  C   UNL     1       8.464   6.895  24.342  0.00  0.00    +0.201 C 
BRANCH  44  45
ATOM     45  O   UNL     1       9.735   6.909  25.022  0.00  0.00    -0.384 OA
ATOM     46  H   UNL     1       9.591   6.598  25.935  0.00  0.00    +0.210 HD
ENDBRANCH  44  45
BRANCH  43  47
ATOM     47  O   UNL     1       9.568   5.191  22.965  0.00  0.00    -0.386 OA
ATOM     48  H   UNL     1      10.058   5.207  22.116  0.00  0.00    +0.210 HD
ENDBRANCH  43  47
BRANCH  42  49
ATOM     49  O   UNL     1       6.957   6.783  21.255  0.00  0.00    -0.386 OA
ATOM     50  H   UNL     1       7.545   7.553  21.387  0.00  0.00    +0.210 HD
ENDBRANCH  42  49
BRANCH  41  51
ATOM     51  C   UNL     1       4.757   5.535  22.631  0.00  0.00    +0.190 C 
BRANCH  51  52
ATOM     52  O   UNL     1       4.472   4.348  21.886  0.00  0.00    -0.392 OA
ATOM     53  H   UNL     1       4.067   4.620  21.047  0.00  0.00    +0.210 HD
ENDBRANCH  51  52
ENDBRANCH  41  51
ENDBRANCH  38  39
ENDBRANCH  30  38
ENDBRANCH  24  25
ENDBRANCH  11  24
BRANCH   7  54
ATOM     54  O   UNL     1       3.228  -4.973  26.545  0.00  0.00    -0.461 OA
BRANCH  54  55
ATOM     55  C   UNL     1       3.650  -5.595  25.316  0.00  0.00    +0.339 C 
ATOM     56  O   UNL     1       2.712  -5.324  24.269  0.00  0.00    -0.331 OA
ATOM     57  C   UNL     1       1.469  -6.024  24.435  0.00  0.00    +0.179 C 
ATOM     58  C   UNL     1       1.749  -7.505  24.159  0.00  0.00    +0.177 C 
ATOM     59  C   UNL     1       2.711  -8.022  25.241  0.00  0.00    +0.180 C 
ATOM     60  C   UNL     1       3.946  -7.117  25.398  0.00  0.00    +0.214 C 
BRANCH  60  61
ATOM     61  O   UNL     1       4.708  -7.480  26.553  0.00  0.00    -0.383 OA
ATOM     62  H   UNL     1       5.483  -7.990  26.246  0.00  0.00    +0.210 HD
ENDBRANCH  60  61
BRANCH  59  63
ATOM     63  O   UNL     1       2.045  -8.196  26.500  0.00  0.00    -0.386 OA
ATOM     64  H   UNL     1       1.156  -7.804  26.450  0.00  0.00    +0.210 HD
ENDBRANCH  59  63
BRANCH  58  65
ATOM     65  O   UNL     1       2.336  -7.626  22.857  0.00  0.00    -0.386 OA
ATOM     66  H   UNL     1       1.666  -7.425  22.181  0.00  0.00    +0.210 HD
ENDBRANCH  58  65
BRANCH  57  67
ATOM     67  C   UNL     1       0.443  -5.413  23.474  0.00  0.00    +0.190 C 
BRANCH  67  68
ATOM     68  O   UNL     1       0.852  -5.575  22.109  0.00  0.00    -0.392 OA
ATOM     69  H   UNL     1       1.653  -5.041  21.963  0.00  0.00    +0.210 HD
ENDBRANCH  67  68
ENDBRANCH  57  67
ENDBRANCH  54  55
ENDBRANCH   7  54
TORSDOF 24
ENDMDL
MODEL 5
REMARK VINA RESULT:      -5.8      1.884      4.455
REMARK  Name = 
REMARK  24 active torsions:
REMARK  status: ('A' for Active; 'I' for Inactive)
REMARK    1  A    between atoms: C_3  and  O_64
REMARK    2  A    between atoms: C_4  and  O_63
REMARK    3  A    between atoms: C_6  and  C_7
REMARK    4  A    between atoms: C_8  and  O_34
REMARK    5  A    between atoms: C_12  and  O_33
REMARK    6  A    between atoms: C_14  and  O_18
REMARK    7  A    between atoms: O_18  and  C_19
REMARK    8  A    between atoms: C_21  and  O_32
REMARK    9  A    between atoms: C_22  and  O_31
REMARK   10  A    between atoms: C_24  and  O_30
REMARK   11  A    between atoms: C_26  and  C_28
REMARK   12  A    between atoms: C_28  and  O_29
REMARK   13  A    between atoms: O_34  and  C_35
REMARK   14  A    between atoms: C_37  and  O_48
REMARK   15  A    between atoms: C_38  and  O_47
REMARK   16  A    between atoms: C_40  and  O_46
REMARK   17  A    between atoms: C_42  and  C_44
REMARK   18  A    between atoms: C_44  and  O_45
REMARK   19  A    between atoms: O_48  and  C_49
REMARK   20  A    between atoms: C_51  and  O_62
REMARK   21  A    between atoms: C_52  and  O_61
REMARK   22  A    between atoms: C_54  and  O_60
REMARK   23  A    between atoms: C_56  and  C_58
REMARK   24  A    between atoms: C_58  and  O_59
REMARK                            x       y       z     vdW  Elec       q    Type
REMARK                         _______ _______ _______ _____ _____    ______ ____
ROOT
ATOM      1  C   UNL     1       5.764   0.175  26.336  0.00  0.00    +0.181 A 
ATOM      2  O   UNL     1       4.798  -0.832  26.390  0.00  0.00    -0.451 OA
ATOM      3  C   UNL     1       5.174  -2.143  26.548  0.00  0.00    +0.147 A 
ATOM      4  C   UNL     1       6.482  -2.532  26.688  0.00  0.00    +0.109 A 
ATOM      5  C   UNL     1       6.781  -3.871  26.995  0.00  0.00    +0.135 A 
ATOM      6  C   UNL     1       5.756  -4.808  27.156  0.00  0.00    +0.092 A 
ATOM      7  C   UNL     1       4.420  -4.429  26.971  0.00  0.00    +0.131 A 
ATOM      8  C   UNL     1       7.510  -1.512  26.412  0.00  0.00    +0.238 A 
ATOM      9  O   UNL     1       8.662  -1.895  26.267  0.00  0.00    -0.283 OA
ATOM     10  C   UNL     1       4.158  -3.096  26.613  0.00  0.00    +0.093 A 
ATOM     11  C   UNL     1       7.091  -0.087  26.288  0.00  0.00    +0.214 A 
ENDROOT
BRANCH   1  13
ATOM     12  C   UNL     1       5.637   2.431  27.407  0.00  0.00    +0.015 A 
ATOM     13  C   UNL     1       5.174   1.555  26.401  0.00  0.00    +0.025 A 
ATOM     14  C   UNL     1       4.275   2.090  25.461  0.00  0.00    +0.060 A 
ATOM     15  C   UNL     1       3.969   3.452  25.461  0.00  0.00    +0.159 A 
ATOM     16  C   UNL     1       4.489   4.302  26.425  0.00  0.00    +0.158 A 
ATOM     17  C   UNL     1       5.296   3.791  27.428  0.00  0.00    +0.050 A 
BRANCH  16  18
ATOM     18  O   UNL     1       4.194   5.632  26.335  0.00  0.00    -0.503 OA
ATOM     19  H   UNL     1       4.613   6.087  27.085  0.00  0.00    +0.292 HD
ENDBRANCH  16  18
BRANCH  15  20
ATOM     20  O   UNL     1       3.179   3.955  24.465  0.00  0.00    -0.503 OA
ATOM     21  H   UNL     1       3.802   4.188  23.748  0.00  0.00    +0.292 HD
ENDBRANCH  15  20
ENDBRANCH   1  13
BRANCH   5  22
ATOM     22  O   UNL     1       8.057  -4.327  27.190  0.00  0.00    -0.506 OA
ATOM     23  H   UNL     1       8.543  -4.271  26.335  0.00  0.00    +0.292 HD
ENDBRANCH   5  22
BRANCH  11  24
ATOM     24  O   UNL     1       7.999   0.836  25.786  0.00  0.00    -0.453 OA
BRANCH  24  25
ATOM     25  C   UNL     1       7.841   1.418  24.486  0.00  0.00    +0.340 C 
ATOM     26  O   UNL     1       7.672   0.359  23.489  0.00  0.00    -0.331 OA
ATOM     27  C   UNL     1       8.798  -0.520  23.240  0.00  0.00    +0.179 C 
ATOM     28  C   UNL     1      10.209   0.115  23.274  0.00  0.00    +0.177 C 
ATOM     29  C   UNL     1      10.319   1.308  24.209  0.00  0.00    +0.180 C 
ATOM     30  C   UNL     1       9.066   2.194  24.004  0.00  0.00    +0.221 C 
BRANCH  29  31
ATOM     31  O   UNL     1      10.574   0.761  25.513  0.00  0.00    -0.386 OA
ATOM     32  H   UNL     1      10.238   1.385  26.178  0.00  0.00    +0.210 HD
ENDBRANCH  29  31
BRANCH  28  33
ATOM     33  O   UNL     1      11.171  -0.883  23.642  0.00  0.00    -0.386 OA
ATOM     34  H   UNL     1      11.657  -0.492  24.403  0.00  0.00    +0.210 HD
ENDBRANCH  28  33
BRANCH  27  35
ATOM     35  C   UNL     1       8.676  -1.132  21.815  0.00  0.00    +0.190 C 
BRANCH  35  36
ATOM     36  O   UNL     1       9.918  -1.458  21.204  0.00  0.00    -0.392 OA
ATOM     37  H   UNL     1      10.555  -1.650  21.921  0.00  0.00    +0.210 HD
ENDBRANCH  35  36
ENDBRANCH  27  35
BRANCH  30  38
ATOM     38  O   UNL     1       9.355   3.502  24.478  0.00  0.00    -0.337 OA
BRANCH  38  39
ATOM     39  C   UNL     1       8.308   4.368  24.919  0.00  0.00    +0.282 C 
ATOM     40  O   UNL     1       7.093   4.303  24.184  0.00  0.00    -0.341 OA
ATOM     41  C   UNL     1       7.248   4.518  22.774  0.00  0.00    +0.178 C 
ATOM     42  C   UNL     1       8.006   5.800  22.372  0.00  0.00    +0.177 C 
ATOM     43  C   UNL     1       9.056   6.278  23.399  0.00  0.00    +0.179 C 
ATOM     44  C   UNL     1       8.820   5.825  24.855  0.00  0.00    +0.201 C 
BRANCH  44  45
ATOM     45  O   UNL     1      10.037   5.980  25.611  0.00  0.00    -0.384 OA
ATOM     46  H   UNL     1      10.767   5.596  25.090  0.00  0.00    +0.210 HD
ENDBRANCH  44  45
BRANCH  43  47
ATOM     47  O   UNL     1      10.363   5.884  22.948  0.00  0.00    -0.386 OA
ATOM     48  H   UNL     1      10.709   5.237  23.599  0.00  0.00    +0.210 HD
ENDBRANCH  43  47
BRANCH  42  49
ATOM     49  O   UNL     1       7.125   6.882  22.058  0.00  0.00    -0.386 OA
ATOM     50  H   UNL     1       7.590   7.425  21.391  0.00  0.00    +0.210 HD
ENDBRANCH  42  49
BRANCH  41  51
ATOM     51  C   UNL     1       5.875   4.289  22.119  0.00  0.00    +0.190 C 
BRANCH  51  52
ATOM     52  O   UNL     1       4.945   5.285  22.554  0.00  0.00    -0.392 OA
ATOM     53  H   UNL     1       5.406   5.859  23.185  0.00  0.00    +0.210 HD
ENDBRANCH  51  52
ENDBRANCH  41  51
ENDBRANCH  38  39
ENDBRANCH  30  38
ENDBRANCH  24  25
ENDBRANCH  11  24
BRANCH   7  54
ATOM     54  O   UNL     1       3.460  -5.396  27.227  0.00  0.00    -0.461 OA
BRANCH  54  55
ATOM     55  C   UNL     1       3.702  -6.639  26.540  0.00  0.00    +0.339 C 
ATOM     56  O   UNL     1       3.984  -6.399  25.156  0.00  0.00    -0.331 OA
ATOM     57  C   UNL     1       2.829  -5.978  24.413  0.00  0.00    +0.179 C 
ATOM     58  C   UNL     1       1.909  -7.196  24.286  0.00  0.00    +0.177 C 
ATOM     59  C   UNL     1       1.428  -7.584  25.695  0.00  0.00    +0.180 C 
ATOM     60  C   UNL     1       2.596  -7.718  26.688  0.00  0.00    +0.214 C 
BRANCH  60  61
ATOM     61  O   UNL     1       2.118  -7.852  28.030  0.00  0.00    -0.383 OA
ATOM     62  H   UNL     1       1.697  -8.730  28.106  0.00  0.00    +0.210 HD
ENDBRANCH  60  61
BRANCH  59  63
ATOM     63  O   UNL     1       0.443  -6.665  26.187  0.00  0.00    -0.386 OA
ATOM     64  H   UNL     1      -0.036  -7.074  26.929  0.00  0.00    +0.210 HD
ENDBRANCH  59  63
BRANCH  58  65
ATOM     65  O   UNL     1       2.648  -8.269  23.688  0.00  0.00    -0.386 OA
ATOM     66  H   UNL     1       3.512  -8.349  24.126  0.00  0.00    +0.210 HD
ENDBRANCH  58  65
BRANCH  57  67
ATOM     67  C   UNL     1       3.303  -5.433  23.061  0.00  0.00    +0.190 C 
BRANCH  67  68
ATOM     68  O   UNL     1       4.434  -6.168  22.575  0.00  0.00    -0.392 OA
ATOM     69  H   UNL     1       4.680  -6.831  23.244  0.00  0.00    +0.210 HD
ENDBRANCH  67  68
ENDBRANCH  57  67
ENDBRANCH  54  55
ENDBRANCH   7  54
TORSDOF 24
ENDMDL
MODEL 6
REMARK VINA RESULT:      -5.8      1.987      4.762
REMARK  Name = 
REMARK  24 active torsions:
REMARK  status: ('A' for Active; 'I' for Inactive)
REMARK    1  A    between atoms: C_3  and  O_64
REMARK    2  A    between atoms: C_4  and  O_63
REMARK    3  A    between atoms: C_6  and  C_7
REMARK    4  A    between atoms: C_8  and  O_34
REMARK    5  A    between atoms: C_12  and  O_33
REMARK    6  A    between atoms: C_14  and  O_18
REMARK    7  A    between atoms: O_18  and  C_19
REMARK    8  A    between atoms: C_21  and  O_32
REMARK    9  A    between atoms: C_22  and  O_31
REMARK   10  A    between atoms: C_24  and  O_30
REMARK   11  A    between atoms: C_26  and  C_28
REMARK   12  A    between atoms: C_28  and  O_29
REMARK   13  A    between atoms: O_34  and  C_35
REMARK   14  A    between atoms: C_37  and  O_48
REMARK   15  A    between atoms: C_38  and  O_47
REMARK   16  A    between atoms: C_40  and  O_46
REMARK   17  A    between atoms: C_42  and  C_44
REMARK   18  A    between atoms: C_44  and  O_45
REMARK   19  A    between atoms: O_48  and  C_49
REMARK   20  A    between atoms: C_51  and  O_62
REMARK   21  A    between atoms: C_52  and  O_61
REMARK   22  A    between atoms: C_54  and  O_60
REMARK   23  A    between atoms: C_56  and  C_58
REMARK   24  A    between atoms: C_58  and  O_59
REMARK                            x       y       z     vdW  Elec       q    Type
REMARK                         _______ _______ _______ _____ _____    ______ ____
ROOT
ATOM      1  C   UNL     1       4.467   1.740  26.078  0.00  0.00    +0.181 A 
ATOM      2  O   UNL     1       4.008   0.421  26.132  0.00  0.00    -0.451 OA
ATOM      3  C   UNL     1       4.891  -0.610  26.330  0.00  0.00    +0.147 A 
ATOM      4  C   UNL     1       6.237  -0.416  26.512  0.00  0.00    +0.109 A 
ATOM      5  C   UNL     1       7.057  -1.504  26.857  0.00  0.00    +0.135 A 
ATOM      6  C   UNL     1       6.513  -2.781  27.015  0.00  0.00    +0.092 A 
ATOM      7  C   UNL     1       5.147  -2.997  26.789  0.00  0.00    +0.131 A 
ATOM      8  C   UNL     1       6.754   0.937  26.236  0.00  0.00    +0.238 A 
ATOM      9  O   UNL     1       7.965   1.069  26.129  0.00  0.00    -0.283 OA
ATOM     10  C   UNL     1       4.365  -1.900  26.393  0.00  0.00    +0.093 A 
ATOM     11  C   UNL     1       5.783   2.055  26.069  0.00  0.00    +0.214 A 
ENDROOT
BRANCH   1  13
ATOM     12  C   UNL     1       3.086   3.424  27.307  0.00  0.00    +0.015 A 
ATOM     13  C   UNL     1       3.353   2.747  26.095  0.00  0.00    +0.025 A 
ATOM     14  C   UNL     1       2.624   3.161  24.966  0.00  0.00    +0.060 A 
ATOM     15  C   UNL     1       1.781   4.271  25.028  0.00  0.00    +0.159 A 
ATOM     16  C   UNL     1       1.586   4.956  26.218  0.00  0.00    +0.158 A 
ATOM     17  C   UNL     1       2.206   4.514  27.374  0.00  0.00    +0.050 A 
BRANCH  16  18
ATOM     18  O   UNL     1       0.791   6.066  26.197  0.00  0.00    -0.503 OA
ATOM     19  H   UNL     1       1.099   6.673  26.892  0.00  0.00    +0.292 HD
ENDBRANCH  16  18
BRANCH  15  20
ATOM     20  O   UNL     1       1.176   4.710  23.883  0.00  0.00    -0.503 OA
ATOM     21  H   UNL     1       1.657   4.259  23.161  0.00  0.00    +0.292 HD
ENDBRANCH  15  20
ENDBRANCH   1  13
BRANCH   5  22
ATOM     22  O   UNL     1       8.400  -1.383  27.094  0.00  0.00    -0.506 OA
ATOM     23  H   UNL     1       8.823  -0.977  26.302  0.00  0.00    +0.292 HD
ENDBRANCH   5  22
BRANCH  11  24
ATOM     24  O   UNL     1       6.238   3.267  25.568  0.00  0.00    -0.453 OA
BRANCH  24  25
ATOM     25  C   UNL     1       7.629   3.506  25.317  0.00  0.00    +0.340 C 
ATOM     26  O   UNL     1       7.906   4.942  25.403  0.00  0.00    -0.331 OA
ATOM     27  C   UNL     1       7.315   5.805  24.398  0.00  0.00    +0.179 C 
ATOM     28  C   UNL     1       7.225   5.249  22.956  0.00  0.00    +0.177 C 
ATOM     29  C   UNL     1       7.085   3.737  22.893  0.00  0.00    +0.180 C 
ATOM     30  C   UNL     1       8.079   3.121  23.908  0.00  0.00    +0.221 C 
BRANCH  29  31
ATOM     31  O   UNL     1       5.683   3.466  23.044  0.00  0.00    -0.386 OA
ATOM     32  H   UNL     1       5.505   3.284  23.982  0.00  0.00    +0.210 HD
ENDBRANCH  29  31
BRANCH  28  33
ATOM     33  O   UNL     1       6.125   5.868  22.275  0.00  0.00    -0.386 OA
ATOM     34  H   UNL     1       5.361   5.271  22.439  0.00  0.00    +0.210 HD
ENDBRANCH  28  33
BRANCH  27  35
ATOM     35  C   UNL     1       8.157   7.106  24.267  0.00  0.00    +0.190 C 
BRANCH  35  36
ATOM     36  O   UNL     1       9.472   6.909  23.762  0.00  0.00    -0.392 OA
ATOM     37  H   UNL     1      10.070   6.817  24.530  0.00  0.00    +0.210 HD
ENDBRANCH  35  36
ENDBRANCH  27  35
BRANCH  30  38
ATOM     38  O   UNL     1       8.317   1.768  23.545  0.00  0.00    -0.337 OA
BRANCH  38  39
ATOM     39  C   UNL     1       7.919   1.274  22.266  0.00  0.00    +0.282 C 
ATOM     40  O   UNL     1       7.024   0.170  22.275  0.00  0.00    -0.341 OA
ATOM     41  C   UNL     1       7.488  -0.957  23.034  0.00  0.00    +0.178 C 
ATOM     42  C   UNL     1       8.901  -1.464  22.680  0.00  0.00    +0.177 C 
ATOM     43  C   UNL     1       9.861  -0.379  22.144  0.00  0.00    +0.179 C 
ATOM     44  C   UNL     1       9.186   0.846  21.492  0.00  0.00    +0.201 C 
BRANCH  44  45
ATOM     45  O   UNL     1      10.133   1.929  21.407  0.00  0.00    -0.384 OA
ATOM     46  H   UNL     1       9.659   2.718  21.085  0.00  0.00    +0.210 HD
ENDBRANCH  44  45
BRANCH  43  47
ATOM     47  O   UNL     1      10.744   0.029  23.203  0.00  0.00    -0.386 OA
ATOM     48  H   UNL     1      10.535   0.965  23.406  0.00  0.00    +0.210 HD
ENDBRANCH  43  47
BRANCH  42  49
ATOM     49  O   UNL     1       8.876  -2.566  21.770  0.00  0.00    -0.386 OA
ATOM     50  H   UNL     1       8.065  -3.072  21.980  0.00  0.00    +0.210 HD
ENDBRANCH  42  49
BRANCH  41  51
ATOM     51  C   UNL     1       6.358  -2.001  23.047  0.00  0.00    +0.190 C 
BRANCH  51  52
ATOM     52  O   UNL     1       6.834  -3.241  23.579  0.00  0.00    -0.392 OA
ATOM     53  H   UNL     1       7.509  -3.580  22.969  0.00  0.00    +0.210 HD
ENDBRANCH  51  52
ENDBRANCH  41  51
ENDBRANCH  38  39
ENDBRANCH  30  38
ENDBRANCH  24  25
ENDBRANCH  11  24
BRANCH   7  54
ATOM     54  O   UNL     1       4.670  -4.274  27.044  0.00  0.00    -0.461 OA
BRANCH  54  55
ATOM     55  C   UNL     1       5.348  -5.299  26.292  0.00  0.00    +0.339 C 
ATOM     56  O   UNL     1       5.174  -5.085  24.886  0.00  0.00    -0.331 OA
ATOM     57  C   UNL     1       3.836  -5.356  24.439  0.00  0.00    +0.179 C 
ATOM     58  C   UNL     1       3.641  -6.874  24.500  0.00  0.00    +0.177 C 
ATOM     59  C   UNL     1       3.727  -7.311  25.972  0.00  0.00    +0.180 C 
ATOM     60  C   UNL     1       4.985  -6.762  26.666  0.00  0.00    +0.214 C 
BRANCH  60  61
ATOM     61  O   UNL     1       4.933  -6.983  28.079  0.00  0.00    -0.383 OA
ATOM     62  H   UNL     1       4.071  -7.396  28.280  0.00  0.00    +0.210 HD
ENDBRANCH  60  61
BRANCH  59  63
ATOM     63  O   UNL     1       2.544  -6.949  26.699  0.00  0.00    -0.386 OA
ATOM     64  H   UNL     1       2.499  -7.471  27.519  0.00  0.00    +0.210 HD
ENDBRANCH  59  63
BRANCH  58  65
ATOM     65  O   UNL     1       4.670  -7.500  23.723  0.00  0.00    -0.386 OA
ATOM     66  H   UNL     1       4.276  -8.182  23.154  0.00  0.00    +0.210 HD
ENDBRANCH  58  65
BRANCH  57  67
ATOM     67  C   UNL     1       3.678  -4.781  23.027  0.00  0.00    +0.190 C 
BRANCH  67  68
ATOM     68  O   UNL     1       4.821  -5.084  22.215  0.00  0.00    -0.392 OA
ATOM     69  H   UNL     1       4.522  -5.201  21.296  0.00  0.00    +0.210 HD
ENDBRANCH  67  68
ENDBRANCH  57  67
ENDBRANCH  54  55
ENDBRANCH   7  54
TORSDOF 24
ENDMDL
MODEL 7
REMARK VINA RESULT:      -5.6      2.360     10.746
REMARK  Name = 
REMARK  24 active torsions:
REMARK  status: ('A' for Active; 'I' for Inactive)
REMARK    1  A    between atoms: C_3  and  O_64
REMARK    2  A    between atoms: C_4  and  O_63
REMARK    3  A    between atoms: C_6  and  C_7
REMARK    4  A    between atoms: C_8  and  O_34
REMARK    5  A    between atoms: C_12  and  O_33
REMARK    6  A    between atoms: C_14  and  O_18
REMARK    7  A    between atoms: O_18  and  C_19
REMARK    8  A    between atoms: C_21  and  O_32
REMARK    9  A    between atoms: C_22  and  O_31
REMARK   10  A    between atoms: C_24  and  O_30
REMARK   11  A    between atoms: C_26  and  C_28
REMARK   12  A    between atoms: C_28  and  O_29
REMARK   13  A    between atoms: O_34  and  C_35
REMARK   14  A    between atoms: C_37  and  O_48
REMARK   15  A    between atoms: C_38  and  O_47
REMARK   16  A    between atoms: C_40  and  O_46
REMARK   17  A    between atoms: C_42  and  C_44
REMARK   18  A    between atoms: C_44  and  O_45
REMARK   19  A    between atoms: O_48  and  C_49
REMARK   20  A    between atoms: C_51  and  O_62
REMARK   21  A    between atoms: C_52  and  O_61
REMARK   22  A    between atoms: C_54  and  O_60
REMARK   23  A    between atoms: C_56  and  C_58
REMARK   24  A    between atoms: C_58  and  O_59
REMARK                            x       y       z     vdW  Elec       q    Type
REMARK                         _______ _______ _______ _____ _____    ______ ____
ROOT
ATOM      1  C   UNL     1       6.540  -2.063  24.496  0.00  0.00    +0.181 A 
ATOM      2  O   UNL     1       6.668  -0.819  23.874  0.00  0.00    -0.451 OA
ATOM      3  C   UNL     1       6.851   0.314  24.627  0.00  0.00    +0.147 A 
ATOM      4  C   UNL     1       6.947   0.294  25.995  0.00  0.00    +0.109 A 
ATOM      5  C   UNL     1       7.283   1.470  26.687  0.00  0.00    +0.135 A 
ATOM      6  C   UNL     1       7.517   2.660  25.992  0.00  0.00    +0.092 A 
ATOM      7  C   UNL     1       7.379   2.701  24.598  0.00  0.00    +0.131 A 
ATOM      8  C   UNL     1       6.594  -0.971  26.665  0.00  0.00    +0.238 A 
ATOM      9  O   UNL     1       6.412  -0.939  27.874  0.00  0.00    -0.283 OA
ATOM     10  C   UNL     1       6.990   1.521  23.942  0.00  0.00    +0.093 A 
ATOM     11  C   UNL     1       6.444  -2.202  25.839  0.00  0.00    +0.214 A 
ENDROOT
BRANCH   1  13
ATOM     12  C   UNL     1       6.823  -4.505  24.036  0.00  0.00    +0.015 A 
ATOM     13  C   UNL     1       6.586  -3.209  23.525  0.00  0.00    +0.025 A 
ATOM     14  C   UNL     1       6.294  -3.113  22.153  0.00  0.00    +0.060 A 
ATOM     15  C   UNL     1       6.122  -4.260  21.378  0.00  0.00    +0.159 A 
ATOM     16  C   UNL     1       6.299  -5.524  21.921  0.00  0.00    +0.158 A 
ATOM     17  C   UNL     1       6.688  -5.655  23.243  0.00  0.00    +0.050 A 
BRANCH  16  18
ATOM     18  O   UNL     1       6.062  -6.605  21.122  0.00  0.00    -0.503 OA
ATOM     19  H   UNL     1       6.883  -6.816  20.645  0.00  0.00    +0.292 HD
ENDBRANCH  16  18
BRANCH  15  20
ATOM     20  O   UNL     1       5.731  -4.128  20.075  0.00  0.00    -0.503 OA
ATOM     21  H   UNL     1       5.763  -5.037  19.714  0.00  0.00    +0.292 HD
ENDBRANCH  15  20
ENDBRANCH   1  13
BRANCH   5  22
ATOM     22  O   UNL     1       7.437   1.521  28.047  0.00  0.00    -0.506 OA
ATOM     23  H   UNL     1       6.590   1.245  28.468  0.00  0.00    +0.292 HD
ENDBRANCH   5  22
BRANCH  11  24
ATOM     24  O   UNL     1       5.874  -3.330  26.415  0.00  0.00    -0.453 OA
BRANCH  24  25
ATOM     25  C   UNL     1       4.480  -3.387  26.742  0.00  0.00    +0.340 C 
ATOM     26  O   UNL     1       4.289  -3.037  28.151  0.00  0.00    -0.331 OA
ATOM     27  C   UNL     1       4.823  -3.942  29.151  0.00  0.00    +0.179 C 
ATOM     28  C   UNL     1       4.739  -5.458  28.845  0.00  0.00    +0.177 C 
ATOM     29  C   UNL     1       4.791  -5.784  27.362  0.00  0.00    +0.180 C 
ATOM     30  C   UNL     1       3.872  -4.784  26.619  0.00  0.00    +0.221 C 
BRANCH  29  31
ATOM     31  O   UNL     1       6.185  -5.830  27.020  0.00  0.00    -0.386 OA
ATOM     32  H   UNL     1       6.319  -5.315  26.206  0.00  0.00    +0.210 HD
ENDBRANCH  29  31
BRANCH  28  33
ATOM     33  O   UNL     1       5.797  -6.141  29.532  0.00  0.00    -0.386 OA
ATOM     34  H   UNL     1       5.362  -6.914  29.954  0.00  0.00    +0.210 HD
ENDBRANCH  28  33
BRANCH  27  35
ATOM     35  C   UNL     1       4.041  -3.766  30.485  0.00  0.00    +0.190 C 
BRANCH  35  36
ATOM     36  O   UNL     1       2.686  -4.195  30.436  0.00  0.00    -0.392 OA
ATOM     37  H   UNL     1       2.597  -4.955  31.046  0.00  0.00    +0.210 HD
ENDBRANCH  35  36
ENDBRANCH  27  35
BRANCH  30  38
ATOM     38  O   UNL     1       3.528  -5.339  25.356  0.00  0.00    -0.337 OA
BRANCH  38  39
ATOM     39  C   UNL     1       2.163  -5.428  24.945  0.00  0.00    +0.282 C 
ATOM     40  O   UNL     1       1.273  -6.045  25.864  0.00  0.00    -0.341 OA
ATOM     41  C   UNL     1       1.673  -7.361  26.276  0.00  0.00    +0.178 C 
ATOM     42  C   UNL     1       1.980  -8.353  25.136  0.00  0.00    +0.177 C 
ATOM     43  C   UNL     1       2.500  -7.703  23.836  0.00  0.00    +0.179 C 
ATOM     44  C   UNL     1       2.104  -6.227  23.623  0.00  0.00    +0.201 C 
BRANCH  44  45
ATOM     45  O   UNL     1       2.957  -5.638  22.622  0.00  0.00    -0.384 OA
ATOM     46  H   UNL     1       3.386  -6.362  22.128  0.00  0.00    +0.210 HD
ENDBRANCH  44  45
BRANCH  43  47
ATOM     47  O   UNL     1       3.928  -7.861  23.773  0.00  0.00    -0.386 OA
ATOM     48  H   UNL     1       4.317  -6.961  23.787  0.00  0.00    +0.210 HD
ENDBRANCH  43  47
BRANCH  42  49
ATOM     49  O   UNL     1       0.866  -9.198  24.830  0.00  0.00    -0.386 OA
ATOM     50  H   UNL     1       0.312  -8.697  24.199  0.00  0.00    +0.210 HD
ENDBRANCH  42  49
BRANCH  41  51
ATOM     51  C   UNL     1       0.681  -7.828  27.356  0.00  0.00    +0.190 C 
BRANCH  51  52
ATOM     52  O   UNL     1       1.057  -9.116  27.851  0.00  0.00    -0.392 OA
ATOM     53  H   UNL     1       1.803  -8.989  28.458  0.00  0.00    +0.210 HD
ENDBRANCH  51  52
ENDBRANCH  41  51
ENDBRANCH  38  39
ENDBRANCH  30  38
ENDBRANCH  24  25
ENDBRANCH  11  24
BRANCH   7  54
ATOM     54  O   UNL     1       7.707   3.896  23.977  0.00  0.00    -0.461 OA
BRANCH  54  55
ATOM     55  C   UNL     1       6.897   5.007  24.410  0.00  0.00    +0.339 C 
ATOM     56  O   UNL     1       5.521   4.778  24.088  0.00  0.00    -0.331 OA
ATOM     57  C   UNL     1       5.251   4.866  22.680  0.00  0.00    +0.179 C 
ATOM     58  C   UNL     1       5.369   6.344  22.293  0.00  0.00    +0.177 C 
ATOM     59  C   UNL     1       6.828   6.782  22.507  0.00  0.00    +0.180 C 
ATOM     60  C   UNL     1       7.346   6.405  23.906  0.00  0.00    +0.214 C 
BRANCH  60  61
ATOM     61  O   UNL     1       8.759   6.611  24.004  0.00  0.00    -0.383 OA
ATOM     62  H   UNL     1       9.121   6.603  23.098  0.00  0.00    +0.210 HD
ENDBRANCH  60  61
BRANCH  59  63
ATOM     63  O   UNL     1       7.690   6.260  21.486  0.00  0.00    -0.386 OA
ATOM     64  H   UNL     1       8.572   6.662  21.573  0.00  0.00    +0.210 HD
ENDBRANCH  59  63
BRANCH  58  65
ATOM     65  O   UNL     1       4.483   7.107  23.122  0.00  0.00    -0.386 OA
ATOM     66  H   UNL     1       4.980   7.824  23.551  0.00  0.00    +0.210 HD
ENDBRANCH  58  65
BRANCH  57  67
ATOM     67  C   UNL     1       3.858   4.282  22.422  0.00  0.00    +0.190 C 
BRANCH  67  68
ATOM     68  O   UNL     1       3.084   5.145  21.577  0.00  0.00    -0.392 OA
ATOM     69  H   UNL     1       2.729   4.617  20.841  0.00  0.00    +0.210 HD
ENDBRANCH  67  68
ENDBRANCH  57  67
ENDBRANCH  54  55
ENDBRANCH   7  54
TORSDOF 24
ENDMDL
MODEL 8
REMARK VINA RESULT:      -5.5      2.564     10.440
REMARK  Name = 
REMARK  24 active torsions:
REMARK  status: ('A' for Active; 'I' for Inactive)
REMARK    1  A    between atoms: C_3  and  O_64
REMARK    2  A    between atoms: C_4  and  O_63
REMARK    3  A    between atoms: C_6  and  C_7
REMARK    4  A    between atoms: C_8  and  O_34
REMARK    5  A    between atoms: C_12  and  O_33
REMARK    6  A    between atoms: C_14  and  O_18
REMARK    7  A    between atoms: O_18  and  C_19
REMARK    8  A    between atoms: C_21  and  O_32
REMARK    9  A    between atoms: C_22  and  O_31
REMARK   10  A    between atoms: C_24  and  O_30
REMARK   11  A    between atoms: C_26  and  C_28
REMARK   12  A    between atoms: C_28  and  O_29
REMARK   13  A    between atoms: O_34  and  C_35
REMARK   14  A    between atoms: C_37  and  O_48
REMARK   15  A    between atoms: C_38  and  O_47
REMARK   16  A    between atoms: C_40  and  O_46
REMARK   17  A    between atoms: C_42  and  C_44
REMARK   18  A    between atoms: C_44  and  O_45
REMARK   19  A    between atoms: O_48  and  C_49
REMARK   20  A    between atoms: C_51  and  O_62
REMARK   21  A    between atoms: C_52  and  O_61
REMARK   22  A    between atoms: C_54  and  O_60
REMARK   23  A    between atoms: C_56  and  C_58
REMARK   24  A    between atoms: C_58  and  O_59
REMARK                            x       y       z     vdW  Elec       q    Type
REMARK                         _______ _______ _______ _____ _____    ______ ____
ROOT
ATOM      1  C   UNL     1       6.138  -1.481  25.429  0.00  0.00    +0.181 A 
ATOM      2  O   UNL     1       6.710  -0.304  24.939  0.00  0.00    -0.451 OA
ATOM      3  C   UNL     1       6.758   0.821  25.725  0.00  0.00    +0.147 A 
ATOM      4  C   UNL     1       6.287   0.852  27.013  0.00  0.00    +0.109 A 
ATOM      5  C   UNL     1       6.503   1.992  27.806  0.00  0.00    +0.135 A 
ATOM      6  C   UNL     1       7.192   3.094  27.292  0.00  0.00    +0.092 A 
ATOM      7  C   UNL     1       7.638   3.088  25.963  0.00  0.00    +0.131 A 
ATOM      8  C   UNL     1       5.490  -0.307  27.454  0.00  0.00    +0.238 A 
ATOM      9  O   UNL     1       4.842  -0.188  28.485  0.00  0.00    -0.283 OA
ATOM     10  C   UNL     1       7.359   1.956  25.181  0.00  0.00    +0.093 A 
ATOM     11  C   UNL     1       5.485  -1.537  26.614  0.00  0.00    +0.214 A 
ENDROOT
BRANCH   1  13
ATOM     12  C   UNL     1       5.700  -2.721  23.302  0.00  0.00    +0.015 A 
ATOM     13  C   UNL     1       6.384  -2.664  24.538  0.00  0.00    +0.025 A 
ATOM     14  C   UNL     1       7.335  -3.671  24.781  0.00  0.00    +0.060 A 
ATOM     15  C   UNL     1       7.667  -4.594  23.788  0.00  0.00    +0.159 A 
ATOM     16  C   UNL     1       7.023  -4.587  22.560  0.00  0.00    +0.158 A 
ATOM     17  C   UNL     1       6.008  -3.675  22.322  0.00  0.00    +0.050 A 
BRANCH  16  18
ATOM     18  O   UNL     1       7.433  -5.482  21.615  0.00  0.00    -0.503 OA
ATOM     19  H   UNL     1       6.961  -6.319  21.764  0.00  0.00    +0.292 HD
ENDBRANCH  16  18
BRANCH  15  20
ATOM     20  O   UNL     1       8.674  -5.488  24.023  0.00  0.00    -0.503 OA
ATOM     21  H   UNL     1       9.495  -4.961  23.952  0.00  0.00    +0.292 HD
ENDBRANCH  15  20
ENDBRANCH   1  13
BRANCH   5  22
ATOM     22  O   UNL     1       6.100   2.083  29.111  0.00  0.00    -0.506 OA
ATOM     23  H   UNL     1       5.116   2.034  29.139  0.00  0.00    +0.292 HD
ENDBRANCH   5  22
BRANCH  11  24
ATOM     24  O   UNL     1       4.553  -2.530  26.885  0.00  0.00    -0.453 OA
BRANCH  24  25
ATOM     25  C   UNL     1       3.337  -2.648  26.135  0.00  0.00    +0.340 C 
ATOM     26  O   UNL     1       2.429  -1.557  26.494  0.00  0.00    -0.331 OA
ATOM     27  C   UNL     1       1.896  -1.538  27.843  0.00  0.00    +0.179 C 
ATOM     28  C   UNL     1       1.549  -2.904  28.484  0.00  0.00    +0.177 C 
ATOM     29  C   UNL     1       2.413  -4.050  27.982  0.00  0.00    +0.180 C 
ATOM     30  C   UNL     1       2.541  -3.916  26.445  0.00  0.00    +0.221 C 
BRANCH  29  31
ATOM     31  O   UNL     1       3.606  -4.020  28.781  0.00  0.00    -0.386 OA
ATOM     32  H   UNL     1       3.640  -4.834  29.312  0.00  0.00    +0.210 HD
ENDBRANCH  29  31
BRANCH  28  33
ATOM     33  O   UNL     1       1.657  -2.802  29.910  0.00  0.00    -0.386 OA
ATOM     34  H   UNL     1       1.735  -3.732  30.222  0.00  0.00    +0.210 HD
ENDBRANCH  28  33
BRANCH  27  35
ATOM     35  C   UNL     1       0.560  -0.742  27.865  0.00  0.00    +0.190 C 
BRANCH  35  36
ATOM     36  O   UNL     1       0.546   0.411  27.033  0.00  0.00    -0.392 OA
ATOM     37  H   UNL     1       1.006   1.126  27.516  0.00  0.00    +0.210 HD
ENDBRANCH  35  36
ENDBRANCH  27  35
BRANCH  30  38
ATOM     38  O   UNL     1       2.911  -5.179  25.909  0.00  0.00    -0.337 OA
BRANCH  38  39
ATOM     39  C   UNL     1       3.438  -5.286  24.587  0.00  0.00    +0.282 C 
ATOM     40  O   UNL     1       2.487  -5.256  23.531  0.00  0.00    -0.341 OA
ATOM     41  C   UNL     1       1.448  -6.239  23.649  0.00  0.00    +0.178 C 
ATOM     42  C   UNL     1       1.923  -7.693  23.851  0.00  0.00    +0.177 C 
ATOM     43  C   UNL     1       3.278  -7.834  24.579  0.00  0.00    +0.179 C 
ATOM     44  C   UNL     1       4.219  -6.616  24.479  0.00  0.00    +0.201 C 
BRANCH  44  45
ATOM     45  O   UNL     1       5.233  -6.705  25.499  0.00  0.00    -0.384 OA
ATOM     46  H   UNL     1       4.828  -7.102  26.293  0.00  0.00    +0.210 HD
ENDBRANCH  44  45
BRANCH  43  47
ATOM     47  O   UNL     1       3.037  -8.181  25.953  0.00  0.00    -0.386 OA
ATOM     48  H   UNL     1       3.052  -7.346  26.467  0.00  0.00    +0.210 HD
ENDBRANCH  43  47
BRANCH  42  49
ATOM     49  O   UNL     1       1.964  -8.431  22.627  0.00  0.00    -0.386 OA
ATOM     50  H   UNL     1       2.894  -8.405  22.326  0.00  0.00    +0.210 HD
ENDBRANCH  42  49
BRANCH  41  51
ATOM     51  C   UNL     1       0.444  -5.988  22.510  0.00  0.00    +0.190 C 
BRANCH  51  52
ATOM     52  O   UNL     1       0.443  -4.605  22.145  0.00  0.00    -0.392 OA
ATOM     53  H   UNL     1      -0.319  -4.457  21.563  0.00  0.00    +0.210 HD
ENDBRANCH  51  52
ENDBRANCH  41  51
ENDBRANCH  38  39
ENDBRANCH  30  38
ENDBRANCH  24  25
ENDBRANCH  11  24
BRANCH   7  54
ATOM     54  O   UNL     1       8.382   4.185  25.554  0.00  0.00    -0.461 OA
BRANCH  54  55
ATOM     55  C   UNL     1       7.573   5.297  25.126  0.00  0.00    +0.339 C 
ATOM     56  O   UNL     1       6.652   4.885  24.110  0.00  0.00    -0.331 OA
ATOM     57  C   UNL     1       7.292   4.604  22.855  0.00  0.00    +0.179 C 
ATOM     58  C   UNL     1       7.743   5.946  22.271  0.00  0.00    +0.177 C 
ATOM     59  C   UNL     1       8.812   6.541  23.203  0.00  0.00    +0.180 C 
ATOM     60  C   UNL     1       8.352   6.562  24.672  0.00  0.00    +0.214 C 
BRANCH  60  61
ATOM     61  O   UNL     1       9.432   6.900  25.546  0.00  0.00    -0.383 OA
ATOM     62  H   UNL     1       9.210   7.749  25.975  0.00  0.00    +0.210 HD
ENDBRANCH  60  61
BRANCH  59  63
ATOM     63  O   UNL     1      10.066   5.857  23.072  0.00  0.00    -0.386 OA
ATOM     64  H   UNL     1       9.904   4.900  22.999  0.00  0.00    +0.210 HD
ENDBRANCH  59  63
BRANCH  58  65
ATOM     65  O   UNL     1       6.606   6.814  22.182  0.00  0.00    -0.386 OA
ATOM     66  H   UNL     1       6.847   7.697  22.511  0.00  0.00    +0.210 HD
ENDBRANCH  58  65
BRANCH  57  67
ATOM     67  C   UNL     1       6.290   3.862  21.963  0.00  0.00    +0.190 C 
BRANCH  67  68
ATOM     68  O   UNL     1       4.948   4.305  22.212  0.00  0.00    -0.392 OA
ATOM     69  H   UNL     1       4.765   4.208  23.163  0.00  0.00    +0.210 HD
ENDBRANCH  67  68
ENDBRANCH  57  67
ENDBRANCH  54  55
ENDBRANCH   7  54
TORSDOF 24
ENDMDL
MODEL 9
REMARK VINA RESULT:      -5.2      2.418      5.254
REMARK  Name = 
REMARK  24 active torsions:
REMARK  status: ('A' for Active; 'I' for Inactive)
REMARK    1  A    between atoms: C_3  and  O_64
REMARK    2  A    between atoms: C_4  and  O_63
REMARK    3  A    between atoms: C_6  and  C_7
REMARK    4  A    between atoms: C_8  and  O_34
REMARK    5  A    between atoms: C_12  and  O_33
REMARK    6  A    between atoms: C_14  and  O_18
REMARK    7  A    between atoms: O_18  and  C_19
REMARK    8  A    between atoms: C_21  and  O_32
REMARK    9  A    between atoms: C_22  and  O_31
REMARK   10  A    between atoms: C_24  and  O_30
REMARK   11  A    between atoms: C_26  and  C_28
REMARK   12  A    between atoms: C_28  and  O_29
REMARK   13  A    between atoms: O_34  and  C_35
REMARK   14  A    between atoms: C_37  and  O_48
REMARK   15  A    between atoms: C_38  and  O_47
REMARK   16  A    between atoms: C_40  and  O_46
REMARK   17  A    between atoms: C_42  and  C_44
REMARK   18  A    between atoms: C_44  and  O_45
REMARK   19  A    between atoms: O_48  and  C_49
REMARK   20  A    between atoms: C_51  and  O_62
REMARK   21  A    between atoms: C_52  and  O_61
REMARK   22  A    between atoms: C_54  and  O_60
REMARK   23  A    between atoms: C_56  and  C_58
REMARK   24  A    between atoms: C_58  and  O_59
REMARK                            x       y       z     vdW  Elec       q    Type
REMARK                         _______ _______ _______ _____ _____    ______ ____
ROOT
ATOM      1  C   UNL     1       4.733   1.370  27.536  0.00  0.00    +0.181 A 
ATOM      2  O   UNL     1       4.234   0.252  28.209  0.00  0.00    -0.451 OA
ATOM      3  C   UNL     1       4.374  -1.000  27.666  0.00  0.00    +0.147 A 
ATOM      4  C   UNL     1       5.019  -1.231  26.477  0.00  0.00    +0.109 A 
ATOM      5  C   UNL     1       5.254  -2.552  26.057  0.00  0.00    +0.135 A 
ATOM      6  C   UNL     1       4.834  -3.631  26.839  0.00  0.00    +0.092 A 
ATOM      7  C   UNL     1       4.136  -3.405  28.034  0.00  0.00    +0.131 A 
ATOM      8  C   UNL     1       5.348  -0.047  25.662  0.00  0.00    +0.238 A 
ATOM      9  O   UNL     1       5.672  -0.235  24.497  0.00  0.00    -0.283 OA
ATOM     10  C   UNL     1       3.870  -2.075  28.398  0.00  0.00    +0.093 A 
ATOM     11  C   UNL     1       5.235   1.304  26.281  0.00  0.00    +0.214 A 
ENDROOT
BRANCH   1  13
ATOM     12  C   UNL     1       5.926   3.074  28.925  0.00  0.00    +0.015 A 
ATOM     13  C   UNL     1       4.708   2.616  28.375  0.00  0.00    +0.025 A 
ATOM     14  C   UNL     1       3.581   3.437  28.562  0.00  0.00    +0.060 A 
ATOM     15  C   UNL     1       3.706   4.696  29.150  0.00  0.00    +0.159 A 
ATOM     16  C   UNL     1       4.928   5.147  29.625  0.00  0.00    +0.158 A 
ATOM     17  C   UNL     1       6.039   4.324  29.551  0.00  0.00    +0.050 A 
BRANCH  16  18
ATOM     18  O   UNL     1       4.991   6.410  30.139  0.00  0.00    -0.503 OA
ATOM     19  H   UNL     1       4.801   6.360  31.092  0.00  0.00    +0.292 HD
ENDBRANCH  16  18
BRANCH  15  20
ATOM     20  O   UNL     1       2.609   5.510  29.215  0.00  0.00    -0.503 OA
ATOM     21  H   UNL     1       1.919   5.036  28.709  0.00  0.00    +0.292 HD
ENDBRANCH  15  20
ENDBRANCH   1  13
BRANCH   5  22
ATOM     22  O   UNL     1       5.926  -2.862  24.905  0.00  0.00    -0.506 OA
ATOM     23  H   UNL     1       6.626  -2.184  24.758  0.00  0.00    +0.292 HD
ENDBRANCH   5  22
BRANCH  11  24
ATOM     24  O   UNL     1       5.298   2.423  25.461  0.00  0.00    -0.453 OA
BRANCH  24  25
ATOM     25  C   UNL     1       6.507   3.177  25.307  0.00  0.00    +0.340 C 
ATOM     26  O   UNL     1       6.196   4.608  25.288  0.00  0.00    -0.331 OA
ATOM     27  C   UNL     1       5.431   5.118  24.166  0.00  0.00    +0.179 C 
ATOM     28  C   UNL     1       5.723   4.502  22.775  0.00  0.00    +0.177 C 
ATOM     29  C   UNL     1       6.187   3.057  22.834  0.00  0.00    +0.180 C 
ATOM     30  C   UNL     1       7.223   2.932  23.978  0.00  0.00    +0.221 C 
BRANCH  29  31
ATOM     31  O   UNL     1       4.991   2.264  22.894  0.00  0.00    -0.386 OA
ATOM     32  H   UNL     1       4.657   2.279  23.806  0.00  0.00    +0.210 HD
ENDBRANCH  29  31
BRANCH  28  33
ATOM     33  O   UNL     1       4.551   4.605  21.955  0.00  0.00    -0.386 OA
ATOM     34  H   UNL     1       4.283   5.549  22.019  0.00  0.00    +0.210 HD
ENDBRANCH  28  33
BRANCH  27  35
ATOM     35  C   UNL     1       5.714   6.638  23.990  0.00  0.00    +0.190 C 
BRANCH  35  36
ATOM     36  O   UNL     1       7.066   7.017  24.213  0.00  0.00    -0.392 OA
ATOM     37  H   UNL     1       7.552   6.877  23.375  0.00  0.00    +0.210 HD
ENDBRANCH  35  36
ENDBRANCH  27  35
BRANCH  30  38
ATOM     38  O   UNL     1       8.004   1.767  23.756  0.00  0.00    -0.337 OA
BRANCH  38  39
ATOM     39  C   UNL     1       8.469   1.436  22.447  0.00  0.00    +0.282 C 
ATOM     40  O   UNL     1       8.096   0.155  21.957  0.00  0.00    -0.341 OA
ATOM     41  C   UNL     1       8.462  -0.933  22.818  0.00  0.00    +0.178 C 
ATOM     42  C   UNL     1       9.943  -0.976  23.248  0.00  0.00    +0.177 C 
ATOM     43  C   UNL     1      10.633   0.403  23.323  0.00  0.00    +0.179 C 
ATOM     44  C   UNL     1      10.013   1.509  22.445  0.00  0.00    +0.201 C 
BRANCH  44  45
ATOM     45  O   UNL     1      10.471   2.798  22.897  0.00  0.00    -0.384 OA
ATOM     46  H   UNL     1      10.073   2.970  23.770  0.00  0.00    +0.210 HD
ENDBRANCH  44  45
BRANCH  43  47
ATOM     47  O   UNL     1      10.697   0.820  24.698  0.00  0.00    -0.386 OA
ATOM     48  H   UNL     1       9.774   0.869  25.026  0.00  0.00    +0.210 HD
ENDBRANCH  43  47
BRANCH  42  49
ATOM     49  O   UNL     1      10.724  -1.853  22.434  0.00  0.00    -0.386 OA
ATOM     50  H   UNL     1      10.284  -1.876  21.560  0.00  0.00    +0.210 HD
ENDBRANCH  42  49
BRANCH  41  51
ATOM     51  C   UNL     1       7.877  -2.220  22.210  0.00  0.00    +0.190 C 
BRANCH  51  52
ATOM     52  O   UNL     1       8.168  -3.342  23.048  0.00  0.00    -0.392 OA
ATOM     53  H   UNL     1       7.728  -4.116  22.663  0.00  0.00    +0.210 HD
ENDBRANCH  51  52
ENDBRANCH  41  51
ENDBRANCH  38  39
ENDBRANCH  30  38
ENDBRANCH  24  25
ENDBRANCH  11  24
BRANCH   7  54
ATOM     54  O   UNL     1       3.825  -4.524  28.791  0.00  0.00    -0.461 OA
BRANCH  54  55
ATOM     55  C   UNL     1       3.872  -5.754  28.041  0.00  0.00    +0.339 C 
ATOM     56  O   UNL     1       2.835  -5.779  27.055  0.00  0.00    -0.331 OA
ATOM     57  C   UNL     1       1.525  -5.937  27.623  0.00  0.00    +0.179 C 
ATOM     58  C   UNL     1       1.431  -7.377  28.139  0.00  0.00    +0.177 C 
ATOM     59  C   UNL     1       2.447  -7.545  29.282  0.00  0.00    +0.180 C 
ATOM     60  C   UNL     1       3.851  -7.058  28.883  0.00  0.00    +0.214 C 
BRANCH  60  61
ATOM     61  O   UNL     1       4.720  -7.008  30.019  0.00  0.00    -0.383 OA
ATOM     62  H   UNL     1       4.253  -6.520  30.725  0.00  0.00    +0.210 HD
ENDBRANCH  60  61
BRANCH  59  63
ATOM     63  O   UNL     1       2.003  -6.894  30.481  0.00  0.00    -0.386 OA
ATOM     64  H   UNL     1       2.738  -6.859  31.118  0.00  0.00    +0.210 HD
ENDBRANCH  59  63
BRANCH  58  65
ATOM     65  O   UNL     1       1.728  -8.272  27.059  0.00  0.00    -0.386 OA
ATOM     66  H   UNL     1       0.898  -8.596  26.671  0.00  0.00    +0.210 HD
ENDBRANCH  58  65
BRANCH  57  67
ATOM     67  C   UNL     1       0.491  -5.615  26.538  0.00  0.00    +0.190 C 
BRANCH  67  68
ATOM     68  O   UNL     1       0.946  -6.040  25.246  0.00  0.00    -0.392 OA
ATOM     69  H   UNL     1       0.591  -5.428  24.579  0.00  0.00    +0.210 HD
ENDBRANCH  67  68
ENDBRANCH  57  67
ENDBRANCH  54  55
ENDBRANCH   7  54
TORSDOF 24
ENDMDL
