MODEL 1
REMARK VINA RESULT:      -7.4      0.000      0.000
REMARK  Name = 
REMARK  16 active torsions:
REMARK  status: ('A' for Active; 'I' for Inactive)
REMARK    1  A    between atoms: C_4  and  C_7
REMARK    2  A    between atoms: C_7  and  O_8
REMARK    3  A    between atoms: O_8  and  C_9
REMARK    4  A    between atoms: C_10  and  O_50
REMARK    5  A    between atoms: C_12  and  C_15
REMARK    6  A    between atoms: C_16  and  O_42
REMARK    7  A    between atoms: C_23  and  O_34
REMARK    8  A    between atoms: C_25  and  O_26
REMARK    9  A    between atoms: O_26  and  C_27
REMARK   10  A    between atoms: C_27  and  C_28
REMARK   11  A    between atoms: O_34  and  C_35
REMARK   12  A    between atoms: C_35  and  C_36
REMARK   13  A    between atoms: O_42  and  C_43
REMARK   14  A    between atoms: C_43  and  C_44
REMARK   15  A    between atoms: O_50  and  C_51
REMARK   16  A    between atoms: C_51  and  C_52
REMARK                            x       y       z     vdW  Elec       q    Type
REMARK                         _______ _______ _______ _____ _____    ______ ____
ROOT
ATOM      1  C   UNL     1       6.728  -0.216  25.855  0.00  0.00    +0.181 A 
ATOM      2  O   UNL     1       5.375  -0.471  26.061  0.00  0.00    -0.451 OA
ATOM      3  C   UNL     1       4.956  -1.743  26.367  0.00  0.00    +0.147 A 
ATOM      4  C   UNL     1       3.568  -1.934  26.379  0.00  0.00    +0.092 A 
ATOM      5  C   UNL     1       3.047  -3.178  26.710  0.00  0.00    +0.128 A 
ATOM      6  C   UNL     1       3.908  -4.219  27.044  0.00  0.00    +0.092 A 
ATOM      7  C   UNL     1       5.300  -4.081  26.934  0.00  0.00    +0.139 A 
ATOM      8  C   UNL     1       5.825  -2.801  26.637  0.00  0.00    +0.109 A 
ATOM      9  C   UNL     1       7.265  -2.494  26.589  0.00  0.00    +0.238 A 
ATOM     10  O   UNL     1       8.103  -3.311  26.960  0.00  0.00    -0.283 OA
ATOM     11  C   UNL     1       7.696  -1.137  26.082  0.00  0.00    +0.211 A 
ENDROOT
BRANCH   1  15
ATOM     12  C   UNL     1       7.566   3.630  24.073  0.00  0.00    +0.162 A 
ATOM     13  C   UNL     1       7.950   3.318  25.378  0.00  0.00    +0.050 A 
ATOM     14  C   UNL     1       7.602   2.089  25.953  0.00  0.00    +0.015 A 
ATOM     15  C   UNL     1       6.895   1.122  25.226  0.00  0.00    +0.025 A 
ATOM     16  C   UNL     1       6.453   1.461  23.934  0.00  0.00    +0.061 A 
ATOM     17  C   UNL     1       6.711   2.741  23.395  0.00  0.00    +0.163 A 
BRANCH  17  18
ATOM     18  O   UNL     1       6.081   3.035  22.203  0.00  0.00    -0.484 OA
BRANCH  18  19
ATOM     19  C   UNL     1       4.684   3.352  22.358  0.00  0.00    +0.264 C 
BRANCH  19  20
ATOM     20  C   UNL     1       4.470   4.517  23.295  0.00  0.00    -0.010 A 
ATOM     21  C   UNL     1       3.972   4.313  24.587  0.00  0.00    +0.007 A 
ATOM     22  C   UNL     1       3.737   5.398  25.433  0.00  0.00    +0.000 A 
ATOM     23  C   UNL     1       3.991   6.696  24.995  0.00  0.00    +0.000 A 
ATOM     24  C   UNL     1       4.469   6.914  23.705  0.00  0.00    +0.000 A 
ATOM     25  C   UNL     1       4.700   5.830  22.857  0.00  0.00    +0.007 A 
ENDBRANCH  19  20
ENDBRANCH  18  19
ENDBRANCH  17  18
BRANCH  12  26
ATOM     26  O   UNL     1       7.966   4.777  23.427  0.00  0.00    -0.484 OA
BRANCH  26  27
ATOM     27  C   UNL     1       8.187   5.917  24.261  0.00  0.00    +0.264 C 
BRANCH  27  31
ATOM     28  C   UNL     1      12.370   6.656  25.083  0.00  0.00    +0.000 A 
ATOM     29  C   UNL     1      12.011   5.981  23.917  0.00  0.00    +0.000 A 
ATOM     30  C   UNL     1      10.663   5.752  23.623  0.00  0.00    +0.007 A 
ATOM     31  C   UNL     1       9.657   6.205  24.488  0.00  0.00    -0.010 A 
ATOM     32  C   UNL     1      10.037   6.879  25.660  0.00  0.00    +0.007 A 
ATOM     33  C   UNL     1      11.382   7.105  25.955  0.00  0.00    +0.000 A 
ENDBRANCH  27  31
ENDBRANCH  26  27
ENDBRANCH  12  26
ENDBRANCH   1  15
BRANCH   7  34
ATOM     34  O   UNL     1       6.140  -5.177  27.057  0.00  0.00    -0.486 OA
BRANCH  34  35
ATOM     35  C   UNL     1       5.931  -6.205  26.070  0.00  0.00    +0.264 C 
BRANCH  35  36
ATOM     36  C   UNL     1       5.935  -5.787  24.617  0.00  0.00    -0.010 A 
ATOM     37  C   UNL     1       7.142  -5.271  24.097  0.00  0.00    +0.007 A 
ATOM     38  C   UNL     1       7.254  -4.911  22.757  0.00  0.00    +0.000 A 
ATOM     39  C   UNL     1       6.155  -5.045  21.918  0.00  0.00    +0.000 A 
ATOM     40  C   UNL     1       4.944  -5.516  22.435  0.00  0.00    +0.000 A 
ATOM     41  C   UNL     1       4.828  -5.884  23.775  0.00  0.00    +0.007 A 
ENDBRANCH  35  36
ENDBRANCH  34  35
ENDBRANCH   7  34
BRANCH  11  42
ATOM     42  O   UNL     1       9.056  -1.054  25.933  0.00  0.00    -0.480 OA
BRANCH  42  43
ATOM     43  C   UNL     1       9.784  -1.339  24.751  0.00  0.00    +0.265 C 
BRANCH  43  44
ATOM     44  C   UNL     1       9.907  -0.205  23.760  0.00  0.00    -0.010 A 
ATOM     45  C   UNL     1       9.335  -0.377  22.489  0.00  0.00    +0.007 A 
ATOM     46  C   UNL     1       9.374   0.648  21.544  0.00  0.00    +0.000 A 
ATOM     47  C   UNL     1       9.974   1.863  21.858  0.00  0.00    +0.000 A 
ATOM     48  C   UNL     1      10.569   2.041  23.104  0.00  0.00    +0.000 A 
ATOM     49  C   UNL     1      10.551   1.008  24.042  0.00  0.00    +0.007 A 
ENDBRANCH  43  44
ENDBRANCH  42  43
ENDBRANCH  11  42
BRANCH   5  50
ATOM     50  O   UNL     1       1.720  -3.511  26.734  0.00  0.00    -0.487 OA
BRANCH  50  51
ATOM     51  C   UNL     1       1.053  -3.460  25.471  0.00  0.00    +0.264 C 
BRANCH  51  52
ATOM     52  C   UNL     1       1.111  -4.800  24.771  0.00  0.00    -0.010 A 
ATOM     53  C   UNL     1       1.136  -5.973  25.543  0.00  0.00    +0.007 A 
ATOM     54  C   UNL     1       1.207  -7.227  24.938  0.00  0.00    +0.000 A 
ATOM     55  C   UNL     1       1.267  -7.327  23.550  0.00  0.00    +0.000 A 
ATOM     56  C   UNL     1       1.264  -6.172  22.770  0.00  0.00    +0.000 A 
ATOM     57  C   UNL     1       1.192  -4.914  23.375  0.00  0.00    +0.007 A 
ENDBRANCH  51  52
ENDBRANCH  50  51
ENDBRANCH   5  50
TORSDOF 16
ENDMDL
MODEL 2
REMARK VINA RESULT:      -7.3      1.842      9.942
REMARK  Name = 
REMARK  16 active torsions:
REMARK  status: ('A' for Active; 'I' for Inactive)
REMARK    1  A    between atoms: C_4  and  C_7
REMARK    2  A    between atoms: C_7  and  O_8
REMARK    3  A    between atoms: O_8  and  C_9
REMARK    4  A    between atoms: C_10  and  O_50
REMARK    5  A    between atoms: C_12  and  C_15
REMARK    6  A    between atoms: C_16  and  O_42
REMARK    7  A    between atoms: C_23  and  O_34
REMARK    8  A    between atoms: C_25  and  O_26
REMARK    9  A    between atoms: O_26  and  C_27
REMARK   10  A    between atoms: C_27  and  C_28
REMARK   11  A    between atoms: O_34  and  C_35
REMARK   12  A    between atoms: C_35  and  C_36
REMARK   13  A    between atoms: O_42  and  C_43
REMARK   14  A    between atoms: C_43  and  C_44
REMARK   15  A    between atoms: O_50  and  C_51
REMARK   16  A    between atoms: C_51  and  C_52
REMARK                            x       y       z     vdW  Elec       q    Type
REMARK                         _______ _______ _______ _____ _____    ______ ____
ROOT
ATOM      1  C   UNL     1       6.315   0.825  25.518  0.00  0.00    +0.181 A 
ATOM      2  O   UNL     1       7.068   1.968  25.259  0.00  0.00    -0.451 OA
ATOM      3  C   UNL     1       6.437   3.164  25.019  0.00  0.00    +0.147 A 
ATOM      4  C   UNL     1       7.268   4.209  24.596  0.00  0.00    +0.092 A 
ATOM      5  C   UNL     1       6.729   5.467  24.358  0.00  0.00    +0.128 A 
ATOM      6  C   UNL     1       5.369   5.681  24.561  0.00  0.00    +0.092 A 
ATOM      7  C   UNL     1       4.500   4.625  24.880  0.00  0.00    +0.139 A 
ATOM      8  C   UNL     1       5.062   3.358  25.160  0.00  0.00    +0.109 A 
ATOM      9  C   UNL     1       4.279   2.191  25.601  0.00  0.00    +0.238 A 
ATOM     10  O   UNL     1       3.094   2.297  25.902  0.00  0.00    -0.283 OA
ATOM     11  C   UNL     1       4.971   0.850  25.690  0.00  0.00    +0.211 A 
ENDROOT
BRANCH   1  15
ATOM     12  C   UNL     1       8.573  -2.856  25.388  0.00  0.00    +0.162 A 
ATOM     13  C   UNL     1       8.130  -2.300  26.590  0.00  0.00    +0.050 A 
ATOM     14  C   UNL     1       7.461  -1.069  26.605  0.00  0.00    +0.015 A 
ATOM     15  C   UNL     1       7.183  -0.378  25.418  0.00  0.00    +0.025 A 
ATOM     16  C   UNL     1       7.685  -0.907  24.215  0.00  0.00    +0.061 A 
ATOM     17  C   UNL     1       8.453  -2.094  24.212  0.00  0.00    +0.163 A 
BRANCH  17  18
ATOM     18  O   UNL     1       9.051  -2.426  23.013  0.00  0.00    -0.484 OA
BRANCH  18  19
ATOM     19  C   UNL     1      10.346  -1.822  22.833  0.00  0.00    +0.264 C 
BRANCH  19  20
ATOM     20  C   UNL     1      10.276  -0.314  22.883  0.00  0.00    -0.010 A 
ATOM     21  C   UNL     1       9.780   0.414  21.796  0.00  0.00    +0.007 A 
ATOM     22  C   UNL     1       9.758   1.810  21.831  0.00  0.00    +0.000 A 
ATOM     23  C   UNL     1      10.236   2.490  22.949  0.00  0.00    +0.000 A 
ATOM     24  C   UNL     1      10.751   1.778  24.029  0.00  0.00    +0.000 A 
ATOM     25  C   UNL     1      10.778   0.383  23.993  0.00  0.00    +0.007 A 
ENDBRANCH  19  20
ENDBRANCH  18  19
ENDBRANCH  17  18
BRANCH  12  26
ATOM     26  O   UNL     1       9.144  -4.106  25.306  0.00  0.00    -0.484 OA
BRANCH  26  27
ATOM     27  C   UNL     1       8.248  -5.211  25.452  0.00  0.00    +0.264 C 
BRANCH  27  31
ATOM     28  C   UNL     1       5.507  -5.486  22.115  0.00  0.00    +0.000 A 
ATOM     29  C   UNL     1       6.862  -5.744  21.911  0.00  0.00    +0.000 A 
ATOM     30  C   UNL     1       7.761  -5.681  22.980  0.00  0.00    +0.007 A 
ATOM     31  C   UNL     1       7.312  -5.370  24.271  0.00  0.00    -0.010 A 
ATOM     32  C   UNL     1       5.944  -5.108  24.459  0.00  0.00    +0.007 A 
ATOM     33  C   UNL     1       5.049  -5.168  23.391  0.00  0.00    +0.000 A 
ENDBRANCH  27  31
ENDBRANCH  26  27
ENDBRANCH  12  26
ENDBRANCH   1  15
BRANCH   7  34
ATOM     34  O   UNL     1       3.126   4.801  24.867  0.00  0.00    -0.486 OA
BRANCH  34  35
ATOM     35  C   UNL     1       2.593   5.267  23.613  0.00  0.00    +0.264 C 
BRANCH  35  36
ATOM     36  C   UNL     1       2.064   4.227  22.650  0.00  0.00    -0.010 A 
ATOM     37  C   UNL     1       1.131   3.297  23.155  0.00  0.00    +0.007 A 
ATOM     38  C   UNL     1       0.552   2.337  22.329  0.00  0.00    +0.000 A 
ATOM     39  C   UNL     1       0.908   2.282  20.988  0.00  0.00    +0.000 A 
ATOM     40  C   UNL     1       1.863   3.175  20.490  0.00  0.00    +0.000 A 
ATOM     41  C   UNL     1       2.443   4.141  21.311  0.00  0.00    +0.007 A 
ENDBRANCH  35  36
ENDBRANCH  34  35
ENDBRANCH   7  34
BRANCH  11  42
ATOM     42  O   UNL     1       4.088  -0.166  25.947  0.00  0.00    -0.480 OA
BRANCH  42  43
ATOM     43  C   UNL     1       3.972  -0.882  27.164  0.00  0.00    +0.265 C 
BRANCH  43  44
ATOM     44  C   UNL     1       3.765  -2.374  27.039  0.00  0.00    -0.010 A 
ATOM     45  C   UNL     1       4.524  -3.215  27.869  0.00  0.00    +0.007 A 
ATOM     46  C   UNL     1       4.348  -4.597  27.836  0.00  0.00    +0.000 A 
ATOM     47  C   UNL     1       3.404  -5.160  26.983  0.00  0.00    +0.000 A 
ATOM     48  C   UNL     1       2.660  -4.343  26.136  0.00  0.00    +0.000 A 
ATOM     49  C   UNL     1       2.852  -2.960  26.151  0.00  0.00    +0.007 A 
ENDBRANCH  43  44
ENDBRANCH  42  43
ENDBRANCH  11  42
BRANCH   5  50
ATOM     50  O   UNL     1       7.416   6.565  23.918  0.00  0.00    -0.487 OA
BRANCH  50  51
ATOM     51  C   UNL     1       8.544   6.287  23.085  0.00  0.00    +0.264 C 
BRANCH  51  52
ATOM     52  C   UNL     1       9.834   6.381  23.868  0.00  0.00    -0.010 A 
ATOM     53  C   UNL     1       9.820   6.986  25.136  0.00  0.00    +0.007 A 
ATOM     54  C   UNL     1      10.991   7.108  25.884  0.00  0.00    +0.000 A 
ATOM     55  C   UNL     1      12.197   6.638  25.369  0.00  0.00    +0.000 A 
ATOM     56  C   UNL     1      12.231   6.053  24.105  0.00  0.00    +0.000 A 
ATOM     57  C   UNL     1      11.058   5.930  23.354  0.00  0.00    +0.007 A 
ENDBRANCH  51  52
ENDBRANCH  50  51
ENDBRANCH   5  50
TORSDOF 16
ENDMDL
MODEL 3
REMARK VINA RESULT:      -7.1      2.231     10.271
REMARK  Name = 
REMARK  16 active torsions:
REMARK  status: ('A' for Active; 'I' for Inactive)
REMARK    1  A    between atoms: C_4  and  C_7
REMARK    2  A    between atoms: C_7  and  O_8
REMARK    3  A    between atoms: O_8  and  C_9
REMARK    4  A    between atoms: C_10  and  O_50
REMARK    5  A    between atoms: C_12  and  C_15
REMARK    6  A    between atoms: C_16  and  O_42
REMARK    7  A    between atoms: C_23  and  O_34
REMARK    8  A    between atoms: C_25  and  O_26
REMARK    9  A    between atoms: O_26  and  C_27
REMARK   10  A    between atoms: C_27  and  C_28
REMARK   11  A    between atoms: O_34  and  C_35
REMARK   12  A    between atoms: C_35  and  C_36
REMARK   13  A    between atoms: O_42  and  C_43
REMARK   14  A    between atoms: C_43  and  C_44
REMARK   15  A    between atoms: O_50  and  C_51
REMARK   16  A    between atoms: C_51  and  C_52
REMARK                            x       y       z     vdW  Elec       q    Type
REMARK                         _______ _______ _______ _____ _____    ______ ____
ROOT
ATOM      1  C   UNL     1       6.917  -1.277  22.689  0.00  0.00    +0.181 A 
ATOM      2  O   UNL     1       6.160  -0.110  22.640  0.00  0.00    -0.451 OA
ATOM      3  C   UNL     1       6.787   1.109  22.534  0.00  0.00    +0.147 A 
ATOM      4  C   UNL     1       5.955   2.227  22.672  0.00  0.00    +0.092 A 
ATOM      5  C   UNL     1       6.490   3.503  22.549  0.00  0.00    +0.128 A 
ATOM      6  C   UNL     1       7.845   3.658  22.272  0.00  0.00    +0.092 A 
ATOM      7  C   UNL     1       8.715   2.557  22.237  0.00  0.00    +0.139 A 
ATOM      8  C   UNL     1       8.158   1.260  22.322  0.00  0.00    +0.109 A 
ATOM      9  C   UNL     1       8.942   0.019  22.201  0.00  0.00    +0.238 A 
ATOM     10  O   UNL     1      10.121   0.042  21.862  0.00  0.00    -0.283 OA
ATOM     11  C   UNL     1       8.258  -1.297  22.493  0.00  0.00    +0.211 A 
ENDROOT
BRANCH   1  15
ATOM     12  C   UNL     1       4.723  -4.771  23.973  0.00  0.00    +0.162 A 
ATOM     13  C   UNL     1       5.471  -4.757  22.795  0.00  0.00    +0.050 A 
ATOM     14  C   UNL     1       6.114  -3.587  22.368  0.00  0.00    +0.015 A 
ATOM     15  C   UNL     1       6.060  -2.411  23.127  0.00  0.00    +0.025 A 
ATOM     16  C   UNL     1       5.254  -2.407  24.281  0.00  0.00    +0.061 A 
ATOM     17  C   UNL     1       4.519  -3.556  24.652  0.00  0.00    +0.163 A 
BRANCH  17  18
ATOM     18  O   UNL     1       3.622  -3.392  25.688  0.00  0.00    -0.484 OA
BRANCH  18  19
ATOM     19  C   UNL     1       4.219  -2.846  26.881  0.00  0.00    +0.264 C 
BRANCH  19  20
ATOM     20  C   UNL     1       3.384  -3.127  28.108  0.00  0.00    -0.010 A 
ATOM     21  C   UNL     1       3.987  -3.285  29.361  0.00  0.00    +0.007 A 
ATOM     22  C   UNL     1       3.215  -3.587  30.484  0.00  0.00    +0.000 A 
ATOM     23  C   UNL     1       1.835  -3.740  30.365  0.00  0.00    +0.000 A 
ATOM     24  C   UNL     1       1.225  -3.605  29.120  0.00  0.00    +0.000 A 
ATOM     25  C   UNL     1       1.997  -3.308  27.996  0.00  0.00    +0.007 A 
ENDBRANCH  19  20
ENDBRANCH  18  19
ENDBRANCH  17  18
BRANCH  12  26
ATOM     26  O   UNL     1       4.156  -5.914  24.489  0.00  0.00    -0.484 OA
BRANCH  26  27
ATOM     27  C   UNL     1       4.930  -6.603  25.474  0.00  0.00    +0.264 C 
BRANCH  27  31
ATOM     28  C   UNL     1       2.819  -7.071  29.221  0.00  0.00    +0.000 A 
ATOM     29  C   UNL     1       4.208  -6.956  29.228  0.00  0.00    +0.000 A 
ATOM     30  C   UNL     1       4.907  -6.782  28.030  0.00  0.00    +0.007 A 
ATOM     31  C   UNL     1       4.222  -6.711  26.809  0.00  0.00    -0.010 A 
ATOM     32  C   UNL     1       2.822  -6.833  26.819  0.00  0.00    +0.007 A 
ATOM     33  C   UNL     1       2.126  -7.009  28.015  0.00  0.00    +0.000 A 
ENDBRANCH  27  31
ENDBRANCH  26  27
ENDBRANCH  12  26
ENDBRANCH   1  15
BRANCH   7  34
ATOM     34  O   UNL     1      10.088   2.733  22.178  0.00  0.00    -0.486 OA
BRANCH  34  35
ATOM     35  C   UNL     1      10.723   2.927  23.456  0.00  0.00    +0.264 C 
BRANCH  35  36
ATOM     36  C   UNL     1      11.026   4.348  23.875  0.00  0.00    -0.010 A 
ATOM     37  C   UNL     1       9.986   5.073  24.496  0.00  0.00    +0.007 A 
ATOM     38  C   UNL     1      10.189   6.369  24.962  0.00  0.00    +0.000 A 
ATOM     39  C   UNL     1      11.432   6.968  24.800  0.00  0.00    +0.000 A 
ATOM     40  C   UNL     1      12.455   6.271  24.148  0.00  0.00    +0.000 A 
ATOM     41  C   UNL     1      12.258   4.971  23.685  0.00  0.00    +0.007 A 
ENDBRANCH  35  36
ENDBRANCH  34  35
ENDBRANCH   7  34
BRANCH  11  42
ATOM     42  O   UNL     1       9.144  -2.343  22.507  0.00  0.00    -0.480 OA
BRANCH  42  43
ATOM     43  C   UNL     1       9.913  -2.769  23.618  0.00  0.00    +0.265 C 
BRANCH  43  44
ATOM     44  C   UNL     1       9.146  -3.439  24.736  0.00  0.00    -0.010 A 
ATOM     45  C   UNL     1       8.630  -2.628  25.759  0.00  0.00    +0.007 A 
ATOM     46  C   UNL     1       7.875  -3.178  26.793  0.00  0.00    +0.000 A 
ATOM     47  C   UNL     1       7.614  -4.544  26.816  0.00  0.00    +0.000 A 
ATOM     48  C   UNL     1       8.139  -5.367  25.824  0.00  0.00    +0.000 A 
ATOM     49  C   UNL     1       8.915  -4.821  24.800  0.00  0.00    +0.007 A 
ENDBRANCH  43  44
ENDBRANCH  42  43
ENDBRANCH  11  42
BRANCH   5  50
ATOM     50  O   UNL     1       5.802   4.678  22.686  0.00  0.00    -0.487 OA
BRANCH  50  51
ATOM     51  C   UNL     1       4.995   4.781  23.861  0.00  0.00    +0.264 C 
BRANCH  51  52
ATOM     52  C   UNL     1       5.815   5.244  25.045  0.00  0.00    -0.010 A 
ATOM     53  C   UNL     1       6.043   6.619  25.221  0.00  0.00    +0.007 A 
ATOM     54  C   UNL     1       6.808   7.086  26.290  0.00  0.00    +0.000 A 
ATOM     55  C   UNL     1       7.367   6.184  27.192  0.00  0.00    +0.000 A 
ATOM     56  C   UNL     1       7.166   4.816  27.020  0.00  0.00    +0.000 A 
ATOM     57  C   UNL     1       6.400   4.346  25.950  0.00  0.00    +0.007 A 
ENDBRANCH  51  52
ENDBRANCH  50  51
ENDBRANCH   5  50
TORSDOF 16
ENDMDL
MODEL 4
REMARK VINA RESULT:      -7.0      1.971      9.300
REMARK  Name = 
REMARK  16 active torsions:
REMARK  status: ('A' for Active; 'I' for Inactive)
REMARK    1  A    between atoms: C_4  and  C_7
REMARK    2  A    between atoms: C_7  and  O_8
REMARK    3  A    between atoms: O_8  and  C_9
REMARK    4  A    between atoms: C_10  and  O_50
REMARK    5  A    between atoms: C_12  and  C_15
REMARK    6  A    between atoms: C_16  and  O_42
REMARK    7  A    between atoms: C_23  and  O_34
REMARK    8  A    between atoms: C_25  and  O_26
REMARK    9  A    between atoms: O_26  and  C_27
REMARK   10  A    between atoms: C_27  and  C_28
REMARK   11  A    between atoms: O_34  and  C_35
REMARK   12  A    between atoms: C_35  and  C_36
REMARK   13  A    between atoms: O_42  and  C_43
REMARK   14  A    between atoms: C_43  and  C_44
REMARK   15  A    between atoms: O_50  and  C_51
REMARK   16  A    between atoms: C_51  and  C_52
REMARK                            x       y       z     vdW  Elec       q    Type
REMARK                         _______ _______ _______ _____ _____    ______ ____
ROOT
ATOM      1  C   UNL     1       5.262  -0.013  26.294  0.00  0.00    +0.181 A 
ATOM      2  O   UNL     1       4.272   0.761  25.693  0.00  0.00    -0.451 OA
ATOM      3  C   UNL     1       4.546   2.055  25.321  0.00  0.00    +0.147 A 
ATOM      4  C   UNL     1       3.443   2.805  24.892  0.00  0.00    +0.092 A 
ATOM      5  C   UNL     1       3.624   4.114  24.465  0.00  0.00    +0.128 A 
ATOM      6  C   UNL     1       4.902   4.663  24.449  0.00  0.00    +0.092 A 
ATOM      7  C   UNL     1       6.003   3.969  24.975  0.00  0.00    +0.139 A 
ATOM      8  C   UNL     1       5.820   2.623  25.370  0.00  0.00    +0.109 A 
ATOM      9  C   UNL     1       6.908   1.751  25.845  0.00  0.00    +0.238 A 
ATOM     10  O   UNL     1       8.081   2.103  25.780  0.00  0.00    -0.283 OA
ATOM     11  C   UNL     1       6.550   0.394  26.409  0.00  0.00    +0.211 A 
ENDROOT
BRANCH   1  15
ATOM     12  C   UNL     1       3.264  -3.555  27.754  0.00  0.00    +0.162 A 
ATOM     13  C   UNL     1       2.580  -2.361  27.520  0.00  0.00    +0.050 A 
ATOM     14  C   UNL     1       3.267  -1.209  27.114  0.00  0.00    +0.015 A 
ATOM     15  C   UNL     1       4.650  -1.229  26.893  0.00  0.00    +0.025 A 
ATOM     16  C   UNL     1       5.349  -2.414  27.189  0.00  0.00    +0.061 A 
ATOM     17  C   UNL     1       4.670  -3.543  27.702  0.00  0.00    +0.163 A 
BRANCH  17  18
ATOM     18  O   UNL     1       5.467  -4.586  28.131  0.00  0.00    -0.484 OA
BRANCH  18  19
ATOM     19  C   UNL     1       5.466  -5.712  27.233  0.00  0.00    +0.264 C 
BRANCH  19  20
ATOM     20  C   UNL     1       6.450  -5.530  26.100  0.00  0.00    -0.010 A 
ATOM     21  C   UNL     1       7.817  -5.381  26.358  0.00  0.00    +0.007 A 
ATOM     22  C   UNL     1       8.715  -5.170  25.311  0.00  0.00    +0.000 A 
ATOM     23  C   UNL     1       8.255  -5.100  23.997  0.00  0.00    +0.000 A 
ATOM     24  C   UNL     1       6.894  -5.227  23.729  0.00  0.00    +0.000 A 
ATOM     25  C   UNL     1       5.995  -5.434  24.776  0.00  0.00    +0.007 A 
ENDBRANCH  19  20
ENDBRANCH  18  19
ENDBRANCH  17  18
BRANCH  12  26
ATOM     26  O   UNL     1       2.628  -4.737  28.055  0.00  0.00    -0.484 OA
BRANCH  26  27
ATOM     27  C   UNL     1       1.566  -5.115  27.176  0.00  0.00    +0.264 C 
BRANCH  27  31
ATOM     28  C   UNL     1       2.848  -6.561  23.305  0.00  0.00    +0.000 A 
ATOM     29  C   UNL     1       2.439  -5.235  23.439  0.00  0.00    +0.000 A 
ATOM     30  C   UNL     1       2.042  -4.742  24.686  0.00  0.00    +0.007 A 
ATOM     31  C   UNL     1       2.059  -5.570  25.817  0.00  0.00    -0.010 A 
ATOM     32  C   UNL     1       2.469  -6.905  25.664  0.00  0.00    +0.007 A 
ATOM     33  C   UNL     1       2.863  -7.396  24.419  0.00  0.00    +0.000 A 
ENDBRANCH  27  31
ENDBRANCH  26  27
ENDBRANCH  12  26
ENDBRANCH   1  15
BRANCH   7  34
ATOM     34  O   UNL     1       7.225   4.597  25.156  0.00  0.00    -0.486 OA
BRANCH  34  35
ATOM     35  C   UNL     1       7.924   4.911  23.937  0.00  0.00    +0.264 C 
BRANCH  35  36
ATOM     36  C   UNL     1       8.568   3.765  23.188  0.00  0.00    -0.010 A 
ATOM     37  C   UNL     1       9.922   3.489  23.472  0.00  0.00    +0.007 A 
ATOM     38  C   UNL     1      10.581   2.422  22.869  0.00  0.00    +0.000 A 
ATOM     39  C   UNL     1       9.901   1.622  21.960  0.00  0.00    +0.000 A 
ATOM     40  C   UNL     1       8.571   1.914  21.642  0.00  0.00    +0.000 A 
ATOM     41  C   UNL     1       7.904   2.979  22.247  0.00  0.00    +0.007 A 
ENDBRANCH  35  36
ENDBRANCH  34  35
ENDBRANCH   7  34
BRANCH  11  42
ATOM     42  O   UNL     1       7.635  -0.233  26.964  0.00  0.00    -0.480 OA
BRANCH  42  43
ATOM     43  C   UNL     1       8.237  -1.426  26.495  0.00  0.00    +0.265 C 
BRANCH  43  44
ATOM     44  C   UNL     1       8.437  -1.525  25.000  0.00  0.00    -0.010 A 
ATOM     45  C   UNL     1       9.752  -1.605  24.515  0.00  0.00    +0.007 A 
ATOM     46  C   UNL     1      10.003  -1.744  23.151  0.00  0.00    +0.000 A 
ATOM     47  C   UNL     1       8.945  -1.816  22.251  0.00  0.00    +0.000 A 
ATOM     48  C   UNL     1       7.635  -1.713  22.712  0.00  0.00    +0.000 A 
ATOM     49  C   UNL     1       7.383  -1.550  24.075  0.00  0.00    +0.007 A 
ENDBRANCH  43  44
ENDBRANCH  42  43
ENDBRANCH  11  42
BRANCH   5  50
ATOM     50  O   UNL     1       2.637   4.965  24.047  0.00  0.00    -0.487 OA
BRANCH  50  51
ATOM     51  C   UNL     1       1.421   4.337  23.635  0.00  0.00    +0.264 C 
BRANCH  51  52
ATOM     52  C   UNL     1       1.484   3.934  22.178  0.00  0.00    -0.010 A 
ATOM     53  C   UNL     1       1.814   4.904  21.217  0.00  0.00    +0.007 A 
ATOM     54  C   UNL     1       1.866   4.578  19.861  0.00  0.00    +0.000 A 
ATOM     55  C   UNL     1       1.578   3.280  19.446  0.00  0.00    +0.000 A 
ATOM     56  C   UNL     1       1.230   2.312  20.386  0.00  0.00    +0.000 A 
ATOM     57  C   UNL     1       1.177   2.637  21.744  0.00  0.00    +0.007 A 
ENDBRANCH  51  52
ENDBRANCH  50  51
ENDBRANCH   5  50
TORSDOF 16
ENDMDL
MODEL 5
REMARK VINA RESULT:      -7.0      2.163      9.614
REMARK  Name = 
REMARK  16 active torsions:
REMARK  status: ('A' for Active; 'I' for Inactive)
REMARK    1  A    between atoms: C_4  and  C_7
REMARK    2  A    between atoms: C_7  and  O_8
REMARK    3  A    between atoms: O_8  and  C_9
REMARK    4  A    between atoms: C_10  and  O_50
REMARK    5  A    between atoms: C_12  and  C_15
REMARK    6  A    between atoms: C_16  and  O_42
REMARK    7  A    between atoms: C_23  and  O_34
REMARK    8  A    between atoms: C_25  and  O_26
REMARK    9  A    between atoms: O_26  and  C_27
REMARK   10  A    between atoms: C_27  and  C_28
REMARK   11  A    between atoms: O_34  and  C_35
REMARK   12  A    between atoms: C_35  and  C_36
REMARK   13  A    between atoms: O_42  and  C_43
REMARK   14  A    between atoms: C_43  and  C_44
REMARK   15  A    between atoms: O_50  and  C_51
REMARK   16  A    between atoms: C_51  and  C_52
REMARK                            x       y       z     vdW  Elec       q    Type
REMARK                         _______ _______ _______ _____ _____    ______ ____
ROOT
ATOM      1  C   UNL     1       6.315   0.098  26.277  0.00  0.00    +0.181 A 
ATOM      2  O   UNL     1       7.022   1.234  26.664  0.00  0.00    -0.451 OA
ATOM      3  C   UNL     1       6.348   2.397  26.945  0.00  0.00    +0.147 A 
ATOM      4  C   UNL     1       7.153   3.525  27.151  0.00  0.00    +0.092 A 
ATOM      5  C   UNL     1       6.565   4.742  27.473  0.00  0.00    +0.128 A 
ATOM      6  C   UNL     1       5.183   4.825  27.607  0.00  0.00    +0.092 A 
ATOM      7  C   UNL     1       4.351   3.736  27.301  0.00  0.00    +0.139 A 
ATOM      8  C   UNL     1       4.957   2.491  27.014  0.00  0.00    +0.109 A 
ATOM      9  C   UNL     1       4.205   1.247  26.773  0.00  0.00    +0.238 A 
ATOM     10  O   UNL     1       2.994   1.189  26.961  0.00  0.00    -0.283 OA
ATOM     11  C   UNL     1       4.961   0.028  26.297  0.00  0.00    +0.211 A 
ENDROOT
BRANCH   1  15
ATOM     12  C   UNL     1       8.857  -3.081  24.829  0.00  0.00    +0.162 A 
ATOM     13  C   UNL     1       8.684  -2.833  26.191  0.00  0.00    +0.050 A 
ATOM     14  C   UNL     1       7.909  -1.750  26.629  0.00  0.00    +0.015 A 
ATOM     15  C   UNL     1       7.255  -0.910  25.719  0.00  0.00    +0.025 A 
ATOM     16  C   UNL     1       7.481  -1.122  24.346  0.00  0.00    +0.061 A 
ATOM     17  C   UNL     1       8.349  -2.147  23.907  0.00  0.00    +0.163 A 
BRANCH  17  18
ATOM     18  O   UNL     1       8.646  -2.154  22.559  0.00  0.00    -0.484 OA
BRANCH  18  19
ATOM     19  C   UNL     1       9.936  -1.590  22.255  0.00  0.00    +0.264 C 
BRANCH  19  20
ATOM     20  C   UNL     1      10.011  -0.125  22.619  0.00  0.00    -0.010 A 
ATOM     21  C   UNL     1       9.442   0.847  21.789  0.00  0.00    +0.007 A 
ATOM     22  C   UNL     1       9.552   2.201  22.109  0.00  0.00    +0.000 A 
ATOM     23  C   UNL     1      10.236   2.597  23.257  0.00  0.00    +0.000 A 
ATOM     24  C   UNL     1      10.824   1.640  24.081  0.00  0.00    +0.000 A 
ATOM     25  C   UNL     1      10.718   0.286  23.760  0.00  0.00    +0.007 A 
ENDBRANCH  19  20
ENDBRANCH  18  19
ENDBRANCH  17  18
BRANCH  12  26
ATOM     26  O   UNL     1       9.522  -4.185  24.346  0.00  0.00    -0.484 OA
BRANCH  26  27
ATOM     27  C   UNL     1       8.853  -5.437  24.512  0.00  0.00    +0.264 C 
BRANCH  27  31
ATOM     28  C   UNL     1       5.145  -5.528  22.285  0.00  0.00    +0.000 A 
ATOM     29  C   UNL     1       6.345  -5.791  21.626  0.00  0.00    +0.000 A 
ATOM     30  C   UNL     1       7.552  -5.788  22.332  0.00  0.00    +0.007 A 
ATOM     31  C   UNL     1       7.571  -5.532  23.710  0.00  0.00    -0.010 A 
ATOM     32  C   UNL     1       6.353  -5.265  24.358  0.00  0.00    +0.007 A 
ATOM     33  C   UNL     1       5.150  -5.265  23.652  0.00  0.00    +0.000 A 
ENDBRANCH  27  31
ENDBRANCH  26  27
ENDBRANCH  12  26
ENDBRANCH   1  15
BRANCH   7  34
ATOM     34  O   UNL     1       2.975   3.886  27.226  0.00  0.00    -0.486 OA
BRANCH  34  35
ATOM     35  C   UNL     1       2.529   4.838  26.242  0.00  0.00    +0.264 C 
BRANCH  35  36
ATOM     36  C   UNL     1       2.905   4.578  24.800  0.00  0.00    -0.010 A 
ATOM     37  C   UNL     1       2.262   3.504  24.149  0.00  0.00    +0.007 A 
ATOM     38  C   UNL     1       2.506   3.224  22.808  0.00  0.00    +0.000 A 
ATOM     39  C   UNL     1       3.411   4.004  22.099  0.00  0.00    +0.000 A 
ATOM     40  C   UNL     1       4.084   5.044  22.749  0.00  0.00    +0.000 A 
ATOM     41  C   UNL     1       3.839   5.332  24.091  0.00  0.00    +0.007 A 
ENDBRANCH  35  36
ENDBRANCH  34  35
ENDBRANCH   7  34
BRANCH  11  42
ATOM     42  O   UNL     1       4.118  -0.997  25.954  0.00  0.00    -0.480 OA
BRANCH  42  43
ATOM     43  C   UNL     1       3.358  -1.786  26.852  0.00  0.00    +0.265 C 
BRANCH  43  44
ATOM     44  C   UNL     1       3.841  -3.203  27.061  0.00  0.00    -0.010 A 
ATOM     45  C   UNL     1       5.078  -3.389  27.701  0.00  0.00    +0.007 A 
ATOM     46  C   UNL     1       5.559  -4.670  27.965  0.00  0.00    +0.000 A 
ATOM     47  C   UNL     1       4.809  -5.785  27.605  0.00  0.00    +0.000 A 
ATOM     48  C   UNL     1       3.593  -5.620  26.948  0.00  0.00    +0.000 A 
ATOM     49  C   UNL     1       3.120  -4.338  26.662  0.00  0.00    +0.007 A 
ENDBRANCH  43  44
ENDBRANCH  42  43
ENDBRANCH  11  42
BRANCH   5  50
ATOM     50  O   UNL     1       7.226   5.924  27.672  0.00  0.00    -0.487 OA
BRANCH  50  51
ATOM     51  C   UNL     1       7.057   6.900  26.642  0.00  0.00    +0.264 C 
BRANCH  51  52
ATOM     52  C   UNL     1       8.049   6.685  25.521  0.00  0.00    -0.010 A 
ATOM     53  C   UNL     1       7.574   6.564  24.204  0.00  0.00    +0.007 A 
ATOM     54  C   UNL     1       8.454   6.348  23.143  0.00  0.00    +0.000 A 
ATOM     55  C   UNL     1       9.821   6.238  23.385  0.00  0.00    +0.000 A 
ATOM     56  C   UNL     1      10.306   6.336  24.688  0.00  0.00    +0.000 A 
ATOM     57  C   UNL     1       9.426   6.552  25.752  0.00  0.00    +0.007 A 
ENDBRANCH  51  52
ENDBRANCH  50  51
ENDBRANCH   5  50
TORSDOF 16
ENDMDL
MODEL 6
REMARK VINA RESULT:      -6.7      1.680      2.305
REMARK  Name = 
REMARK  16 active torsions:
REMARK  status: ('A' for Active; 'I' for Inactive)
REMARK    1  A    between atoms: C_4  and  C_7
REMARK    2  A    between atoms: C_7  and  O_8
REMARK    3  A    between atoms: O_8  and  C_9
REMARK    4  A    between atoms: C_10  and  O_50
REMARK    5  A    between atoms: C_12  and  C_15
REMARK    6  A    between atoms: C_16  and  O_42
REMARK    7  A    between atoms: C_23  and  O_34
REMARK    8  A    between atoms: C_25  and  O_26
REMARK    9  A    between atoms: O_26  and  C_27
REMARK   10  A    between atoms: C_27  and  C_28
REMARK   11  A    between atoms: O_34  and  C_35
REMARK   12  A    between atoms: C_35  and  C_36
REMARK   13  A    between atoms: O_42  and  C_43
REMARK   14  A    between atoms: C_43  and  C_44
REMARK   15  A    between atoms: O_50  and  C_51
REMARK   16  A    between atoms: C_51  and  C_52
REMARK                            x       y       z     vdW  Elec       q    Type
REMARK                         _______ _______ _______ _____ _____    ______ ____
ROOT
ATOM      1  C   UNL     1       6.785  -0.538  26.769  0.00  0.00    +0.181 A 
ATOM      2  O   UNL     1       5.750  -1.374  27.179  0.00  0.00    -0.451 OA
ATOM      3  C   UNL     1       5.883  -2.737  27.060  0.00  0.00    +0.147 A 
ATOM      4  C   UNL     1       4.727  -3.480  27.331  0.00  0.00    +0.092 A 
ATOM      5  C   UNL     1       4.769  -4.867  27.269  0.00  0.00    +0.128 A 
ATOM      6  C   UNL     1       5.966  -5.506  26.956  0.00  0.00    +0.092 A 
ATOM      7  C   UNL     1       7.105  -4.781  26.576  0.00  0.00    +0.139 A 
ATOM      8  C   UNL     1       7.067  -3.370  26.681  0.00  0.00    +0.109 A 
ATOM      9  C   UNL     1       8.221  -2.495  26.411  0.00  0.00    +0.238 A 
ATOM     10  O   UNL     1       9.341  -2.958  26.222  0.00  0.00    -0.283 OA
ATOM     11  C   UNL     1       7.999  -1.000  26.381  0.00  0.00    +0.211 A 
ENDROOT
BRANCH   1  15
ATOM     12  C   UNL     1       5.696   3.634  26.496  0.00  0.00    +0.162 A 
ATOM     13  C   UNL     1       6.543   3.153  27.496  0.00  0.00    +0.050 A 
ATOM     14  C   UNL     1       6.821   1.784  27.601  0.00  0.00    +0.015 A 
ATOM     15  C   UNL     1       6.292   0.863  26.687  0.00  0.00    +0.025 A 
ATOM     16  C   UNL     1       5.389   1.340  25.719  0.00  0.00    +0.061 A 
ATOM     17  C   UNL     1       5.025   2.705  25.681  0.00  0.00    +0.163 A 
BRANCH  17  18
ATOM     18  O   UNL     1       3.999   3.034  24.818  0.00  0.00    -0.484 OA
BRANCH  18  19
ATOM     19  C   UNL     1       4.391   3.020  23.432  0.00  0.00    +0.264 C 
BRANCH  19  20
ATOM     20  C   UNL     1       3.656   4.067  22.628  0.00  0.00    -0.010 A 
ATOM     21  C   UNL     1       2.698   3.696  21.678  0.00  0.00    +0.007 A 
ATOM     22  C   UNL     1       2.054   4.666  20.908  0.00  0.00    +0.000 A 
ATOM     23  C   UNL     1       2.365   6.014  21.075  0.00  0.00    +0.000 A 
ATOM     24  C   UNL     1       3.331   6.395  22.003  0.00  0.00    +0.000 A 
ATOM     25  C   UNL     1       3.979   5.426  22.771  0.00  0.00    +0.007 A 
ENDBRANCH  19  20
ENDBRANCH  18  19
ENDBRANCH  17  18
BRANCH  12  26
ATOM     26  O   UNL     1       5.469   4.975  26.286  0.00  0.00    -0.484 OA
BRANCH  26  27
ATOM     27  C   UNL     1       6.533   5.853  26.661  0.00  0.00    +0.264 C 
BRANCH  27  31
ATOM     28  C   UNL     1       9.412   6.541  23.505  0.00  0.00    +0.000 A 
ATOM     29  C   UNL     1       9.854   6.089  24.748  0.00  0.00    +0.000 A 
ATOM     30  C   UNL     1       8.937   5.839  25.774  0.00  0.00    +0.007 A 
ATOM     31  C   UNL     1       7.564   6.031  25.565  0.00  0.00    -0.010 A 
ATOM     32  C   UNL     1       7.136   6.491  24.309  0.00  0.00    +0.007 A 
ATOM     33  C   UNL     1       8.052   6.742  23.287  0.00  0.00    +0.000 A 
ENDBRANCH  27  31
ENDBRANCH  26  27
ENDBRANCH  12  26
ENDBRANCH   1  15
BRANCH   7  34
ATOM     34  O   UNL     1       8.221  -5.420  26.059  0.00  0.00    -0.486 OA
BRANCH  34  35
ATOM     35  C   UNL     1       8.105  -5.800  24.675  0.00  0.00    +0.264 C 
BRANCH  35  36
ATOM     36  C   UNL     1       7.258  -4.923  23.780  0.00  0.00    -0.010 A 
ATOM     37  C   UNL     1       7.887  -3.806  23.189  0.00  0.00    +0.007 A 
ATOM     38  C   UNL     1       7.200  -2.973  22.310  0.00  0.00    +0.000 A 
ATOM     39  C   UNL     1       5.867  -3.234  22.020  0.00  0.00    +0.000 A 
ATOM     40  C   UNL     1       5.225  -4.315  22.634  0.00  0.00    +0.000 A 
ATOM     41  C   UNL     1       5.910  -5.155  23.511  0.00  0.00    +0.007 A 
ENDBRANCH  35  36
ENDBRANCH  34  35
ENDBRANCH   7  34
BRANCH  11  42
ATOM     42  O   UNL     1       9.113  -0.325  25.953  0.00  0.00    -0.480 OA
BRANCH  42  43
ATOM     43  C   UNL     1       9.584  -0.257  24.618  0.00  0.00    +0.265 C 
BRANCH  43  44
ATOM     44  C   UNL     1       9.009   0.854  23.769  0.00  0.00    -0.010 A 
ATOM     45  C   UNL     1       8.794   0.595  22.405  0.00  0.00    +0.007 A 
ATOM     46  C   UNL     1       8.224   1.561  21.577  0.00  0.00    +0.000 A 
ATOM     47  C   UNL     1       7.850   2.794  22.099  0.00  0.00    +0.000 A 
ATOM     48  C   UNL     1       8.079   3.077  23.443  0.00  0.00    +0.000 A 
ATOM     49  C   UNL     1       8.671   2.120  24.269  0.00  0.00    +0.007 A 
ENDBRANCH  43  44
ENDBRANCH  42  43
ENDBRANCH  11  42
BRANCH   5  50
ATOM     50  O   UNL     1       3.715  -5.712  27.482  0.00  0.00    -0.487 OA
BRANCH  50  51
ATOM     51  C   UNL     1       2.464  -5.277  26.945  0.00  0.00    +0.264 C 
BRANCH  51  52
ATOM     52  C   UNL     1       2.283  -5.764  25.524  0.00  0.00    -0.010 A 
ATOM     53  C   UNL     1       2.531  -7.115  25.230  0.00  0.00    +0.007 A 
ATOM     54  C   UNL     1       2.394  -7.602  23.930  0.00  0.00    +0.000 A 
ATOM     55  C   UNL     1       2.017  -6.741  22.902  0.00  0.00    +0.000 A 
ATOM     56  C   UNL     1       1.786  -5.394  23.173  0.00  0.00    +0.000 A 
ATOM     57  C   UNL     1       1.924  -4.905  24.476  0.00  0.00    +0.007 A 
ENDBRANCH  51  52
ENDBRANCH  50  51
ENDBRANCH   5  50
TORSDOF 16
ENDMDL
MODEL 7
REMARK VINA RESULT:      -6.6      2.088     10.123
REMARK  Name = 
REMARK  16 active torsions:
REMARK  status: ('A' for Active; 'I' for Inactive)
REMARK    1  A    between atoms: C_4  and  C_7
REMARK    2  A    between atoms: C_7  and  O_8
REMARK    3  A    between atoms: O_8  and  C_9
REMARK    4  A    between atoms: C_10  and  O_50
REMARK    5  A    between atoms: C_12  and  C_15
REMARK    6  A    between atoms: C_16  and  O_42
REMARK    7  A    between atoms: C_23  and  O_34
REMARK    8  A    between atoms: C_25  and  O_26
REMARK    9  A    between atoms: O_26  and  C_27
REMARK   10  A    between atoms: C_27  and  C_28
REMARK   11  A    between atoms: O_34  and  C_35
REMARK   12  A    between atoms: C_35  and  C_36
REMARK   13  A    between atoms: O_42  and  C_43
REMARK   14  A    between atoms: C_43  and  C_44
REMARK   15  A    between atoms: O_50  and  C_51
REMARK   16  A    between atoms: C_51  and  C_52
REMARK                            x       y       z     vdW  Elec       q    Type
REMARK                         _______ _______ _______ _____ _____    ______ ____
ROOT
ATOM      1  C   UNL     1       6.053  -0.905  27.064  0.00  0.00    +0.181 A 
ATOM      2  O   UNL     1       7.188  -0.370  26.461  0.00  0.00    -0.451 OA
ATOM      3  C   UNL     1       7.210   0.955  26.098  0.00  0.00    +0.147 A 
ATOM      4  C   UNL     1       8.320   1.354  25.342  0.00  0.00    +0.092 A 
ATOM      5  C   UNL     1       8.449   2.681  24.954  0.00  0.00    +0.128 A 
ATOM      6  C   UNL     1       7.482   3.607  25.336  0.00  0.00    +0.092 A 
ATOM      7  C   UNL     1       6.311   3.210  25.999  0.00  0.00    +0.139 A 
ATOM      8  C   UNL     1       6.206   1.866  26.426  0.00  0.00    +0.109 A 
ATOM      9  C   UNL     1       5.078   1.341  27.216  0.00  0.00    +0.238 A 
ATOM     10  O   UNL     1       4.226   2.089  27.685  0.00  0.00    -0.283 OA
ATOM     11  C   UNL     1       4.996  -0.150  27.452  0.00  0.00    +0.211 A 
ENDROOT
BRANCH   1  15
ATOM     12  C   UNL     1       5.956  -5.224  26.962  0.00  0.00    +0.162 A 
ATOM     13  C   UNL     1       5.122  -4.483  27.800  0.00  0.00    +0.050 A 
ATOM     14  C   UNL     1       5.226  -3.087  27.863  0.00  0.00    +0.015 A 
ATOM     15  C   UNL     1       6.139  -2.390  27.061  0.00  0.00    +0.025 A 
ATOM     16  C   UNL     1       7.022  -3.141  26.264  0.00  0.00    +0.061 A 
ATOM     17  C   UNL     1       6.989  -4.553  26.282  0.00  0.00    +0.163 A 
BRANCH  17  18
ATOM     18  O   UNL     1       8.012  -5.192  25.610  0.00  0.00    -0.484 OA
BRANCH  18  19
ATOM     19  C   UNL     1       8.508  -4.447  24.482  0.00  0.00    +0.264 C 
BRANCH  19  20
ATOM     20  C   UNL     1       7.637  -4.628  23.260  0.00  0.00    -0.010 A 
ATOM     21  C   UNL     1       7.578  -5.861  22.602  0.00  0.00    +0.007 A 
ATOM     22  C   UNL     1       6.805  -6.010  21.449  0.00  0.00    +0.000 A 
ATOM     23  C   UNL     1       6.089  -4.928  20.940  0.00  0.00    +0.000 A 
ATOM     24  C   UNL     1       6.156  -3.689  21.575  0.00  0.00    +0.000 A 
ATOM     25  C   UNL     1       6.932  -3.538  22.725  0.00  0.00    +0.007 A 
ENDBRANCH  19  20
ENDBRANCH  18  19
ENDBRANCH  17  18
BRANCH  12  26
ATOM     26  O   UNL     1       5.829  -6.583  26.787  0.00  0.00    -0.484 OA
BRANCH  26  27
ATOM     27  C   UNL     1       4.492  -7.090  26.796  0.00  0.00    +0.264 C 
BRANCH  27  31
ATOM     28  C   UNL     1       2.369  -6.691  23.047  0.00  0.00    +0.000 A 
ATOM     29  C   UNL     1       3.560  -5.991  23.237  0.00  0.00    +0.000 A 
ATOM     30  C   UNL     1       4.273  -6.123  24.433  0.00  0.00    +0.007 A 
ATOM     31  C   UNL     1       3.806  -6.967  25.451  0.00  0.00    -0.010 A 
ATOM     32  C   UNL     1       2.603  -7.662  25.245  0.00  0.00    +0.007 A 
ATOM     33  C   UNL     1       1.891  -7.527  24.052  0.00  0.00    +0.000 A 
ENDBRANCH  27  31
ENDBRANCH  26  27
ENDBRANCH  12  26
ENDBRANCH   1  15
BRANCH   7  34
ATOM     34  O   UNL     1       5.259   4.094  26.183  0.00  0.00    -0.486 OA
BRANCH  34  35
ATOM     35  C   UNL     1       4.898   4.847  25.010  0.00  0.00    +0.264 C 
BRANCH  35  36
ATOM     36  C   UNL     1       3.906   4.220  24.057  0.00  0.00    -0.010 A 
ATOM     37  C   UNL     1       2.633   3.895  24.572  0.00  0.00    +0.007 A 
ATOM     38  C   UNL     1       1.639   3.362  23.755  0.00  0.00    +0.000 A 
ATOM     39  C   UNL     1       1.908   3.131  22.412  0.00  0.00    +0.000 A 
ATOM     40  C   UNL     1       3.180   3.412  21.903  0.00  0.00    +0.000 A 
ATOM     41  C   UNL     1       4.177   3.950  22.716  0.00  0.00    +0.007 A 
ENDBRANCH  35  36
ENDBRANCH  34  35
ENDBRANCH   7  34
BRANCH  11  42
ATOM     42  O   UNL     1       3.816  -0.510  28.050  0.00  0.00    -0.480 OA
BRANCH  42  43
ATOM     43  C   UNL     1       2.566  -0.663  27.401  0.00  0.00    +0.265 C 
BRANCH  43  44
ATOM     44  C   UNL     1       2.089  -2.084  27.208  0.00  0.00    -0.010 A 
ATOM     45  C   UNL     1       1.571  -2.762  28.323  0.00  0.00    +0.007 A 
ATOM     46  C   UNL     1       1.073  -4.058  28.202  0.00  0.00    +0.000 A 
ATOM     47  C   UNL     1       1.072  -4.693  26.965  0.00  0.00    +0.000 A 
ATOM     48  C   UNL     1       1.605  -4.045  25.853  0.00  0.00    +0.000 A 
ATOM     49  C   UNL     1       2.127  -2.756  25.977  0.00  0.00    +0.007 A 
ENDBRANCH  43  44
ENDBRANCH  42  43
ENDBRANCH  11  42
BRANCH   5  50
ATOM     50  O   UNL     1       9.462   3.200  24.195  0.00  0.00    -0.487 OA
BRANCH  50  51
ATOM     51  C   UNL     1      10.573   2.327  23.977  0.00  0.00    +0.264 C 
BRANCH  51  52
ATOM     52  C   UNL     1      10.181   1.157  23.102  0.00  0.00    -0.010 A 
ATOM     53  C   UNL     1      10.562  -0.139  23.487  0.00  0.00    +0.007 A 
ATOM     54  C   UNL     1      10.236  -1.244  22.700  0.00  0.00    +0.000 A 
ATOM     55  C   UNL     1       9.535  -1.067  21.510  0.00  0.00    +0.000 A 
ATOM     56  C   UNL     1       9.168   0.215  21.104  0.00  0.00    +0.000 A 
ATOM     57  C   UNL     1       9.493   1.323  21.892  0.00  0.00    +0.007 A 
ENDBRANCH  51  52
ENDBRANCH  50  51
ENDBRANCH   5  50
TORSDOF 16
ENDMDL
MODEL 8
REMARK VINA RESULT:      -6.5      2.553      5.922
REMARK  Name = 
REMARK  16 active torsions:
REMARK  status: ('A' for Active; 'I' for Inactive)
REMARK    1  A    between atoms: C_4  and  C_7
REMARK    2  A    between atoms: C_7  and  O_8
REMARK    3  A    between atoms: O_8  and  C_9
REMARK    4  A    between atoms: C_10  and  O_50
REMARK    5  A    between atoms: C_12  and  C_15
REMARK    6  A    between atoms: C_16  and  O_42
REMARK    7  A    between atoms: C_23  and  O_34
REMARK    8  A    between atoms: C_25  and  O_26
REMARK    9  A    between atoms: O_26  and  C_27
REMARK   10  A    between atoms: C_27  and  C_28
REMARK   11  A    between atoms: O_34  and  C_35
REMARK   12  A    between atoms: C_35  and  C_36
REMARK   13  A    between atoms: O_42  and  C_43
REMARK   14  A    between atoms: C_43  and  C_44
REMARK   15  A    between atoms: O_50  and  C_51
REMARK   16  A    between atoms: C_51  and  C_52
REMARK                            x       y       z     vdW  Elec       q    Type
REMARK                         _______ _______ _______ _____ _____    ______ ____
ROOT
ATOM      1  C   UNL     1       3.860  -0.720  27.354  0.00  0.00    +0.181 A 
ATOM      2  O   UNL     1       3.432  -1.505  26.287  0.00  0.00    -0.451 OA
ATOM      3  C   UNL     1       2.718  -2.655  26.526  0.00  0.00    +0.147 A 
ATOM      4  C   UNL     1       2.489  -3.465  25.406  0.00  0.00    +0.092 A 
ATOM      5  C   UNL     1       1.749  -4.632  25.539  0.00  0.00    +0.128 A 
ATOM      6  C   UNL     1       1.226  -4.977  26.782  0.00  0.00    +0.092 A 
ATOM      7  C   UNL     1       1.533  -4.240  27.936  0.00  0.00    +0.139 A 
ATOM      8  C   UNL     1       2.252  -3.031  27.786  0.00  0.00    +0.109 A 
ATOM      9  C   UNL     1       2.556  -2.112  28.897  0.00  0.00    +0.238 A 
ATOM     10  O   UNL     1       2.062  -2.272  30.009  0.00  0.00    -0.283 OA
ATOM     11  C   UNL     1       3.487  -0.950  28.637  0.00  0.00    +0.211 A 
ENDROOT
BRANCH   1  15
ATOM     12  C   UNL     1       6.674   2.358  26.225  0.00  0.00    +0.162 A 
ATOM     13  C   UNL     1       5.294   2.570  26.203  0.00  0.00    +0.050 A 
ATOM     14  C   UNL     1       4.405   1.531  26.507  0.00  0.00    +0.015 A 
ATOM     15  C   UNL     1       4.870   0.263  26.878  0.00  0.00    +0.025 A 
ATOM     16  C   UNL     1       6.257   0.032  26.839  0.00  0.00    +0.061 A 
ATOM     17  C   UNL     1       7.148   1.049  26.428  0.00  0.00    +0.163 A 
BRANCH  17  18
ATOM     18  O   UNL     1       8.462   0.668  26.248  0.00  0.00    -0.484 OA
BRANCH  18  19
ATOM     19  C   UNL     1       8.632  -0.758  26.127  0.00  0.00    +0.264 C 
BRANCH  19  20
ATOM     20  C   UNL     1       8.777  -1.188  24.686  0.00  0.00    -0.010 A 
ATOM     21  C   UNL     1      10.043  -1.384  24.123  0.00  0.00    +0.007 A 
ATOM     22  C   UNL     1      10.172  -1.740  22.780  0.00  0.00    +0.000 A 
ATOM     23  C   UNL     1       9.039  -1.896  21.984  0.00  0.00    +0.000 A 
ATOM     24  C   UNL     1       7.773  -1.684  22.527  0.00  0.00    +0.000 A 
ATOM     25  C   UNL     1       7.644  -1.324  23.870  0.00  0.00    +0.007 A 
ENDBRANCH  19  20
ENDBRANCH  18  19
ENDBRANCH  17  18
BRANCH  12  26
ATOM     26  O   UNL     1       7.591   3.366  26.035  0.00  0.00    -0.484 OA
BRANCH  26  27
ATOM     27  C   UNL     1       7.569   3.994  24.750  0.00  0.00    +0.264 C 
BRANCH  27  31
ATOM     28  C   UNL     1       9.833   1.661  21.896  0.00  0.00    +0.000 A 
ATOM     29  C   UNL     1       8.478   1.895  21.667  0.00  0.00    +0.000 A 
ATOM     30  C   UNL     1       7.734   2.665  22.566  0.00  0.00    +0.007 A 
ATOM     31  C   UNL     1       8.340   3.219  23.702  0.00  0.00    -0.010 A 
ATOM     32  C   UNL     1       9.706   2.970  23.920  0.00  0.00    +0.007 A 
ATOM     33  C   UNL     1      10.447   2.200  23.024  0.00  0.00    +0.000 A 
ENDBRANCH  27  31
ENDBRANCH  26  27
ENDBRANCH  12  26
ENDBRANCH   1  15
BRANCH   7  34
ATOM     34  O   UNL     1       1.192  -4.706  29.196  0.00  0.00    -0.486 OA
BRANCH  34  35
ATOM     35  C   UNL     1       1.773  -5.978  29.540  0.00  0.00    +0.264 C 
BRANCH  35  36
ATOM     36  C   UNL     1       3.282  -6.065  29.590  0.00  0.00    -0.010 A 
ATOM     37  C   UNL     1       3.910  -6.930  28.669  0.00  0.00    +0.007 A 
ATOM     38  C   UNL     1       5.296  -7.034  28.608  0.00  0.00    +0.000 A 
ATOM     39  C   UNL     1       6.079  -6.287  29.479  0.00  0.00    +0.000 A 
ATOM     40  C   UNL     1       5.463  -5.458  30.423  0.00  0.00    +0.000 A 
ATOM     41  C   UNL     1       4.074  -5.346  30.485  0.00  0.00    +0.007 A 
ENDBRANCH  35  36
ENDBRANCH  34  35
ENDBRANCH   7  34
BRANCH  11  42
ATOM     42  O   UNL     1       3.811  -0.285  29.791  0.00  0.00    -0.480 OA
BRANCH  42  43
ATOM     43  C   UNL     1       3.490   1.061  30.095  0.00  0.00    +0.265 C 
BRANCH  43  44
ATOM     44  C   UNL     1       4.623   2.055  29.983  0.00  0.00    -0.010 A 
ATOM     45  C   UNL     1       5.935   1.576  30.132  0.00  0.00    +0.007 A 
ATOM     46  C   UNL     1       7.027   2.432  29.994  0.00  0.00    +0.000 A 
ATOM     47  C   UNL     1       6.826   3.775  29.694  0.00  0.00    +0.000 A 
ATOM     48  C   UNL     1       5.532   4.272  29.568  0.00  0.00    +0.000 A 
ATOM     49  C   UNL     1       4.437   3.421  29.729  0.00  0.00    +0.007 A 
ENDBRANCH  43  44
ENDBRANCH  42  43
ENDBRANCH  11  42
BRANCH   5  50
ATOM     50  O   UNL     1       1.473  -5.526  24.541  0.00  0.00    -0.487 OA
BRANCH  50  51
ATOM     51  C   UNL     1       2.410  -6.596  24.401  0.00  0.00    +0.264 C 
BRANCH  51  52
ATOM     52  C   UNL     1       3.803  -6.069  24.141  0.00  0.00    -0.010 A 
ATOM     53  C   UNL     1       4.115  -5.567  22.866  0.00  0.00    +0.007 A 
ATOM     54  C   UNL     1       5.392  -5.087  22.579  0.00  0.00    +0.000 A 
ATOM     55  C   UNL     1       6.381  -5.112  23.559  0.00  0.00    +0.000 A 
ATOM     56  C   UNL     1       6.094  -5.625  24.822  0.00  0.00    +0.000 A 
ATOM     57  C   UNL     1       4.814  -6.107  25.112  0.00  0.00    +0.007 A 
ENDBRANCH  51  52
ENDBRANCH  50  51
ENDBRANCH   5  50
TORSDOF 16
ENDMDL
MODEL 9
REMARK VINA RESULT:      -6.4      1.956      5.464
REMARK  Name = 
REMARK  16 active torsions:
REMARK  status: ('A' for Active; 'I' for Inactive)
REMARK    1  A    between atoms: C_4  and  C_7
REMARK    2  A    between atoms: C_7  and  O_8
REMARK    3  A    between atoms: O_8  and  C_9
REMARK    4  A    between atoms: C_10  and  O_50
REMARK    5  A    between atoms: C_12  and  C_15
REMARK    6  A    between atoms: C_16  and  O_42
REMARK    7  A    between atoms: C_23  and  O_34
REMARK    8  A    between atoms: C_25  and  O_26
REMARK    9  A    between atoms: O_26  and  C_27
REMARK   10  A    between atoms: C_27  and  C_28
REMARK   11  A    between atoms: O_34  and  C_35
REMARK   12  A    between atoms: C_35  and  C_36
REMARK   13  A    between atoms: O_42  and  C_43
REMARK   14  A    between atoms: C_43  and  C_44
REMARK   15  A    between atoms: O_50  and  C_51
REMARK   16  A    between atoms: C_51  and  C_52
REMARK                            x       y       z     vdW  Elec       q    Type
REMARK                         _______ _______ _______ _____ _____    ______ ____
ROOT
ATOM      1  C   UNL     1       5.277   0.761  25.908  0.00  0.00    +0.181 A 
ATOM      2  O   UNL     1       4.941  -0.429  25.269  0.00  0.00    -0.451 OA
ATOM      3  C   UNL     1       4.305  -1.426  25.968  0.00  0.00    +0.147 A 
ATOM      4  C   UNL     1       4.169  -2.645  25.291  0.00  0.00    +0.092 A 
ATOM      5  C   UNL     1       3.512  -3.705  25.904  0.00  0.00    +0.128 A 
ATOM      6  C   UNL     1       2.977  -3.539  27.178  0.00  0.00    +0.092 A 
ATOM      7  C   UNL     1       3.194  -2.365  27.916  0.00  0.00    +0.139 A 
ATOM      8  C   UNL     1       3.828  -1.277  27.272  0.00  0.00    +0.109 A 
ATOM      9  C   UNL     1       4.030   0.043  27.895  0.00  0.00    +0.238 A 
ATOM     10  O   UNL     1       3.515   0.323  28.973  0.00  0.00    -0.283 OA
ATOM     11  C   UNL     1       4.882   1.059  27.169  0.00  0.00    +0.211 A 
ENDROOT
BRANCH   1  15
ATOM     12  C   UNL     1       7.823   3.283  23.494  0.00  0.00    +0.162 A 
ATOM     13  C   UNL     1       6.485   3.051  23.168  0.00  0.00    +0.050 A 
ATOM     14  C   UNL     1       5.704   2.173  23.931  0.00  0.00    +0.015 A 
ATOM     15  C   UNL     1       6.227   1.531  25.061  0.00  0.00    +0.025 A 
ATOM     16  C   UNL     1       7.592   1.715  25.352  0.00  0.00    +0.061 A 
ATOM     17  C   UNL     1       8.406   2.516  24.519  0.00  0.00    +0.163 A 
BRANCH  17  18
ATOM     18  O   UNL     1       9.760   2.483  24.783  0.00  0.00    -0.484 OA
BRANCH  18  19
ATOM     19  C   UNL     1      10.555   2.096  23.645  0.00  0.00    +0.264 C 
BRANCH  19  20
ATOM     20  C   UNL     1      10.217   0.702  23.171  0.00  0.00    -0.010 A 
ATOM     21  C   UNL     1       9.767   0.482  21.864  0.00  0.00    +0.007 A 
ATOM     22  C   UNL     1       9.416  -0.802  21.445  0.00  0.00    +0.000 A 
ATOM     23  C   UNL     1       9.505  -1.877  22.328  0.00  0.00    +0.000 A 
ATOM     24  C   UNL     1       9.933  -1.668  23.637  0.00  0.00    +0.000 A 
ATOM     25  C   UNL     1      10.281  -0.383  24.058  0.00  0.00    +0.007 A 
ENDBRANCH  19  20
ENDBRANCH  18  19
ENDBRANCH  17  18
BRANCH  12  26
ATOM     26  O   UNL     1       8.604   4.209  22.841  0.00  0.00    -0.484 OA
BRANCH  26  27
ATOM     27  C   UNL     1       8.478   5.560  23.293  0.00  0.00    +0.264 C 
BRANCH  27  31
ATOM     28  C   UNL     1      11.944   6.883  25.519  0.00  0.00    +0.000 A 
ATOM     29  C   UNL     1      12.121   6.250  24.290  0.00  0.00    +0.000 A 
ATOM     30  C   UNL     1      11.013   5.834  23.545  0.00  0.00    +0.007 A 
ATOM     31  C   UNL     1       9.712   6.057  24.018  0.00  0.00    -0.010 A 
ATOM     32  C   UNL     1       9.551   6.692  25.260  0.00  0.00    +0.007 A 
ATOM     33  C   UNL     1      10.658   7.104  26.004  0.00  0.00    +0.000 A 
ENDBRANCH  27  31
ENDBRANCH  26  27
ENDBRANCH  12  26
ENDBRANCH   1  15
BRANCH   7  34
ATOM     34  O   UNL     1       2.850  -2.288  29.256  0.00  0.00    -0.486 OA
BRANCH  34  35
ATOM     35  C   UNL     1       3.788  -2.911  30.152  0.00  0.00    +0.264 C 
BRANCH  35  36
ATOM     36  C   UNL     1       4.074  -4.383  29.949  0.00  0.00    -0.010 A 
ATOM     37  C   UNL     1       3.057  -5.293  30.307  0.00  0.00    +0.007 A 
ATOM     38  C   UNL     1       3.211  -6.662  30.106  0.00  0.00    +0.000 A 
ATOM     39  C   UNL     1       4.393  -7.145  29.560  0.00  0.00    +0.000 A 
ATOM     40  C   UNL     1       5.423  -6.253  29.242  0.00  0.00    +0.000 A 
ATOM     41  C   UNL     1       5.271  -4.880  29.436  0.00  0.00    +0.007 A 
ENDBRANCH  35  36
ENDBRANCH  34  35
ENDBRANCH   7  34
BRANCH  11  42
ATOM     42  O   UNL     1       5.122   2.169  27.938  0.00  0.00    -0.480 OA
BRANCH  42  43
ATOM     43  C   UNL     1       4.325   3.340  27.982  0.00  0.00    +0.265 C 
BRANCH  43  44
ATOM     44  C   UNL     1       4.483   4.292  26.818  0.00  0.00    -0.010 A 
ATOM     45  C   UNL     1       5.704   4.973  26.686  0.00  0.00    +0.007 A 
ATOM     46  C   UNL     1       5.930   5.830  25.610  0.00  0.00    +0.000 A 
ATOM     47  C   UNL     1       4.946   6.011  24.644  0.00  0.00    +0.000 A 
ATOM     48  C   UNL     1       3.720   5.363  24.773  0.00  0.00    +0.000 A 
ATOM     49  C   UNL     1       3.483   4.523  25.862  0.00  0.00    +0.007 A 
ENDBRANCH  43  44
ENDBRANCH  42  43
ENDBRANCH  11  42
BRANCH   5  50
ATOM     50  O   UNL     1       3.332  -4.952  25.372  0.00  0.00    -0.487 OA
BRANCH  50  51
ATOM     51  C   UNL     1       4.308  -5.925  25.751  0.00  0.00    +0.264 C 
BRANCH  51  52
ATOM     52  C   UNL     1       5.649  -5.625  25.119  0.00  0.00    -0.010 A 
ATOM     53  C   UNL     1       6.738  -5.308  25.948  0.00  0.00    +0.007 A 
ATOM     54  C   UNL     1       7.987  -5.008  25.405  0.00  0.00    +0.000 A 
ATOM     55  C   UNL     1       8.163  -5.010  24.023  0.00  0.00    +0.000 A 
ATOM     56  C   UNL     1       7.088  -5.304  23.187  0.00  0.00    +0.000 A 
ATOM     57  C   UNL     1       5.836  -5.604  23.729  0.00  0.00    +0.007 A 
ENDBRANCH  51  52
ENDBRANCH  50  51
ENDBRANCH   5  50
TORSDOF 16
ENDMDL
