MODEL 1
REMARK VINA RESULT:      -7.7      0.000      0.000
REMARK  Name = 
REMARK  14 active torsions:
REMARK  status: ('A' for Active; 'I' for Inactive)
REMARK    1  A    between atoms: C_1  and  C_2
REMARK    2  A    between atoms: C_2  and  O_4
REMARK    3  A    between atoms: O_4  and  C_5
REMARK    4  A    between atoms: C_7  and  O_39
REMARK    5  A    between atoms: C_12  and  C_17
REMARK    6  A    between atoms: C_13  and  O_16
REMARK    7  A    between atoms: C_19  and  O_24
REMARK    8  A    between atoms: C_20  and  O_23
REMARK    9  A    between atoms: O_24  and  C_25
REMARK   10  A    between atoms: C_27  and  O_38
REMARK   11  A    between atoms: C_28  and  O_37
REMARK   12  A    between atoms: C_30  and  O_36
REMARK   13  A    between atoms: C_32  and  C_34
REMARK   14  A    between atoms: C_34  and  O_35
REMARK                            x       y       z     vdW  Elec       q    Type
REMARK                         _______ _______ _______ _____ _____    ______ ____
ROOT
ATOM      1  C   UNL     1       7.732  -1.525  22.815  0.00  0.00    +0.025 A 
ATOM      2  C   UNL     1       8.905  -1.677  22.060  0.00  0.00    +0.015 A 
ATOM      3  C   UNL     1       9.579  -0.559  21.574  0.00  0.00    +0.050 A 
ATOM      4  C   UNL     1       9.068   0.706  21.825  0.00  0.00    +0.159 A 
ATOM      5  C   UNL     1       7.887   0.883  22.554  0.00  0.00    +0.166 A 
ATOM      6  C   UNL     1       7.238  -0.238  23.079  0.00  0.00    +0.061 A 
ENDROOT
BRANCH   1  11
ATOM      7  C   UNL     1       6.604  -5.594  27.066  0.00  0.00    +0.139 A 
ATOM      8  C   UNL     1       7.208  -4.533  26.398  0.00  0.00    +0.093 A 
ATOM      9  C   UNL     1       6.744  -4.168  25.130  0.00  0.00    +0.147 A 
ATOM     10  O   UNL     1       7.364  -3.087  24.558  0.00  0.00    -0.451 OA
ATOM     11  C   UNL     1       7.000  -2.716  23.276  0.00  0.00    +0.181 A 
ATOM     12  C   UNL     1       6.061  -3.332  22.534  0.00  0.00    +0.208 A 
ATOM     13  C   UNL     1       5.302  -4.459  23.149  0.00  0.00    +0.238 A 
ATOM     14  O   UNL     1       4.392  -5.002  22.531  0.00  0.00    -0.283 OA
ATOM     15  C   UNL     1       5.708  -4.874  24.513  0.00  0.00    +0.109 A 
ATOM     16  C   UNL     1       5.122  -5.950  25.196  0.00  0.00    +0.135 A 
ATOM     17  C   UNL     1       5.568  -6.311  26.469  0.00  0.00    +0.092 A 
BRANCH  12  18
ATOM     18  O   UNL     1       5.740  -2.975  21.235  0.00  0.00    -0.501 OA
ATOM     19  H   UNL     1       4.777  -2.880  21.157  0.00  0.00    +0.292 HD
ENDBRANCH  12  18
BRANCH  16  20
ATOM     20  O   UNL     1       4.108  -6.671  24.633  0.00  0.00    -0.506 OA
ATOM     21  H   UNL     1       3.245  -6.334  24.917  0.00  0.00    +0.292 HD
ENDBRANCH  16  20
BRANCH   7  22
ATOM     22  O   UNL     1       7.025  -6.065  28.326  0.00  0.00    -0.426 OA
BRANCH  22  24
ATOM     23  C   UNL     1       5.329  -4.936  29.507  0.00  0.00    +0.136 C 
ATOM     24  C   UNL     1       6.128  -6.201  29.386  0.00  0.00    +0.309 C 
ATOM     25  O   UNL     1       6.029  -7.154  30.144  0.00  0.00    -0.251 OA
ENDBRANCH  22  24
ENDBRANCH   7  22
ENDBRANCH   1  11
BRANCH   4  26
ATOM     26  O   UNL     1       9.746   1.781  21.318  0.00  0.00    -0.503 OA
ATOM     27  H   UNL     1      10.454   1.420  20.755  0.00  0.00    +0.292 HD
ENDBRANCH   4  26
BRANCH   5  28
ATOM     28  O   UNL     1       7.450   2.179  22.625  0.00  0.00    -0.457 OA
BRANCH  28  29
ATOM     29  C   UNL     1       7.338   2.800  23.920  0.00  0.00    +0.339 C 
ATOM     30  O   UNL     1       5.989   2.940  24.373  0.00  0.00    -0.331 OA
ATOM     31  C   UNL     1       5.162   3.759  23.529  0.00  0.00    +0.179 C 
ATOM     32  C   UNL     1       5.736   5.188  23.413  0.00  0.00    +0.177 C 
ATOM     33  C   UNL     1       7.201   5.135  22.952  0.00  0.00    +0.180 C 
ATOM     34  C   UNL     1       8.016   4.185  23.847  0.00  0.00    +0.214 C 
BRANCH  32  35
ATOM     35  O   UNL     1       5.662   5.844  24.682  0.00  0.00    -0.386 OA
ATOM     36  H   UNL     1       5.447   6.782  24.532  0.00  0.00    +0.210 HD
ENDBRANCH  32  35
BRANCH  33  37
ATOM     37  O   UNL     1       7.307   4.750  21.572  0.00  0.00    -0.386 OA
ATOM     38  H   UNL     1       6.492   4.285  21.309  0.00  0.00    +0.210 HD
ENDBRANCH  33  37
BRANCH  34  39
ATOM     39  O   UNL     1       9.359   4.088  23.352  0.00  0.00    -0.383 OA
ATOM     40  H   UNL     1       9.758   3.309  23.786  0.00  0.00    +0.210 HD
ENDBRANCH  34  39
BRANCH  31  41
ATOM     41  C   UNL     1       3.735   3.758  24.105  0.00  0.00    +0.190 C 
BRANCH  41  42
ATOM     42  O   UNL     1       2.940   2.701  23.556  0.00  0.00    -0.392 OA
ATOM     43  H   UNL     1       2.069   2.712  23.985  0.00  0.00    +0.210 HD
ENDBRANCH  41  42
ENDBRANCH  31  41
ENDBRANCH  28  29
ENDBRANCH   5  28
TORSDOF 13
ENDMDL
MODEL 2
REMARK VINA RESULT:      -7.7      1.885      3.653
REMARK  Name = 
REMARK  14 active torsions:
REMARK  status: ('A' for Active; 'I' for Inactive)
REMARK    1  A    between atoms: C_1  and  C_2
REMARK    2  A    between atoms: C_2  and  O_4
REMARK    3  A    between atoms: O_4  and  C_5
REMARK    4  A    between atoms: C_7  and  O_39
REMARK    5  A    between atoms: C_12  and  C_17
REMARK    6  A    between atoms: C_13  and  O_16
REMARK    7  A    between atoms: C_19  and  O_24
REMARK    8  A    between atoms: C_20  and  O_23
REMARK    9  A    between atoms: O_24  and  C_25
REMARK   10  A    between atoms: C_27  and  O_38
REMARK   11  A    between atoms: C_28  and  O_37
REMARK   12  A    between atoms: C_30  and  O_36
REMARK   13  A    between atoms: C_32  and  C_34
REMARK   14  A    between atoms: C_34  and  O_35
REMARK                            x       y       z     vdW  Elec       q    Type
REMARK                         _______ _______ _______ _____ _____    ______ ____
ROOT
ATOM      1  C   UNL     1       8.104  -2.792  24.607  0.00  0.00    +0.025 A 
ATOM      2  C   UNL     1       9.367  -3.101  24.079  0.00  0.00    +0.015 A 
ATOM      3  C   UNL     1      10.058  -2.166  23.312  0.00  0.00    +0.050 A 
ATOM      4  C   UNL     1       9.476  -0.933  23.056  0.00  0.00    +0.159 A 
ATOM      5  C   UNL     1       8.207  -0.609  23.550  0.00  0.00    +0.166 A 
ATOM      6  C   UNL     1       7.536  -1.533  24.357  0.00  0.00    +0.061 A 
ENDROOT
BRANCH   1  11
ATOM      7  C   UNL     1       3.324  -6.354  25.207  0.00  0.00    +0.139 A 
ATOM      8  C   UNL     1       4.164  -5.366  24.702  0.00  0.00    +0.093 A 
ATOM      9  C   UNL     1       5.385  -5.113  25.337  0.00  0.00    +0.147 A 
ATOM     10  O   UNL     1       6.172  -4.156  24.753  0.00  0.00    -0.451 OA
ATOM     11  C   UNL     1       7.361  -3.808  25.369  0.00  0.00    +0.181 A 
ATOM     12  C   UNL     1       7.824  -4.353  26.510  0.00  0.00    +0.208 A 
ATOM     13  C   UNL     1       7.041  -5.458  27.133  0.00  0.00    +0.238 A 
ATOM     14  O   UNL     1       7.462  -6.026  28.136  0.00  0.00    -0.283 OA
ATOM     15  C   UNL     1       5.754  -5.813  26.489  0.00  0.00    +0.109 A 
ATOM     16  C   UNL     1       4.887  -6.794  26.991  0.00  0.00    +0.135 A 
ATOM     17  C   UNL     1       3.673  -7.065  26.355  0.00  0.00    +0.092 A 
BRANCH  12  18
ATOM     18  O   UNL     1       8.995  -3.962  27.138  0.00  0.00    -0.501 OA
ATOM     19  H   UNL     1       9.754  -4.241  26.602  0.00  0.00    +0.292 HD
ENDBRANCH  12  18
BRANCH  16  20
ATOM     20  O   UNL     1       5.203  -7.502  28.115  0.00  0.00    -0.506 OA
ATOM     21  H   UNL     1       6.164  -7.580  28.216  0.00  0.00    +0.292 HD
ENDBRANCH  16  20
BRANCH   7  22
ATOM     22  O   UNL     1       2.057  -6.655  24.666  0.00  0.00    -0.426 OA
BRANCH  22  24
ATOM     23  C   UNL     1       1.472  -7.119  22.433  0.00  0.00    +0.136 C 
ATOM     24  C   UNL     1       1.888  -7.697  23.755  0.00  0.00    +0.309 C 
ATOM     25  O   UNL     1       1.994  -8.893  23.982  0.00  0.00    -0.251 OA
ENDBRANCH  22  24
ENDBRANCH   7  22
ENDBRANCH   1  11
BRANCH   4  26
ATOM     26  O   UNL     1      10.175  -0.045  22.285  0.00  0.00    -0.503 OA
ATOM     27  H   UNL     1       9.798  -0.101  21.389  0.00  0.00    +0.292 HD
ENDBRANCH   4  26
BRANCH   5  28
ATOM     28  O   UNL     1       7.720   0.597  23.123  0.00  0.00    -0.457 OA
BRANCH  28  29
ATOM     29  C   UNL     1       7.328   1.571  24.109  0.00  0.00    +0.339 C 
ATOM     30  O   UNL     1       6.049   2.158  23.856  0.00  0.00    -0.331 OA
ATOM     31  C   UNL     1       5.961   2.876  22.613  0.00  0.00    +0.179 C 
ATOM     32  C   UNL     1       6.988   4.027  22.566  0.00  0.00    +0.177 C 
ATOM     33  C   UNL     1       8.399   3.491  22.853  0.00  0.00    +0.180 C 
ATOM     34  C   UNL     1       8.412   2.669  24.155  0.00  0.00    +0.214 C 
BRANCH  32  35
ATOM     35  O   UNL     1       6.650   5.018  23.542  0.00  0.00    -0.386 OA
ATOM     36  H   UNL     1       7.256   5.773  23.437  0.00  0.00    +0.210 HD
ENDBRANCH  32  35
BRANCH  33  37
ATOM     37  O   UNL     1       8.902   2.712  21.756  0.00  0.00    -0.386 OA
ATOM     38  H   UNL     1       9.813   2.432  21.957  0.00  0.00    +0.210 HD
ENDBRANCH  33  37
BRANCH  34  39
ATOM     39  O   UNL     1       9.717   2.112  24.362  0.00  0.00    -0.383 OA
ATOM     40  H   UNL     1      10.198   2.211  23.517  0.00  0.00    +0.210 HD
ENDBRANCH  34  39
BRANCH  31  41
ATOM     41  C   UNL     1       4.517   3.386  22.452  0.00  0.00    +0.190 C 
BRANCH  41  42
ATOM     42  O   UNL     1       3.594   2.624  23.237  0.00  0.00    -0.392 OA
ATOM     43  H   UNL     1       3.610   2.959  24.149  0.00  0.00    +0.210 HD
ENDBRANCH  41  42
ENDBRANCH  31  41
ENDBRANCH  28  29
ENDBRANCH   5  28
TORSDOF 13
ENDMDL
MODEL 3
REMARK VINA RESULT:      -7.6      0.873      2.024
REMARK  Name = 
REMARK  14 active torsions:
REMARK  status: ('A' for Active; 'I' for Inactive)
REMARK    1  A    between atoms: C_1  and  C_2
REMARK    2  A    between atoms: C_2  and  O_4
REMARK    3  A    between atoms: O_4  and  C_5
REMARK    4  A    between atoms: C_7  and  O_39
REMARK    5  A    between atoms: C_12  and  C_17
REMARK    6  A    between atoms: C_13  and  O_16
REMARK    7  A    between atoms: C_19  and  O_24
REMARK    8  A    between atoms: C_20  and  O_23
REMARK    9  A    between atoms: O_24  and  C_25
REMARK   10  A    between atoms: C_27  and  O_38
REMARK   11  A    between atoms: C_28  and  O_37
REMARK   12  A    between atoms: C_30  and  O_36
REMARK   13  A    between atoms: C_32  and  C_34
REMARK   14  A    between atoms: C_34  and  O_35
REMARK                            x       y       z     vdW  Elec       q    Type
REMARK                         _______ _______ _______ _____ _____    ______ ____
ROOT
ATOM      1  C   UNL     1       7.653  -1.484  22.908  0.00  0.00    +0.025 A 
ATOM      2  C   UNL     1       8.667  -1.554  21.941  0.00  0.00    +0.015 A 
ATOM      3  C   UNL     1       9.291  -0.393  21.489  0.00  0.00    +0.050 A 
ATOM      4  C   UNL     1       8.883   0.836  21.988  0.00  0.00    +0.159 A 
ATOM      5  C   UNL     1       7.857   0.934  22.934  0.00  0.00    +0.166 A 
ATOM      6  C   UNL     1       7.265  -0.236  23.419  0.00  0.00    +0.061 A 
ENDROOT
BRANCH   1  11
ATOM      7  C   UNL     1       6.488  -5.567  27.135  0.00  0.00    +0.139 A 
ATOM      8  C   UNL     1       7.071  -4.479  26.493  0.00  0.00    +0.093 A 
ATOM      9  C   UNL     1       6.673  -4.157  25.191  0.00  0.00    +0.147 A 
ATOM     10  O   UNL     1       7.263  -3.047  24.645  0.00  0.00    -0.451 OA
ATOM     11  C   UNL     1       6.966  -2.713  23.336  0.00  0.00    +0.181 A 
ATOM     12  C   UNL     1       6.119  -3.394  22.542  0.00  0.00    +0.208 A 
ATOM     13  C   UNL     1       5.390  -4.559  23.122  0.00  0.00    +0.238 A 
ATOM     14  O   UNL     1       4.560  -5.165  22.453  0.00  0.00    -0.283 OA
ATOM     15  C   UNL     1       5.727  -4.933  24.516  0.00  0.00    +0.109 A 
ATOM     16  C   UNL     1       5.162  -6.036  25.175  0.00  0.00    +0.135 A 
ATOM     17  C   UNL     1       5.542  -6.355  26.481  0.00  0.00    +0.092 A 
BRANCH  12  18
ATOM     18  O   UNL     1       5.866  -3.073  21.219  0.00  0.00    -0.501 OA
ATOM     19  H   UNL     1       6.536  -3.491  20.654  0.00  0.00    +0.292 HD
ENDBRANCH  12  18
BRANCH  16  20
ATOM     20  O   UNL     1       4.236  -6.825  24.556  0.00  0.00    -0.506 OA
ATOM     21  H   UNL     1       4.636  -7.319  23.824  0.00  0.00    +0.292 HD
ENDBRANCH  16  20
BRANCH   7  22
ATOM     22  O   UNL     1       6.850  -5.997  28.428  0.00  0.00    -0.426 OA
BRANCH  22  24
ATOM     23  C   UNL     1       5.218  -4.834  29.664  0.00  0.00    +0.136 C 
ATOM     24  C   UNL     1       5.896  -6.153  29.434  0.00  0.00    +0.309 C 
ATOM     25  O   UNL     1       5.670  -7.166  30.078  0.00  0.00    -0.251 OA
ENDBRANCH  22  24
ENDBRANCH   7  22
ENDBRANCH   1  11
BRANCH   4  26
ATOM     26  O   UNL     1       9.505   1.957  21.509  0.00  0.00    -0.503 OA
ATOM     27  H   UNL     1       9.931   2.384  22.273  0.00  0.00    +0.292 HD
ENDBRANCH   4  26
BRANCH   5  28
ATOM     28  O   UNL     1       7.492   2.216  23.247  0.00  0.00    -0.457 OA
BRANCH  28  29
ATOM     29  C   UNL     1       6.517   2.878  22.419  0.00  0.00    +0.339 C 
ATOM     30  O   UNL     1       6.961   4.138  21.909  0.00  0.00    -0.331 OA
ATOM     31  C   UNL     1       7.268   5.113  22.921  0.00  0.00    +0.179 C 
ATOM     32  C   UNL     1       6.033   5.406  23.798  0.00  0.00    +0.177 C 
ATOM     33  C   UNL     1       5.468   4.098  24.374  0.00  0.00    +0.180 C 
ATOM     34  C   UNL     1       5.232   3.070  23.254  0.00  0.00    +0.214 C 
BRANCH  32  35
ATOM     35  O   UNL     1       5.024   6.053  23.015  0.00  0.00    -0.386 OA
ATOM     36  H   UNL     1       5.462   6.635  22.369  0.00  0.00    +0.210 HD
ENDBRANCH  32  35
BRANCH  33  37
ATOM     37  O   UNL     1       6.327   3.554  25.390  0.00  0.00    -0.386 OA
ATOM     38  H   UNL     1       5.845   2.859  25.873  0.00  0.00    +0.210 HD
ENDBRANCH  33  37
BRANCH  34  39
ATOM     39  O   UNL     1       4.783   1.832  23.820  0.00  0.00    -0.383 OA
ATOM     40  H   UNL     1       5.522   1.200  23.727  0.00  0.00    +0.210 HD
ENDBRANCH  34  39
BRANCH  31  41
ATOM     41  C   UNL     1       7.793   6.381  22.224  0.00  0.00    +0.190 C 
BRANCH  41  42
ATOM     42  O   UNL     1       6.986   6.742  21.097  0.00  0.00    -0.392 OA
ATOM     43  H   UNL     1       7.415   7.478  20.631  0.00  0.00    +0.210 HD
ENDBRANCH  41  42
ENDBRANCH  31  41
ENDBRANCH  28  29
ENDBRANCH   5  28
TORSDOF 13
ENDMDL
MODEL 4
REMARK VINA RESULT:      -7.5      1.901      3.508
REMARK  Name = 
REMARK  14 active torsions:
REMARK  status: ('A' for Active; 'I' for Inactive)
REMARK    1  A    between atoms: C_1  and  C_2
REMARK    2  A    between atoms: C_2  and  O_4
REMARK    3  A    between atoms: O_4  and  C_5
REMARK    4  A    between atoms: C_7  and  O_39
REMARK    5  A    between atoms: C_12  and  C_17
REMARK    6  A    between atoms: C_13  and  O_16
REMARK    7  A    between atoms: C_19  and  O_24
REMARK    8  A    between atoms: C_20  and  O_23
REMARK    9  A    between atoms: O_24  and  C_25
REMARK   10  A    between atoms: C_27  and  O_38
REMARK   11  A    between atoms: C_28  and  O_37
REMARK   12  A    between atoms: C_30  and  O_36
REMARK   13  A    between atoms: C_32  and  C_34
REMARK   14  A    between atoms: C_34  and  O_35
REMARK                            x       y       z     vdW  Elec       q    Type
REMARK                         _______ _______ _______ _____ _____    ______ ____
ROOT
ATOM      1  C   UNL     1       8.382  -1.122  23.497  0.00  0.00    +0.025 A 
ATOM      2  C   UNL     1       9.309  -1.335  22.466  0.00  0.00    +0.015 A 
ATOM      3  C   UNL     1       9.887  -0.253  21.804  0.00  0.00    +0.050 A 
ATOM      4  C   UNL     1       9.518   1.036  22.158  0.00  0.00    +0.159 A 
ATOM      5  C   UNL     1       8.577   1.274  23.166  0.00  0.00    +0.166 A 
ATOM      6  C   UNL     1       8.034   0.188  23.859  0.00  0.00    +0.061 A 
ENDROOT
BRANCH   1  11
ATOM      7  C   UNL     1       4.448  -5.639  23.344  0.00  0.00    +0.139 A 
ATOM      8  C   UNL     1       5.140  -4.494  22.962  0.00  0.00    +0.093 A 
ATOM      9  C   UNL     1       6.131  -3.978  23.804  0.00  0.00    +0.147 A 
ATOM     10  O   UNL     1       6.795  -2.874  23.337  0.00  0.00    -0.451 OA
ATOM     11  C   UNL     1       7.739  -2.274  24.150  0.00  0.00    +0.181 A 
ATOM     12  C   UNL     1       8.075  -2.699  25.382  0.00  0.00    +0.208 A 
ATOM     13  C   UNL     1       7.439  -3.947  25.896  0.00  0.00    +0.238 A 
ATOM     14  O   UNL     1       7.768  -4.406  26.985  0.00  0.00    -0.283 OA
ATOM     15  C   UNL     1       6.409  -4.577  25.036  0.00  0.00    +0.109 A 
ATOM     16  C   UNL     1       5.690  -5.722  25.410  0.00  0.00    +0.135 A 
ATOM     17  C   UNL     1       4.710  -6.252  24.568  0.00  0.00    +0.092 A 
BRANCH  12  18
ATOM     18  O   UNL     1       8.990  -2.061  26.202  0.00  0.00    -0.501 OA
ATOM     19  H   UNL     1       8.554  -1.320  26.653  0.00  0.00    +0.292 HD
ENDBRANCH  12  18
BRANCH  16  20
ATOM     20  O   UNL     1       5.925  -6.339  26.605  0.00  0.00    -0.506 OA
ATOM     21  H   UNL     1       6.722  -5.984  27.028  0.00  0.00    +0.292 HD
ENDBRANCH  16  20
BRANCH   7  22
ATOM     22  O   UNL     1       3.406  -6.211  22.586  0.00  0.00    -0.426 OA
BRANCH  22  24
ATOM     23  C   UNL     1       1.467  -7.484  22.991  0.00  0.00    +0.136 C 
ATOM     24  C   UNL     1       2.075  -6.112  22.993  0.00  0.00    +0.309 C 
ATOM     25  O   UNL     1       1.464  -5.087  23.257  0.00  0.00    -0.251 OA
ENDBRANCH  22  24
ENDBRANCH   7  22
ENDBRANCH   1  11
BRANCH   4  26
ATOM     26  O   UNL     1      10.092   2.074  21.476  0.00  0.00    -0.503 OA
ATOM     27  H   UNL     1      11.007   1.805  21.282  0.00  0.00    +0.292 HD
ENDBRANCH   4  26
BRANCH   5  28
ATOM     28  O   UNL     1       8.235   2.590  23.326  0.00  0.00    -0.457 OA
BRANCH  28  29
ATOM     29  C   UNL     1       8.660   3.273  24.521  0.00  0.00    +0.339 C 
ATOM     30  O   UNL     1       7.586   3.593  25.410  0.00  0.00    -0.331 OA
ATOM     31  C   UNL     1       6.593   4.469  24.850  0.00  0.00    +0.179 C 
ATOM     32  C   UNL     1       7.221   5.813  24.422  0.00  0.00    +0.177 C 
ATOM     33  C   UNL     1       8.408   5.566  23.477  0.00  0.00    +0.180 C 
ATOM     34  C   UNL     1       9.396   4.563  24.099  0.00  0.00    +0.214 C 
BRANCH  32  35
ATOM     35  O   UNL     1       7.675   6.525  25.577  0.00  0.00    -0.386 OA
ATOM     36  H   UNL     1       8.223   7.275  25.281  0.00  0.00    +0.210 HD
ENDBRANCH  32  35
BRANCH  33  37
ATOM     37  O   UNL     1       7.971   5.114  22.186  0.00  0.00    -0.386 OA
ATOM     38  H   UNL     1       7.029   5.339  22.073  0.00  0.00    +0.210 HD
ENDBRANCH  33  37
BRANCH  34  39
ATOM     39  O   UNL     1      10.453   4.285  23.170  0.00  0.00    -0.383 OA
ATOM     40  H   UNL     1      10.111   4.516  22.285  0.00  0.00    +0.210 HD
ENDBRANCH  34  39
BRANCH  31  41
ATOM     41  C   UNL     1       5.478   4.663  25.893  0.00  0.00    +0.190 C 
BRANCH  41  42
ATOM     42  O   UNL     1       4.803   5.915  25.726  0.00  0.00    -0.392 OA
ATOM     43  H   UNL     1       5.134   6.340  24.918  0.00  0.00    +0.210 HD
ENDBRANCH  41  42
ENDBRANCH  31  41
ENDBRANCH  28  29
ENDBRANCH   5  28
TORSDOF 13
ENDMDL
MODEL 5
REMARK VINA RESULT:      -7.4      2.132      3.816
REMARK  Name = 
REMARK  14 active torsions:
REMARK  status: ('A' for Active; 'I' for Inactive)
REMARK    1  A    between atoms: C_1  and  C_2
REMARK    2  A    between atoms: C_2  and  O_4
REMARK    3  A    between atoms: O_4  and  C_5
REMARK    4  A    between atoms: C_7  and  O_39
REMARK    5  A    between atoms: C_12  and  C_17
REMARK    6  A    between atoms: C_13  and  O_16
REMARK    7  A    between atoms: C_19  and  O_24
REMARK    8  A    between atoms: C_20  and  O_23
REMARK    9  A    between atoms: O_24  and  C_25
REMARK   10  A    between atoms: C_27  and  O_38
REMARK   11  A    between atoms: C_28  and  O_37
REMARK   12  A    between atoms: C_30  and  O_36
REMARK   13  A    between atoms: C_32  and  C_34
REMARK   14  A    between atoms: C_34  and  O_35
REMARK                            x       y       z     vdW  Elec       q    Type
REMARK                         _______ _______ _______ _____ _____    ______ ____
ROOT
ATOM      1  C   UNL     1       7.837  -2.459  23.863  0.00  0.00    +0.025 A 
ATOM      2  C   UNL     1       8.489  -2.848  22.683  0.00  0.00    +0.015 A 
ATOM      3  C   UNL     1       9.068  -1.892  21.850  0.00  0.00    +0.050 A 
ATOM      4  C   UNL     1       8.973  -0.550  22.187  0.00  0.00    +0.159 A 
ATOM      5  C   UNL     1       8.307  -0.135  23.346  0.00  0.00    +0.166 A 
ATOM      6  C   UNL     1       7.767  -1.099  24.202  0.00  0.00    +0.061 A 
ENDROOT
BRANCH   1  11
ATOM      7  C   UNL     1       3.189  -6.082  24.948  0.00  0.00    +0.139 A 
ATOM      8  C   UNL     1       3.964  -5.090  24.353  0.00  0.00    +0.093 A 
ATOM      9  C   UNL     1       5.233  -4.808  24.872  0.00  0.00    +0.147 A 
ATOM     10  O   UNL     1       5.949  -3.849  24.204  0.00  0.00    -0.451 OA
ATOM     11  C   UNL     1       7.183  -3.474  24.705  0.00  0.00    +0.181 A 
ATOM     12  C   UNL     1       7.755  -3.991  25.807  0.00  0.00    +0.208 A 
ATOM     13  C   UNL     1       7.049  -5.098  26.516  0.00  0.00    +0.238 A 
ATOM     14  O   UNL     1       7.568  -5.642  27.485  0.00  0.00    -0.283 OA
ATOM     15  C   UNL     1       5.716  -5.483  25.996  0.00  0.00    +0.109 A 
ATOM     16  C   UNL     1       4.913  -6.468  26.590  0.00  0.00    +0.135 A 
ATOM     17  C   UNL     1       3.652  -6.767  26.070  0.00  0.00    +0.092 A 
BRANCH  12  18
ATOM     18  O   UNL     1       8.971  -3.573  26.321  0.00  0.00    -0.501 OA
ATOM     19  H   UNL     1       9.102  -3.968  27.197  0.00  0.00    +0.292 HD
ENDBRANCH  12  18
BRANCH  16  20
ATOM     20  O   UNL     1       5.342  -7.153  27.691  0.00  0.00    -0.506 OA
ATOM     21  H   UNL     1       4.953  -8.040  27.720  0.00  0.00    +0.292 HD
ENDBRANCH  16  20
BRANCH   7  22
ATOM     22  O   UNL     1       1.884  -6.410  24.528  0.00  0.00    -0.426 OA
BRANCH  22  24
ATOM     23  C   UNL     1       0.530  -5.266  22.978  0.00  0.00    +0.136 C 
ATOM     24  C   UNL     1       1.525  -6.371  23.180  0.00  0.00    +0.309 C 
ATOM     25  O   UNL     1       1.897  -7.134  22.301  0.00  0.00    -0.251 OA
ENDBRANCH  22  24
ENDBRANCH   7  22
ENDBRANCH   1  11
BRANCH   4  26
ATOM     26  O   UNL     1       9.537   0.362  21.338  0.00  0.00    -0.503 OA
ATOM     27  H   UNL     1       9.319   1.243  21.694  0.00  0.00    +0.292 HD
ENDBRANCH   4  26
BRANCH   5  28
ATOM     28  O   UNL     1       8.201   1.223  23.486  0.00  0.00    -0.457 OA
BRANCH  28  29
ATOM     29  C   UNL     1       9.037   1.884  24.457  0.00  0.00    +0.339 C 
ATOM     30  O   UNL     1       8.318   2.369  25.594  0.00  0.00    -0.331 OA
ATOM     31  C   UNL     1       7.312   3.349  25.286  0.00  0.00    +0.179 C 
ATOM     32  C   UNL     1       7.936   4.584  24.602  0.00  0.00    +0.177 C 
ATOM     33  C   UNL     1       8.753   4.155  23.374  0.00  0.00    +0.180 C 
ATOM     34  C   UNL     1       9.759   3.052  23.751  0.00  0.00    +0.214 C 
BRANCH  32  35
ATOM     35  O   UNL     1       8.790   5.269  25.523  0.00  0.00    -0.386 OA
ATOM     36  H   UNL     1       8.645   4.898  26.412  0.00  0.00    +0.210 HD
ENDBRANCH  32  35
BRANCH  33  37
ATOM     37  O   UNL     1       7.904   3.722  22.299  0.00  0.00    -0.386 OA
ATOM     38  H   UNL     1       7.907   2.747  22.265  0.00  0.00    +0.210 HD
ENDBRANCH  33  37
BRANCH  34  39
ATOM     39  O   UNL     1      10.454   2.609  22.578  0.00  0.00    -0.383 OA
ATOM     40  H   UNL     1      11.044   1.885  22.863  0.00  0.00    +0.210 HD
ENDBRANCH  34  39
BRANCH  31  41
ATOM     41  C   UNL     1       6.585   3.720  26.591  0.00  0.00    +0.190 C 
BRANCH  41  42
ATOM     42  O   UNL     1       7.438   3.581  27.733  0.00  0.00    -0.392 OA
ATOM     43  H   UNL     1       7.313   4.352  28.310  0.00  0.00    +0.210 HD
ENDBRANCH  41  42
ENDBRANCH  31  41
ENDBRANCH  28  29
ENDBRANCH   5  28
TORSDOF 13
ENDMDL
MODEL 6
REMARK VINA RESULT:      -7.3      1.575      1.903
REMARK  Name = 
REMARK  14 active torsions:
REMARK  status: ('A' for Active; 'I' for Inactive)
REMARK    1  A    between atoms: C_1  and  C_2
REMARK    2  A    between atoms: C_2  and  O_4
REMARK    3  A    between atoms: O_4  and  C_5
REMARK    4  A    between atoms: C_7  and  O_39
REMARK    5  A    between atoms: C_12  and  C_17
REMARK    6  A    between atoms: C_13  and  O_16
REMARK    7  A    between atoms: C_19  and  O_24
REMARK    8  A    between atoms: C_20  and  O_23
REMARK    9  A    between atoms: O_24  and  C_25
REMARK   10  A    between atoms: C_27  and  O_38
REMARK   11  A    between atoms: C_28  and  O_37
REMARK   12  A    between atoms: C_30  and  O_36
REMARK   13  A    between atoms: C_32  and  C_34
REMARK   14  A    between atoms: C_34  and  O_35
REMARK                            x       y       z     vdW  Elec       q    Type
REMARK                         _______ _______ _______ _____ _____    ______ ____
ROOT
ATOM      1  C   UNL     1       9.255  -0.227  23.928  0.00  0.00    +0.025 A 
ATOM      2  C   UNL     1      10.644  -0.132  24.099  0.00  0.00    +0.015 A 
ATOM      3  C   UNL     1      11.277   1.108  24.045  0.00  0.00    +0.050 A 
ATOM      4  C   UNL     1      10.524   2.245  23.799  0.00  0.00    +0.159 A 
ATOM      5  C   UNL     1       9.140   2.175  23.600  0.00  0.00    +0.166 A 
ATOM      6  C   UNL     1       8.502   0.935  23.700  0.00  0.00    +0.061 A 
ENDROOT
BRANCH   1  11
ATOM      7  C   UNL     1       6.967  -4.868  26.950  0.00  0.00    +0.139 A 
ATOM      8  C   UNL     1       7.625  -3.668  26.697  0.00  0.00    +0.093 A 
ATOM      9  C   UNL     1       7.759  -3.224  25.377  0.00  0.00    +0.147 A 
ATOM     10  O   UNL     1       8.381  -2.014  25.216  0.00  0.00    -0.451 OA
ATOM     11  C   UNL     1       8.607  -1.549  23.933  0.00  0.00    +0.181 A 
ATOM     12  C   UNL     1       8.248  -2.193  22.807  0.00  0.00    +0.208 A 
ATOM     13  C   UNL     1       7.492  -3.473  22.937  0.00  0.00    +0.238 A 
ATOM     14  O   UNL     1       7.088  -4.057  21.936  0.00  0.00    -0.283 OA
ATOM     15  C   UNL     1       7.272  -3.985  24.310  0.00  0.00    +0.109 A 
ATOM     16  C   UNL     1       6.626  -5.199  24.584  0.00  0.00    +0.135 A 
ATOM     17  C   UNL     1       6.474  -5.642  25.900  0.00  0.00    +0.092 A 
BRANCH  12  18
ATOM     18  O   UNL     1       8.521  -1.736  21.529  0.00  0.00    -0.501 OA
ATOM     19  H   UNL     1       9.413  -2.018  21.272  0.00  0.00    +0.292 HD
ENDBRANCH  12  18
BRANCH  16  20
ATOM     20  O   UNL     1       6.136  -5.977  23.575  0.00  0.00    -0.506 OA
ATOM     21  H   UNL     1       6.856  -6.404  23.087  0.00  0.00    +0.292 HD
ENDBRANCH  16  20
BRANCH   7  22
ATOM     22  O   UNL     1       6.818  -5.421  28.238  0.00  0.00    -0.426 OA
BRANCH  22  24
ATOM     23  C   UNL     1       4.567  -5.331  28.921  0.00  0.00    +0.136 C 
ATOM     24  C   UNL     1       5.721  -6.220  28.561  0.00  0.00    +0.309 C 
ATOM     25  O   UNL     1       5.693  -7.441  28.610  0.00  0.00    -0.251 OA
ENDBRANCH  22  24
ENDBRANCH   7  22
ENDBRANCH   1  11
BRANCH   4  26
ATOM     26  O   UNL     1      11.180   3.444  23.735  0.00  0.00    -0.503 OA
ATOM     27  H   UNL     1      11.996   3.286  23.228  0.00  0.00    +0.292 HD
ENDBRANCH   4  26
BRANCH   5  28
ATOM     28  O   UNL     1       8.552   3.363  23.259  0.00  0.00    -0.457 OA
BRANCH  28  29
ATOM     29  C   UNL     1       8.044   4.209  24.308  0.00  0.00    +0.339 C 
ATOM     30  O   UNL     1       6.699   3.906  24.687  0.00  0.00    -0.331 OA
ATOM     31  C   UNL     1       5.736   4.059  23.629  0.00  0.00    +0.179 C 
ATOM     32  C   UNL     1       5.726   5.508  23.097  0.00  0.00    +0.177 C 
ATOM     33  C   UNL     1       7.145   5.932  22.686  0.00  0.00    +0.180 C 
ATOM     34  C   UNL     1       8.141   5.674  23.831  0.00  0.00    +0.214 C 
BRANCH  32  35
ATOM     35  O   UNL     1       5.242   6.393  24.112  0.00  0.00    -0.386 OA
ATOM     36  H   UNL     1       4.383   6.061  24.427  0.00  0.00    +0.210 HD
ENDBRANCH  32  35
BRANCH  33  37
ATOM     37  O   UNL     1       7.568   5.267  21.485  0.00  0.00    -0.386 OA
ATOM     38  H   UNL     1       7.183   4.372  21.465  0.00  0.00    +0.210 HD
ENDBRANCH  33  37
BRANCH  34  39
ATOM     39  O   UNL     1       9.469   6.001  23.400  0.00  0.00    -0.383 OA
ATOM     40  H   UNL     1      10.034   5.966  24.195  0.00  0.00    +0.210 HD
ENDBRANCH  34  39
BRANCH  31  41
ATOM     41  C   UNL     1       4.358   3.634  24.167  0.00  0.00    +0.190 C 
BRANCH  41  42
ATOM     42  O   UNL     1       4.124   2.233  23.984  0.00  0.00    -0.392 OA
ATOM     43  H   UNL     1       4.424   1.982  23.094  0.00  0.00    +0.210 HD
ENDBRANCH  41  42
ENDBRANCH  31  41
ENDBRANCH  28  29
ENDBRANCH   5  28
TORSDOF 13
ENDMDL
MODEL 7
REMARK VINA RESULT:      -7.3      2.279      9.377
REMARK  Name = 
REMARK  14 active torsions:
REMARK  status: ('A' for Active; 'I' for Inactive)
REMARK    1  A    between atoms: C_1  and  C_2
REMARK    2  A    between atoms: C_2  and  O_4
REMARK    3  A    between atoms: O_4  and  C_5
REMARK    4  A    between atoms: C_7  and  O_39
REMARK    5  A    between atoms: C_12  and  C_17
REMARK    6  A    between atoms: C_13  and  O_16
REMARK    7  A    between atoms: C_19  and  O_24
REMARK    8  A    between atoms: C_20  and  O_23
REMARK    9  A    between atoms: O_24  and  C_25
REMARK   10  A    between atoms: C_27  and  O_38
REMARK   11  A    between atoms: C_28  and  O_37
REMARK   12  A    between atoms: C_30  and  O_36
REMARK   13  A    between atoms: C_32  and  C_34
REMARK   14  A    between atoms: C_34  and  O_35
REMARK                            x       y       z     vdW  Elec       q    Type
REMARK                         _______ _______ _______ _____ _____    ______ ____
ROOT
ATOM      1  C   UNL     1       8.679  -0.048  23.606  0.00  0.00    +0.025 A 
ATOM      2  C   UNL     1       9.903  -0.520  23.109  0.00  0.00    +0.015 A 
ATOM      3  C   UNL     1      10.323  -1.819  23.387  0.00  0.00    +0.050 A 
ATOM      4  C   UNL     1       9.529  -2.635  24.179  0.00  0.00    +0.159 A 
ATOM      5  C   UNL     1       8.316  -2.180  24.708  0.00  0.00    +0.166 A 
ATOM      6  C   UNL     1       7.877  -0.892  24.389  0.00  0.00    +0.061 A 
ENDROOT
BRANCH   1  11
ATOM      7  C   UNL     1       9.879   5.819  23.801  0.00  0.00    +0.139 A 
ATOM      8  C   UNL     1      10.014   4.449  24.004  0.00  0.00    +0.093 A 
ATOM      9  C   UNL     1       9.021   3.584  23.531  0.00  0.00    +0.147 A 
ATOM     10  O   UNL     1       9.248   2.248  23.733  0.00  0.00    -0.451 OA
ATOM     11  C   UNL     1       8.274   1.343  23.351  0.00  0.00    +0.181 A 
ATOM     12  C   UNL     1       7.103   1.672  22.774  0.00  0.00    +0.208 A 
ATOM     13  C   UNL     1       6.850   3.108  22.458  0.00  0.00    +0.238 A 
ATOM     14  O   UNL     1       5.826   3.441  21.872  0.00  0.00    -0.283 OA
ATOM     15  C   UNL     1       7.882   4.080  22.890  0.00  0.00    +0.109 A 
ATOM     16  C   UNL     1       7.757   5.466  22.709  0.00  0.00    +0.135 A 
ATOM     17  C   UNL     1       8.752   6.335  23.164  0.00  0.00    +0.092 A 
BRANCH  12  18
ATOM     18  O   UNL     1       6.119   0.758  22.438  0.00  0.00    -0.501 OA
ATOM     19  H   UNL     1       5.332   0.920  22.983  0.00  0.00    +0.292 HD
ENDBRANCH  12  18
BRANCH  16  20
ATOM     20  O   UNL     1       6.662   5.997  22.090  0.00  0.00    -0.506 OA
ATOM     21  H   UNL     1       6.251   6.681  22.642  0.00  0.00    +0.292 HD
ENDBRANCH  16  20
BRANCH   7  22
ATOM     22  O   UNL     1      10.802   6.773  24.276  0.00  0.00    -0.426 OA
BRANCH  22  24
ATOM     23  C   UNL     1      12.403   7.050  25.979  0.00  0.00    +0.136 C 
ATOM     24  C   UNL     1      12.091   6.407  24.659  0.00  0.00    +0.309 C 
ATOM     25  O   UNL     1      12.880   5.726  24.020  0.00  0.00    -0.251 OA
ENDBRANCH  22  24
ENDBRANCH   7  22
ENDBRANCH   1  11
BRANCH   4  26
ATOM     26  O   UNL     1       9.980  -3.899  24.447  0.00  0.00    -0.503 OA
ATOM     27  H   UNL     1      10.253  -3.903  25.382  0.00  0.00    +0.292 HD
ENDBRANCH   4  26
BRANCH   5  28
ATOM     28  O   UNL     1       7.700  -3.059  25.558  0.00  0.00    -0.457 OA
BRANCH  28  29
ATOM     29  C   UNL     1       6.376  -3.522  25.231  0.00  0.00    +0.339 C 
ATOM     30  O   UNL     1       5.417  -3.293  26.268  0.00  0.00    -0.331 OA
ATOM     31  C   UNL     1       5.715  -3.957  27.508  0.00  0.00    +0.179 C 
ATOM     32  C   UNL     1       5.791  -5.486  27.312  0.00  0.00    +0.177 C 
ATOM     33  C   UNL     1       6.785  -5.829  26.192  0.00  0.00    +0.180 C 
ATOM     34  C   UNL     1       6.461  -5.031  24.916  0.00  0.00    +0.214 C 
BRANCH  32  35
ATOM     35  O   UNL     1       4.498  -5.995  26.969  0.00  0.00    -0.386 OA
ATOM     36  H   UNL     1       3.975  -5.271  26.581  0.00  0.00    +0.210 HD
ENDBRANCH  32  35
BRANCH  33  37
ATOM     37  O   UNL     1       8.143  -5.599  26.603  0.00  0.00    -0.386 OA
ATOM     38  H   UNL     1       8.680  -6.378  26.371  0.00  0.00    +0.210 HD
ENDBRANCH  33  37
BRANCH  34  39
ATOM     39  O   UNL     1       7.447  -5.304  23.911  0.00  0.00    -0.383 OA
ATOM     40  H   UNL     1       6.966  -5.372  23.063  0.00  0.00    +0.210 HD
ENDBRANCH  34  39
BRANCH  31  41
ATOM     41  C   UNL     1       4.640  -3.561  28.536  0.00  0.00    +0.190 C 
BRANCH  41  42
ATOM     42  O   UNL     1       4.619  -4.454  29.655  0.00  0.00    -0.392 OA
ATOM     43  H   UNL     1       5.322  -5.114  29.539  0.00  0.00    +0.210 HD
ENDBRANCH  41  42
ENDBRANCH  31  41
ENDBRANCH  28  29
ENDBRANCH   5  28
TORSDOF 13
ENDMDL
MODEL 8
REMARK VINA RESULT:      -7.2      2.064      9.205
REMARK  Name = 
REMARK  14 active torsions:
REMARK  status: ('A' for Active; 'I' for Inactive)
REMARK    1  A    between atoms: C_1  and  C_2
REMARK    2  A    between atoms: C_2  and  O_4
REMARK    3  A    between atoms: O_4  and  C_5
REMARK    4  A    between atoms: C_7  and  O_39
REMARK    5  A    between atoms: C_12  and  C_17
REMARK    6  A    between atoms: C_13  and  O_16
REMARK    7  A    between atoms: C_19  and  O_24
REMARK    8  A    between atoms: C_20  and  O_23
REMARK    9  A    between atoms: O_24  and  C_25
REMARK   10  A    between atoms: C_27  and  O_38
REMARK   11  A    between atoms: C_28  and  O_37
REMARK   12  A    between atoms: C_30  and  O_36
REMARK   13  A    between atoms: C_32  and  C_34
REMARK   14  A    between atoms: C_34  and  O_35
REMARK                            x       y       z     vdW  Elec       q    Type
REMARK                         _______ _______ _______ _____ _____    ______ ____
ROOT
ATOM      1  C   UNL     1       7.213  -3.215  23.160  0.00  0.00    +0.025 A 
ATOM      2  C   UNL     1       7.168  -3.959  21.971  0.00  0.00    +0.015 A 
ATOM      3  C   UNL     1       6.490  -5.175  21.925  0.00  0.00    +0.050 A 
ATOM      4  C   UNL     1       5.878  -5.655  23.074  0.00  0.00    +0.159 A 
ATOM      5  C   UNL     1       5.929  -4.945  24.278  0.00  0.00    +0.166 A 
ATOM      6  C   UNL     1       6.571  -3.704  24.309  0.00  0.00    +0.061 A 
ENDROOT
BRANCH   1  11
ATOM      7  C   UNL     1       7.479   2.725  22.422  0.00  0.00    +0.139 A 
ATOM      8  C   UNL     1       6.986   1.424  22.394  0.00  0.00    +0.093 A 
ATOM      9  C   UNL     1       7.789   0.375  22.854  0.00  0.00    +0.147 A 
ATOM     10  O   UNL     1       7.215  -0.869  22.832  0.00  0.00    -0.451 OA
ATOM     11  C   UNL     1       7.978  -1.960  23.209  0.00  0.00    +0.181 A 
ATOM     12  C   UNL     1       9.260  -1.897  23.615  0.00  0.00    +0.208 A 
ATOM     13  C   UNL     1       9.898  -0.554  23.735  0.00  0.00    +0.238 A 
ATOM     14  O   UNL     1      11.042  -0.450  24.165  0.00  0.00    -0.283 OA
ATOM     15  C   UNL     1       9.090   0.612  23.307  0.00  0.00    +0.109 A 
ATOM     16  C   UNL     1       9.575   1.928  23.314  0.00  0.00    +0.135 A 
ATOM     17  C   UNL     1       8.774   2.983  22.871  0.00  0.00    +0.092 A 
BRANCH  12  18
ATOM     18  O   UNL     1      10.025  -3.003  23.946  0.00  0.00    -0.501 OA
ATOM     19  H   UNL     1       9.902  -3.208  24.886  0.00  0.00    +0.292 HD
ENDBRANCH  12  18
BRANCH  16  20
ATOM     20  O   UNL     1      10.839   2.208  23.745  0.00  0.00    -0.506 OA
ATOM     21  H   UNL     1      10.965   1.916  24.661  0.00  0.00    +0.292 HD
ENDBRANCH  16  20
BRANCH   7  22
ATOM     22  O   UNL     1       6.765   3.842  21.943  0.00  0.00    -0.426 OA
BRANCH  22  24
ATOM     23  C   UNL     1       7.190   6.157  21.951  0.00  0.00    +0.136 C 
ATOM     24  C   UNL     1       6.623   4.996  22.713  0.00  0.00    +0.309 C 
ATOM     25  O   UNL     1       6.170   5.069  23.846  0.00  0.00    -0.251 OA
ENDBRANCH  22  24
ENDBRANCH   7  22
ENDBRANCH   1  11
BRANCH   4  26
ATOM     26  O   UNL     1       5.236  -6.861  22.998  0.00  0.00    -0.503 OA
ATOM     27  H   UNL     1       5.154  -7.072  22.051  0.00  0.00    +0.292 HD
ENDBRANCH   4  26
BRANCH   5  28
ATOM     28  O   UNL     1       5.375  -5.597  25.348  0.00  0.00    -0.457 OA
BRANCH  28  29
ATOM     29  C   UNL     1       3.984  -5.371  25.649  0.00  0.00    +0.339 C 
ATOM     30  O   UNL     1       3.762  -4.264  26.526  0.00  0.00    -0.331 OA
ATOM     31  C   UNL     1       4.374  -4.399  27.820  0.00  0.00    +0.179 C 
ATOM     32  C   UNL     1       3.846  -5.651  28.552  0.00  0.00    +0.177 C 
ATOM     33  C   UNL     1       4.023  -6.897  27.670  0.00  0.00    +0.180 C 
ATOM     34  C   UNL     1       3.415  -6.663  26.275  0.00  0.00    +0.214 C 
BRANCH  32  35
ATOM     35  O   UNL     1       2.459  -5.483  28.861  0.00  0.00    -0.386 OA
ATOM     36  H   UNL     1       2.386  -5.092  29.750  0.00  0.00    +0.210 HD
ENDBRANCH  32  35
BRANCH  33  37
ATOM     37  O   UNL     1       5.404  -7.278  27.564  0.00  0.00    -0.386 OA
ATOM     38  H   UNL     1       5.524  -7.815  26.760  0.00  0.00    +0.210 HD
ENDBRANCH  33  37
BRANCH  34  39
ATOM     39  O   UNL     1       3.661  -7.804  25.442  0.00  0.00    -0.383 OA
ATOM     40  H   UNL     1       4.148  -7.477  24.662  0.00  0.00    +0.210 HD
ENDBRANCH  34  39
BRANCH  31  41
ATOM     41  C   UNL     1       4.105  -3.110  28.617  0.00  0.00    +0.190 C 
BRANCH  41  42
ATOM     42  O   UNL     1       4.046  -3.358  30.026  0.00  0.00    -0.392 OA
ATOM     43  H   UNL     1       4.172  -2.517  30.495  0.00  0.00    +0.210 HD
ENDBRANCH  41  42
ENDBRANCH  31  41
ENDBRANCH  28  29
ENDBRANCH   5  28
TORSDOF 13
ENDMDL
MODEL 9
REMARK VINA RESULT:      -7.1      2.037      4.340
REMARK  Name = 
REMARK  14 active torsions:
REMARK  status: ('A' for Active; 'I' for Inactive)
REMARK    1  A    between atoms: C_1  and  C_2
REMARK    2  A    between atoms: C_2  and  O_4
REMARK    3  A    between atoms: O_4  and  C_5
REMARK    4  A    between atoms: C_7  and  O_39
REMARK    5  A    between atoms: C_12  and  C_17
REMARK    6  A    between atoms: C_13  and  O_16
REMARK    7  A    between atoms: C_19  and  O_24
REMARK    8  A    between atoms: C_20  and  O_23
REMARK    9  A    between atoms: O_24  and  C_25
REMARK   10  A    between atoms: C_27  and  O_38
REMARK   11  A    between atoms: C_28  and  O_37
REMARK   12  A    between atoms: C_30  and  O_36
REMARK   13  A    between atoms: C_32  and  C_34
REMARK   14  A    between atoms: C_34  and  O_35
REMARK                            x       y       z     vdW  Elec       q    Type
REMARK                         _______ _______ _______ _____ _____    ______ ____
ROOT
ATOM      1  C   UNL     1       8.259  -2.533  24.513  0.00  0.00    +0.025 A 
ATOM      2  C   UNL     1       9.511  -2.826  23.952  0.00  0.00    +0.015 A 
ATOM      3  C   UNL     1      10.349  -1.799  23.523  0.00  0.00    +0.050 A 
ATOM      4  C   UNL     1       9.923  -0.483  23.635  0.00  0.00    +0.159 A 
ATOM      5  C   UNL     1       8.669  -0.166  24.168  0.00  0.00    +0.166 A 
ATOM      6  C   UNL     1       7.850  -1.196  24.639  0.00  0.00    +0.061 A 
ENDROOT
BRANCH   1  11
ATOM      7  C   UNL     1       3.549  -6.054  23.364  0.00  0.00    +0.139 A 
ATOM      8  C   UNL     1       4.474  -5.023  23.233  0.00  0.00    +0.093 A 
ATOM      9  C   UNL     1       5.484  -4.881  24.191  0.00  0.00    +0.147 A 
ATOM     10  O   UNL     1       6.380  -3.868  23.967  0.00  0.00    -0.451 OA
ATOM     11  C   UNL     1       7.362  -3.630  24.911  0.00  0.00    +0.181 A 
ATOM     12  C   UNL     1       7.522  -4.332  26.048  0.00  0.00    +0.208 A 
ATOM     13  C   UNL     1       6.623  -5.497  26.291  0.00  0.00    +0.238 A 
ATOM     14  O   UNL     1       6.780  -6.203  27.282  0.00  0.00    -0.283 OA
ATOM     15  C   UNL     1       5.554  -5.737  25.293  0.00  0.00    +0.109 A 
ATOM     16  C   UNL     1       4.603  -6.761  25.416  0.00  0.00    +0.135 A 
ATOM     17  C   UNL     1       3.601  -6.920  24.456  0.00  0.00    +0.092 A 
BRANCH  12  18
ATOM     18  O   UNL     1       8.483  -4.052  27.006  0.00  0.00    -0.501 OA
ATOM     19  H   UNL     1       9.305  -4.515  26.779  0.00  0.00    +0.292 HD
ENDBRANCH  12  18
BRANCH  16  20
ATOM     20  O   UNL     1       4.630  -7.621  26.476  0.00  0.00    -0.506 OA
ATOM     21  H   UNL     1       4.942  -7.173  27.277  0.00  0.00    +0.292 HD
ENDBRANCH  16  20
BRANCH   7  22
ATOM     22  O   UNL     1       2.472  -6.255  22.477  0.00  0.00    -0.426 OA
BRANCH  22  24
ATOM     23  C   UNL     1       0.721  -4.940  23.340  0.00  0.00    +0.136 C 
ATOM     24  C   UNL     1       1.157  -6.318  22.937  0.00  0.00    +0.309 C 
ATOM     25  O   UNL     1       0.471  -7.322  23.058  0.00  0.00    -0.251 OA
ENDBRANCH  22  24
ENDBRANCH   7  22
ENDBRANCH   1  11
BRANCH   4  26
ATOM     26  O   UNL     1      10.763   0.500  23.188  0.00  0.00    -0.503 OA
ATOM     27  H   UNL     1      10.840   1.148  23.911  0.00  0.00    +0.292 HD
ENDBRANCH   4  26
BRANCH   5  28
ATOM     28  O   UNL     1       8.346   1.164  24.113  0.00  0.00    -0.457 OA
BRANCH  28  29
ATOM     29  C   UNL     1       8.432   1.842  22.845  0.00  0.00    +0.339 C 
ATOM     30  O   UNL     1       9.416   2.880  22.817  0.00  0.00    -0.331 OA
ATOM     31  C   UNL     1       9.185   3.942  23.759  0.00  0.00    +0.179 C 
ATOM     32  C   UNL     1       7.823   4.622  23.499  0.00  0.00    +0.177 C 
ATOM     33  C   UNL     1       6.700   3.574  23.487  0.00  0.00    +0.180 C 
ATOM     34  C   UNL     1       7.041   2.426  22.519  0.00  0.00    +0.214 C 
BRANCH  32  35
ATOM     35  O   UNL     1       7.852   5.300  22.239  0.00  0.00    -0.386 OA
ATOM     36  H   UNL     1       7.165   4.916  21.666  0.00  0.00    +0.210 HD
ENDBRANCH  32  35
BRANCH  33  37
ATOM     37  O   UNL     1       6.437   3.065  24.805  0.00  0.00    -0.386 OA
ATOM     38  H   UNL     1       7.168   3.322  25.395  0.00  0.00    +0.210 HD
ENDBRANCH  33  37
BRANCH  34  39
ATOM     39  O   UNL     1       6.020   1.421  22.582  0.00  0.00    -0.383 OA
ATOM     40  H   UNL     1       6.349   0.731  23.190  0.00  0.00    +0.210 HD
ENDBRANCH  34  39
BRANCH  31  41
ATOM     41  C   UNL     1      10.354   4.938  23.658  0.00  0.00    +0.190 C 
BRANCH  41  42
ATOM     42  O   UNL     1      11.477   4.373  22.974  0.00  0.00    -0.392 OA
ATOM     43  H   UNL     1      11.925   3.752  23.572  0.00  0.00    +0.210 HD
ENDBRANCH  41  42
ENDBRANCH  31  41
ENDBRANCH  28  29
ENDBRANCH   5  28
TORSDOF 13
ENDMDL
