MODEL 1
REMARK VINA RESULT:      -7.2      0.000      0.000
REMARK  Name = 
REMARK  17 active torsions:
REMARK  status: ('A' for Active; 'I' for Inactive)
REMARK    1  A    between atoms: C_1  and  C_2
REMARK    2  A    between atoms: C_4  and  O_53
REMARK    3  A    between atoms: C_6  and  O_52
REMARK    4  A    between atoms: C_8  and  O_51
REMARK    5  A    between atoms: C_10  and  O_13
REMARK    6  A    between atoms: O_13  and  C_14
REMARK    7  A    between atoms: C_16  and  C_49
REMARK    8  A    between atoms: C_19  and  O_27
REMARK    9  A    between atoms: C_21  and  O_26
REMARK   10  A    between atoms: C_23  and  O_25
REMARK   11  A    between atoms: O_27  and  C_28
REMARK   12  A    between atoms: C_29  and  C_41
REMARK   13  A    between atoms: C_33  and  O_40
REMARK   14  A    between atoms: C_35  and  O_39
REMARK   15  A    between atoms: C_43  and  O_48
REMARK   16  A    between atoms: C_44  and  O_47
REMARK   17  A    between atoms: C_49  and  O_50
REMARK                            x       y       z     vdW  Elec       q    Type
REMARK                         _______ _______ _______ _____ _____    ______ ____
ROOT
ATOM      1  C   UNL     1       7.092  -5.642  24.278  0.00  0.00    +0.184 C 
ATOM      2  C   UNL     1       8.286  -5.717  25.264  0.00  0.00    +0.180 C 
ATOM      3  C   UNL     1       9.281  -4.524  25.257  0.00  0.00    +0.214 C 
ATOM      4  C   UNL     1       8.975  -3.323  24.304  0.00  0.00    +0.340 C 
ATOM      5  O   UNL     1       7.826  -3.508  23.459  0.00  0.00    -0.331 OA
ATOM      6  C   UNL     1       7.619  -4.867  23.054  0.00  0.00    +0.179 C 
ENDROOT
BRANCH   3   7
ATOM      7  O   UNL     1      10.568  -5.075  24.860  0.00  0.00    -0.383 OA
ATOM      8  H   UNL     1      11.219  -4.356  24.980  0.00  0.00    +0.210 HD
ENDBRANCH   3   7
BRANCH   2   9
ATOM      9  O   UNL     1       7.827  -5.969  26.604  0.00  0.00    -0.386 OA
ATOM     10  H   UNL     1       7.140  -6.659  26.518  0.00  0.00    +0.210 HD
ENDBRANCH   2   9
BRANCH   6  11
ATOM     11  C   UNL     1       6.759  -4.874  21.782  0.00  0.00    +0.190 C 
BRANCH  11  12
ATOM     12  O   UNL     1       5.478  -4.301  22.059  0.00  0.00    -0.392 OA
ATOM     13  H   UNL     1       5.575  -3.853  22.921  0.00  0.00    +0.210 HD
ENDBRANCH  11  12
ENDBRANCH   6  11
BRANCH   4  14
ATOM     14  O   UNL     1       8.763  -2.139  25.110  0.00  0.00    -0.453 OA
BRANCH  14  15
ATOM     15  C   UNL     1       8.057  -1.097  24.518  0.00  0.00    +0.214 A 
ATOM     16  C   UNL     1       8.806  -0.209  23.555  0.00  0.00    +0.238 A 
ATOM     17  O   UNL     1       9.891  -0.573  23.115  0.00  0.00    -0.283 OA
ATOM     18  C   UNL     1       8.150   1.068  23.147  0.00  0.00    +0.109 A 
ATOM     19  C   UNL     1       6.816   1.235  23.495  0.00  0.00    +0.147 A 
ATOM     20  C   UNL     1       6.068   2.339  23.072  0.00  0.00    +0.092 A 
ATOM     21  C   UNL     1       6.681   3.322  22.309  0.00  0.00    +0.124 A 
ATOM     22  C   UNL     1       8.026   3.220  21.995  0.00  0.00    +0.091 A 
ATOM     23  O   UNL     1       6.137   0.342  24.273  0.00  0.00    -0.451 OA
ATOM     24  C   UNL     1       8.764   2.102  22.411  0.00  0.00    +0.135 A 
ATOM     25  C   UNL     1       6.800  -0.733  24.856  0.00  0.00    +0.181 A 
BRANCH  25  26
ATOM     26  C   UNL     1       5.891  -1.435  25.817  0.00  0.00    +0.025 A 
ATOM     27  C   UNL     1       6.313  -1.946  27.054  0.00  0.00    +0.015 A 
ATOM     28  C   UNL     1       5.474  -2.741  27.843  0.00  0.00    +0.050 A 
ATOM     29  C   UNL     1       4.173  -2.969  27.428  0.00  0.00    +0.158 A 
ATOM     30  C   UNL     1       3.682  -2.354  26.288  0.00  0.00    +0.159 A 
ATOM     31  C   UNL     1       4.527  -1.599  25.482  0.00  0.00    +0.060 A 
BRANCH  30  32
ATOM     32  O   UNL     1       2.361  -2.523  25.985  0.00  0.00    -0.503 OA
ATOM     33  H   UNL     1       2.265  -2.481  25.017  0.00  0.00    +0.292 HD
ENDBRANCH  30  32
BRANCH  29  34
ATOM     34  O   UNL     1       3.377  -3.809  28.149  0.00  0.00    -0.503 OA
ATOM     35  H   UNL     1       3.989  -4.489  28.495  0.00  0.00    +0.292 HD
ENDBRANCH  29  34
ENDBRANCH  25  26
BRANCH  24  36
ATOM     36  O   UNL     1      10.094   2.058  22.109  0.00  0.00    -0.506 OA
ATOM     37  H   UNL     1      10.217   1.988  21.150  0.00  0.00    +0.292 HD
ENDBRANCH  24  36
BRANCH  21  38
ATOM     38  O   UNL     1       5.982   4.406  21.860  0.00  0.00    -0.507 OA
ATOM     39  H   UNL     1       6.558   5.179  21.843  0.00  0.00    +0.292 HD
ENDBRANCH  21  38
ENDBRANCH  14  15
ENDBRANCH   4  14
BRANCH   1  40
ATOM     40  O   UNL     1       5.965  -5.080  24.999  0.00  0.00    -0.340 OA
BRANCH  40  44
ATOM     41  C   UNL     1       1.525  -4.876  23.360  0.00  0.00    +0.041 C 
ATOM     42  C   UNL     1       2.504  -5.743  24.140  0.00  0.00    +0.149 C 
ATOM     43  O   UNL     1       3.684  -4.972  24.453  0.00  0.00    -0.343 OA
ATOM     44  C   UNL     1       4.732  -5.814  24.985  0.00  0.00    +0.282 C 
ATOM     45  C   UNL     1       4.264  -6.386  26.359  0.00  0.00    +0.201 C 
ATOM     46  C   UNL     1       2.908  -7.104  26.213  0.00  0.00    +0.179 C 
ATOM     47  C   UNL     1       1.886  -6.264  25.446  0.00  0.00    +0.174 C 
BRANCH  47  48
ATOM     48  O   UNL     1       1.476  -5.170  26.274  0.00  0.00    -0.387 OA
ATOM     49  H   UNL     1       1.500  -4.360  25.727  0.00  0.00    +0.210 HD
ENDBRANCH  47  48
BRANCH  46  50
ATOM     50  O   UNL     1       3.128  -8.395  25.610  0.00  0.00    -0.386 OA
ATOM     51  H   UNL     1       3.959  -8.404  25.105  0.00  0.00    +0.210 HD
ENDBRANCH  46  50
BRANCH  45  52
ATOM     52  O   UNL     1       5.183  -7.332  26.924  0.00  0.00    -0.384 OA
ATOM     53  H   UNL     1       5.833  -6.819  27.451  0.00  0.00    +0.210 HD
ENDBRANCH  45  52
ENDBRANCH  40  44
ENDBRANCH   1  40
TORSDOF 16
ENDMDL
MODEL 2
REMARK VINA RESULT:      -6.8      1.601      4.907
REMARK  Name = 
REMARK  17 active torsions:
REMARK  status: ('A' for Active; 'I' for Inactive)
REMARK    1  A    between atoms: C_1  and  C_2
REMARK    2  A    between atoms: C_4  and  O_53
REMARK    3  A    between atoms: C_6  and  O_52
REMARK    4  A    between atoms: C_8  and  O_51
REMARK    5  A    between atoms: C_10  and  O_13
REMARK    6  A    between atoms: O_13  and  C_14
REMARK    7  A    between atoms: C_16  and  C_49
REMARK    8  A    between atoms: C_19  and  O_27
REMARK    9  A    between atoms: C_21  and  O_26
REMARK   10  A    between atoms: C_23  and  O_25
REMARK   11  A    between atoms: O_27  and  C_28
REMARK   12  A    between atoms: C_29  and  C_41
REMARK   13  A    between atoms: C_33  and  O_40
REMARK   14  A    between atoms: C_35  and  O_39
REMARK   15  A    between atoms: C_43  and  O_48
REMARK   16  A    between atoms: C_44  and  O_47
REMARK   17  A    between atoms: C_49  and  O_50
REMARK                            x       y       z     vdW  Elec       q    Type
REMARK                         _______ _______ _______ _____ _____    ______ ____
ROOT
ATOM      1  C   UNL     1       6.605  -5.005  24.113  0.00  0.00    +0.184 C 
ATOM      2  C   UNL     1       7.691  -5.629  25.027  0.00  0.00    +0.180 C 
ATOM      3  C   UNL     1       8.972  -4.786  25.273  0.00  0.00    +0.214 C 
ATOM      4  C   UNL     1       9.044  -3.362  24.633  0.00  0.00    +0.340 C 
ATOM      5  O   UNL     1       7.925  -3.026  23.795  0.00  0.00    -0.331 OA
ATOM      6  C   UNL     1       7.373  -4.145  23.090  0.00  0.00    +0.179 C 
ENDROOT
BRANCH   3   7
ATOM      7  O   UNL     1      10.076  -5.562  24.729  0.00  0.00    -0.383 OA
ATOM      8  H   UNL     1      10.607  -5.853  25.496  0.00  0.00    +0.210 HD
ENDBRANCH   3   7
BRANCH   2   9
ATOM      9  O   UNL     1       7.125  -6.046  26.281  0.00  0.00    -0.386 OA
ATOM     10  H   UNL     1       7.815  -6.591  26.710  0.00  0.00    +0.210 HD
ENDBRANCH   2   9
BRANCH   6  11
ATOM     11  C   UNL     1       6.597  -3.624  21.872  0.00  0.00    +0.190 C 
BRANCH  11  12
ATOM     12  O   UNL     1       5.562  -2.734  22.300  0.00  0.00    -0.392 OA
ATOM     13  H   UNL     1       5.922  -2.276  23.084  0.00  0.00    +0.210 HD
ENDBRANCH  11  12
ENDBRANCH   6  11
BRANCH   4  14
ATOM     14  O   UNL     1       9.129  -2.383  25.695  0.00  0.00    -0.453 OA
BRANCH  14  15
ATOM     15  C   UNL     1       7.999  -1.606  25.922  0.00  0.00    +0.214 A 
ATOM     16  C   UNL     1       6.920  -2.187  26.802  0.00  0.00    +0.238 A 
ATOM     17  O   UNL     1       7.169  -3.166  27.498  0.00  0.00    -0.283 OA
ATOM     18  C   UNL     1       5.596  -1.497  26.814  0.00  0.00    +0.109 A 
ATOM     19  C   UNL     1       5.526  -0.253  26.203  0.00  0.00    +0.147 A 
ATOM     20  C   UNL     1       4.370   0.535  26.246  0.00  0.00    +0.092 A 
ATOM     21  C   UNL     1       3.241   0.047  26.890  0.00  0.00    +0.124 A 
ATOM     22  C   UNL     1       3.256  -1.215  27.458  0.00  0.00    +0.091 A 
ATOM     23  O   UNL     1       6.570   0.294  25.513  0.00  0.00    -0.451 OA
ATOM     24  C   UNL     1       4.424  -1.992  27.422  0.00  0.00    +0.135 A 
ATOM     25  C   UNL     1       7.732  -0.439  25.294  0.00  0.00    +0.181 A 
BRANCH  25  26
ATOM     26  C   UNL     1       8.630   0.296  24.348  0.00  0.00    +0.025 A 
ATOM     27  C   UNL     1       9.847   0.881  24.729  0.00  0.00    +0.015 A 
ATOM     28  C   UNL     1      10.570   1.701  23.855  0.00  0.00    +0.050 A 
ATOM     29  C   UNL     1      10.111   1.881  22.562  0.00  0.00    +0.158 A 
ATOM     30  C   UNL     1       8.995   1.195  22.111  0.00  0.00    +0.159 A 
ATOM     31  C   UNL     1       8.253   0.415  22.990  0.00  0.00    +0.060 A 
BRANCH  30  32
ATOM     32  O   UNL     1       8.651   1.322  20.796  0.00  0.00    -0.503 OA
ATOM     33  H   UNL     1       7.682   1.401  20.743  0.00  0.00    +0.292 HD
ENDBRANCH  30  32
BRANCH  29  34
ATOM     34  O   UNL     1      10.765   2.743  21.731  0.00  0.00    -0.503 OA
ATOM     35  H   UNL     1      10.258   2.708  20.895  0.00  0.00    +0.292 HD
ENDBRANCH  29  34
ENDBRANCH  25  26
BRANCH  24  36
ATOM     36  O   UNL     1       4.384  -3.243  27.963  0.00  0.00    -0.506 OA
ATOM     37  H   UNL     1       5.223  -3.444  28.405  0.00  0.00    +0.292 HD
ENDBRANCH  24  36
BRANCH  21  38
ATOM     38  O   UNL     1       2.099   0.792  26.973  0.00  0.00    -0.507 OA
ATOM     39  H   UNL     1       2.313   1.726  26.869  0.00  0.00    +0.292 HD
ENDBRANCH  21  38
ENDBRANCH  14  15
ENDBRANCH   4  14
BRANCH   1  40
ATOM     40  O   UNL     1       5.643  -4.337  24.972  0.00  0.00    -0.340 OA
BRANCH  40  44
ATOM     41  C   UNL     1       2.976  -6.847  27.976  0.00  0.00    +0.041 C 
ATOM     42  C   UNL     1       2.976  -6.162  26.617  0.00  0.00    +0.149 C 
ATOM     43  O   UNL     1       4.325  -5.783  26.270  0.00  0.00    -0.343 OA
ATOM     44  C   UNL     1       4.343  -4.928  25.103  0.00  0.00    +0.282 C 
ATOM     45  C   UNL     1       3.841  -5.749  23.875  0.00  0.00    +0.201 C 
ATOM     46  C   UNL     1       2.460  -6.368  24.166  0.00  0.00    +0.179 C 
ATOM     47  C   UNL     1       2.416  -7.080  25.518  0.00  0.00    +0.174 C 
BRANCH  47  48
ATOM     48  O   UNL     1       3.190  -8.281  25.432  0.00  0.00    -0.387 OA
ATOM     49  H   UNL     1       4.004  -8.148  25.956  0.00  0.00    +0.210 HD
ENDBRANCH  47  48
BRANCH  46  50
ATOM     50  O   UNL     1       1.454  -5.341  24.048  0.00  0.00    -0.386 OA
ATOM     51  H   UNL     1       1.441  -4.972  23.149  0.00  0.00    +0.210 HD
ENDBRANCH  46  50
BRANCH  45  52
ATOM     52  O   UNL     1       3.706  -4.962  22.682  0.00  0.00    -0.384 OA
ATOM     53  H   UNL     1       3.688  -5.589  21.927  0.00  0.00    +0.210 HD
ENDBRANCH  45  52
ENDBRANCH  40  44
ENDBRANCH   1  40
TORSDOF 16
ENDMDL
MODEL 3
REMARK VINA RESULT:      -6.7      2.468      8.776
REMARK  Name = 
REMARK  17 active torsions:
REMARK  status: ('A' for Active; 'I' for Inactive)
REMARK    1  A    between atoms: C_1  and  C_2
REMARK    2  A    between atoms: C_4  and  O_53
REMARK    3  A    between atoms: C_6  and  O_52
REMARK    4  A    between atoms: C_8  and  O_51
REMARK    5  A    between atoms: C_10  and  O_13
REMARK    6  A    between atoms: O_13  and  C_14
REMARK    7  A    between atoms: C_16  and  C_49
REMARK    8  A    between atoms: C_19  and  O_27
REMARK    9  A    between atoms: C_21  and  O_26
REMARK   10  A    between atoms: C_23  and  O_25
REMARK   11  A    between atoms: O_27  and  C_28
REMARK   12  A    between atoms: C_29  and  C_41
REMARK   13  A    between atoms: C_33  and  O_40
REMARK   14  A    between atoms: C_35  and  O_39
REMARK   15  A    between atoms: C_43  and  O_48
REMARK   16  A    between atoms: C_44  and  O_47
REMARK   17  A    between atoms: C_49  and  O_50
REMARK                            x       y       z     vdW  Elec       q    Type
REMARK                         _______ _______ _______ _____ _____    ______ ____
ROOT
ATOM      1  C   UNL     1       9.776   1.288  22.866  0.00  0.00    +0.184 C 
ATOM      2  C   UNL     1       9.370   0.588  21.544  0.00  0.00    +0.180 C 
ATOM      3  C   UNL     1       8.632  -0.773  21.666  0.00  0.00    +0.214 C 
ATOM      4  C   UNL     1       8.309  -1.303  23.101  0.00  0.00    +0.340 C 
ATOM      5  O   UNL     1       8.824  -0.489  24.169  0.00  0.00    -0.331 OA
ATOM      6  C   UNL     1      10.070   0.148  23.861  0.00  0.00    +0.179 C 
ENDROOT
BRANCH   3   7
ATOM      7  O   UNL     1       9.492  -1.756  21.025  0.00  0.00    -0.383 OA
ATOM      8  H   UNL     1       8.900  -2.455  20.686  0.00  0.00    +0.210 HD
ENDBRANCH   3   7
BRANCH   2   9
ATOM      9  O   UNL     1       8.621   1.482  20.702  0.00  0.00    -0.386 OA
ATOM     10  H   UNL     1       8.055   1.999  21.309  0.00  0.00    +0.210 HD
ENDBRANCH   2   9
BRANCH   6  11
ATOM     11  C   UNL     1      10.773   0.513  25.177  0.00  0.00    +0.190 C 
BRANCH  11  12
ATOM     12  O   UNL     1      10.022   0.009  26.284  0.00  0.00    -0.392 OA
ATOM     13  H   UNL     1       9.682   0.799  26.748  0.00  0.00    +0.210 HD
ENDBRANCH  11  12
ENDBRANCH   6  11
BRANCH   4  14
ATOM     14  O   UNL     1       6.871  -1.389  23.246  0.00  0.00    -0.453 OA
BRANCH  14  15
ATOM     15  C   UNL     1       6.382  -2.438  24.017  0.00  0.00    +0.214 A 
ATOM     16  C   UNL     1       6.254  -3.787  23.354  0.00  0.00    +0.238 A 
ATOM     17  O   UNL     1       6.822  -3.993  22.286  0.00  0.00    -0.283 OA
ATOM     18  C   UNL     1       5.467  -4.834  24.071  0.00  0.00    +0.109 A 
ATOM     19  C   UNL     1       5.111  -4.568  25.386  0.00  0.00    +0.147 A 
ATOM     20  C   UNL     1       4.469  -5.516  26.192  0.00  0.00    +0.092 A 
ATOM     21  C   UNL     1       4.145  -6.753  25.654  0.00  0.00    +0.124 A 
ATOM     22  C   UNL     1       4.429  -7.031  24.328  0.00  0.00    +0.091 A 
ATOM     23  O   UNL     1       5.353  -3.368  25.991  0.00  0.00    -0.451 OA
ATOM     24  C   UNL     1       5.086  -6.080  23.533  0.00  0.00    +0.135 A 
ATOM     25  C   UNL     1       5.874  -2.303  25.262  0.00  0.00    +0.181 A 
BRANCH  25  26
ATOM     26  C   UNL     1       5.852  -1.056  26.091  0.00  0.00    +0.025 A 
ATOM     27  C   UNL     1       4.821  -0.106  26.037  0.00  0.00    +0.015 A 
ATOM     28  C   UNL     1       4.923   1.123  26.700  0.00  0.00    +0.050 A 
ATOM     29  C   UNL     1       6.034   1.377  27.485  0.00  0.00    +0.158 A 
ATOM     30  C   UNL     1       6.995   0.399  27.679  0.00  0.00    +0.159 A 
ATOM     31  C   UNL     1       6.917  -0.804  26.987  0.00  0.00    +0.060 A 
BRANCH  30  32
ATOM     32  O   UNL     1       8.013   0.662  28.551  0.00  0.00    -0.503 OA
ATOM     33  H   UNL     1       8.854   0.575  28.070  0.00  0.00    +0.292 HD
ENDBRANCH  30  32
BRANCH  29  34
ATOM     34  O   UNL     1       6.178   2.602  28.067  0.00  0.00    -0.503 OA
ATOM     35  H   UNL     1       5.456   3.141  27.685  0.00  0.00    +0.292 HD
ENDBRANCH  29  34
ENDBRANCH  25  26
BRANCH  24  36
ATOM     36  O   UNL     1       5.316  -6.382  22.223  0.00  0.00    -0.506 OA
ATOM     37  H   UNL     1       5.316  -7.343  22.096  0.00  0.00    +0.292 HD
ENDBRANCH  24  36
BRANCH  21  38
ATOM     38  O   UNL     1       3.537  -7.714  26.411  0.00  0.00    -0.507 OA
ATOM     39  H   UNL     1       3.475  -7.415  27.325  0.00  0.00    +0.292 HD
ENDBRANCH  21  38
ENDBRANCH  14  15
ENDBRANCH   4  14
BRANCH   1  40
ATOM     40  O   UNL     1       8.721   2.226  23.206  0.00  0.00    -0.340 OA
BRANCH  40  44
ATOM     41  C   UNL     1      12.109   5.471  23.863  0.00  0.00    +0.041 C 
ATOM     42  C   UNL     1      10.698   5.264  23.330  0.00  0.00    +0.149 C 
ATOM     43  O   UNL     1      10.228   3.954  23.714  0.00  0.00    -0.343 OA
ATOM     44  C   UNL     1       8.992   3.624  23.037  0.00  0.00    +0.282 C 
ATOM     45  C   UNL     1       7.878   4.599  23.529  0.00  0.00    +0.201 C 
ATOM     46  C   UNL     1       8.316   6.064  23.337  0.00  0.00    +0.179 C 
ATOM     47  C   UNL     1       9.725   6.323  23.870  0.00  0.00    +0.174 C 
BRANCH  47  48
ATOM     48  O   UNL     1       9.691   6.282  25.301  0.00  0.00    -0.387 OA
ATOM     49  H   UNL     1      10.581   6.520  25.627  0.00  0.00    +0.210 HD
ENDBRANCH  47  48
BRANCH  46  50
ATOM     50  O   UNL     1       8.178   6.411  21.944  0.00  0.00    -0.386 OA
ATOM     51  H   UNL     1       8.081   5.614  21.397  0.00  0.00    +0.210 HD
ENDBRANCH  46  50
BRANCH  45  52
ATOM     52  O   UNL     1       6.633   4.437  22.834  0.00  0.00    -0.384 OA
ATOM     53  H   UNL     1       6.732   4.881  21.965  0.00  0.00    +0.210 HD
ENDBRANCH  45  52
ENDBRANCH  40  44
ENDBRANCH   1  40
TORSDOF 16
ENDMDL
MODEL 4
REMARK VINA RESULT:      -6.6      2.602      8.238
REMARK  Name = 
REMARK  17 active torsions:
REMARK  status: ('A' for Active; 'I' for Inactive)
REMARK    1  A    between atoms: C_1  and  C_2
REMARK    2  A    between atoms: C_4  and  O_53
REMARK    3  A    between atoms: C_6  and  O_52
REMARK    4  A    between atoms: C_8  and  O_51
REMARK    5  A    between atoms: C_10  and  O_13
REMARK    6  A    between atoms: O_13  and  C_14
REMARK    7  A    between atoms: C_16  and  C_49
REMARK    8  A    between atoms: C_19  and  O_27
REMARK    9  A    between atoms: C_21  and  O_26
REMARK   10  A    between atoms: C_23  and  O_25
REMARK   11  A    between atoms: O_27  and  C_28
REMARK   12  A    between atoms: C_29  and  C_41
REMARK   13  A    between atoms: C_33  and  O_40
REMARK   14  A    between atoms: C_35  and  O_39
REMARK   15  A    between atoms: C_43  and  O_48
REMARK   16  A    between atoms: C_44  and  O_47
REMARK   17  A    between atoms: C_49  and  O_50
REMARK                            x       y       z     vdW  Elec       q    Type
REMARK                         _______ _______ _______ _____ _____    ______ ____
ROOT
ATOM      1  C   UNL     1       8.549   1.919  23.056  0.00  0.00    +0.184 C 
ATOM      2  C   UNL     1       7.874   0.662  22.452  0.00  0.00    +0.180 C 
ATOM      3  C   UNL     1       8.420  -0.719  22.910  0.00  0.00    +0.214 C 
ATOM      4  C   UNL     1       9.562  -0.735  23.977  0.00  0.00    +0.340 C 
ATOM      5  O   UNL     1      10.047   0.565  24.354  0.00  0.00    -0.331 OA
ATOM      6  C   UNL     1      10.021   1.524  23.289  0.00  0.00    +0.179 C 
ENDROOT
BRANCH   3   7
ATOM      7  O   UNL     1       8.937  -1.364  21.712  0.00  0.00    -0.383 OA
ATOM      8  H   UNL     1       8.667  -0.799  20.962  0.00  0.00    +0.210 HD
ENDBRANCH   3   7
BRANCH   2   9
ATOM      9  O   UNL     1       6.448   0.712  22.631  0.00  0.00    -0.386 OA
ATOM     10  H   UNL     1       6.311   0.955  23.568  0.00  0.00    +0.210 HD
ENDBRANCH   2   9
BRANCH   6  11
ATOM     11  C   UNL     1      11.017   2.645  23.614  0.00  0.00    +0.190 C 
BRANCH  11  12
ATOM     12  O   UNL     1      10.621   3.852  22.958  0.00  0.00    -0.392 OA
ATOM     13  H   UNL     1      10.597   3.634  22.006  0.00  0.00    +0.210 HD
ENDBRANCH  11  12
ENDBRANCH   6  11
BRANCH   4  14
ATOM     14  O   UNL     1       9.072  -1.402  25.164  0.00  0.00    -0.453 OA
BRANCH  14  15
ATOM     15  C   UNL     1       7.977  -2.243  25.003  0.00  0.00    +0.214 A 
ATOM     16  C   UNL     1       8.201  -3.546  24.277  0.00  0.00    +0.238 A 
ATOM     17  O   UNL     1       9.345  -3.952  24.101  0.00  0.00    -0.283 OA
ATOM     18  C   UNL     1       6.993  -4.310  23.846  0.00  0.00    +0.109 A 
ATOM     19  C   UNL     1       5.767  -3.888  24.342  0.00  0.00    +0.147 A 
ATOM     20  C   UNL     1       4.582  -4.590  24.097  0.00  0.00    +0.092 A 
ATOM     21  C   UNL     1       4.620  -5.728  23.303  0.00  0.00    +0.124 A 
ATOM     22  C   UNL     1       5.815  -6.143  22.740  0.00  0.00    +0.091 A 
ATOM     23  O   UNL     1       5.623  -2.762  25.100  0.00  0.00    -0.451 OA
ATOM     24  C   UNL     1       7.000  -5.441  23.004  0.00  0.00    +0.135 A 
ATOM     25  C   UNL     1       6.703  -1.912  25.314  0.00  0.00    +0.181 A 
BRANCH  25  26
ATOM     26  C   UNL     1       6.243  -0.658  25.991  0.00  0.00    +0.025 A 
ATOM     27  C   UNL     1       5.071   0.028  25.642  0.00  0.00    +0.015 A 
ATOM     28  C   UNL     1       4.768   1.283  26.184  0.00  0.00    +0.050 A 
ATOM     29  C   UNL     1       5.607   1.826  27.141  0.00  0.00    +0.158 A 
ATOM     30  C   UNL     1       6.690   1.103  27.617  0.00  0.00    +0.159 A 
ATOM     31  C   UNL     1       7.015  -0.123  27.048  0.00  0.00    +0.060 A 
BRANCH  30  32
ATOM     32  O   UNL     1       7.419   1.638  28.640  0.00  0.00    -0.503 OA
ATOM     33  H   UNL     1       7.733   0.908  29.202  0.00  0.00    +0.292 HD
ENDBRANCH  30  32
BRANCH  29  34
ATOM     34  O   UNL     1       5.363   3.082  27.613  0.00  0.00    -0.503 OA
ATOM     35  H   UNL     1       4.435   3.261  27.361  0.00  0.00    +0.292 HD
ENDBRANCH  29  34
ENDBRANCH  25  26
BRANCH  24  36
ATOM     36  O   UNL     1       8.148  -5.865  22.402  0.00  0.00    -0.506 OA
ATOM     37  H   UNL     1       8.512  -6.629  22.875  0.00  0.00    +0.292 HD
ENDBRANCH  24  36
BRANCH  21  38
ATOM     38  O   UNL     1       3.490  -6.453  23.055  0.00  0.00    -0.507 OA
ATOM     39  H   UNL     1       2.798  -6.199  23.677  0.00  0.00    +0.292 HD
ENDBRANCH  21  38
ENDBRANCH  14  15
ENDBRANCH   4  14
BRANCH   1  40
ATOM     40  O   UNL     1       7.767   2.323  24.210  0.00  0.00    -0.340 OA
BRANCH  40  44
ATOM     41  C   UNL     1       7.233   6.329  21.739  0.00  0.00    +0.041 C 
ATOM     42  C   UNL     1       7.188   5.740  23.142  0.00  0.00    +0.149 C 
ATOM     43  O   UNL     1       7.728   4.402  23.119  0.00  0.00    -0.343 OA
ATOM     44  C   UNL     1       7.493   3.722  24.374  0.00  0.00    +0.282 C 
ATOM     45  C   UNL     1       8.300   4.448  25.494  0.00  0.00    +0.201 C 
ATOM     46  C   UNL     1       7.949   5.948  25.528  0.00  0.00    +0.179 C 
ATOM     47  C   UNL     1       7.993   6.587  24.140  0.00  0.00    +0.174 C 
BRANCH  47  48
ATOM     48  O   UNL     1       9.359   6.683  23.722  0.00  0.00    -0.387 OA
ATOM     49  H   UNL     1       9.649   7.606  23.864  0.00  0.00    +0.210 HD
ENDBRANCH  47  48
BRANCH  46  50
ATOM     50  O   UNL     1       6.668   6.112  26.172  0.00  0.00    -0.386 OA
ATOM     51  H   UNL     1       6.224   6.918  25.858  0.00  0.00    +0.210 HD
ENDBRANCH  46  50
BRANCH  45  52
ATOM     52  O   UNL     1       8.046   3.926  26.807  0.00  0.00    -0.384 OA
ATOM     53  H   UNL     1       8.791   4.214  27.377  0.00  0.00    +0.210 HD
ENDBRANCH  45  52
ENDBRANCH  40  44
ENDBRANCH   1  40
TORSDOF 16
ENDMDL
MODEL 5
REMARK VINA RESULT:      -6.5      2.548      9.135
REMARK  Name = 
REMARK  17 active torsions:
REMARK  status: ('A' for Active; 'I' for Inactive)
REMARK    1  A    between atoms: C_1  and  C_2
REMARK    2  A    between atoms: C_4  and  O_53
REMARK    3  A    between atoms: C_6  and  O_52
REMARK    4  A    between atoms: C_8  and  O_51
REMARK    5  A    between atoms: C_10  and  O_13
REMARK    6  A    between atoms: O_13  and  C_14
REMARK    7  A    between atoms: C_16  and  C_49
REMARK    8  A    between atoms: C_19  and  O_27
REMARK    9  A    between atoms: C_21  and  O_26
REMARK   10  A    between atoms: C_23  and  O_25
REMARK   11  A    between atoms: O_27  and  C_28
REMARK   12  A    between atoms: C_29  and  C_41
REMARK   13  A    between atoms: C_33  and  O_40
REMARK   14  A    between atoms: C_35  and  O_39
REMARK   15  A    between atoms: C_43  and  O_48
REMARK   16  A    between atoms: C_44  and  O_47
REMARK   17  A    between atoms: C_49  and  O_50
REMARK                            x       y       z     vdW  Elec       q    Type
REMARK                         _______ _______ _______ _____ _____    ______ ____
ROOT
ATOM      1  C   UNL     1       5.838   3.230  25.949  0.00  0.00    +0.184 C 
ATOM      2  C   UNL     1       6.241   2.711  27.352  0.00  0.00    +0.180 C 
ATOM      3  C   UNL     1       6.133   1.180  27.594  0.00  0.00    +0.214 C 
ATOM      4  C   UNL     1       5.682   0.282  26.398  0.00  0.00    +0.340 C 
ATOM      5  O   UNL     1       5.326   1.005  25.207  0.00  0.00    -0.331 OA
ATOM      6  C   UNL     1       4.725   2.280  25.463  0.00  0.00    +0.179 C 
ENDROOT
BRANCH   3   7
ATOM      7  O   UNL     1       5.154   1.009  28.657  0.00  0.00    -0.383 OA
ATOM      8  H   UNL     1       5.057   1.885  29.080  0.00  0.00    +0.210 HD
ENDBRANCH   3   7
BRANCH   2   9
ATOM      9  O   UNL     1       7.554   3.176  27.711  0.00  0.00    -0.386 OA
ATOM     10  H   UNL     1       8.177   2.578  27.253  0.00  0.00    +0.210 HD
ENDBRANCH   2   9
BRANCH   6  11
ATOM     11  C   UNL     1       3.919   2.700  24.226  0.00  0.00    +0.190 C 
BRANCH  11  12
ATOM     12  O   UNL     1       4.741   2.616  23.059  0.00  0.00    -0.392 OA
ATOM     13  H   UNL     1       4.478   3.373  22.501  0.00  0.00    +0.210 HD
ENDBRANCH  11  12
ENDBRANCH   6  11
BRANCH   4  14
ATOM     14  O   UNL     1       6.761  -0.628  26.074  0.00  0.00    -0.453 OA
BRANCH  14  15
ATOM     15  C   UNL     1       6.543  -1.506  25.018  0.00  0.00    +0.214 A 
ATOM     16  C   UNL     1       5.771  -2.768  25.311  0.00  0.00    +0.238 A 
ATOM     17  O   UNL     1       5.134  -2.859  26.355  0.00  0.00    -0.283 OA
ATOM     18  C   UNL     1       5.785  -3.840  24.273  0.00  0.00    +0.109 A 
ATOM     19  C   UNL     1       6.309  -3.511  23.030  0.00  0.00    +0.147 A 
ATOM     20  C   UNL     1       6.275  -4.397  21.947  0.00  0.00    +0.092 A 
ATOM     21  C   UNL     1       5.733  -5.662  22.124  0.00  0.00    +0.124 A 
ATOM     22  C   UNL     1       5.258  -6.047  23.366  0.00  0.00    +0.091 A 
ATOM     23  O   UNL     1       6.897  -2.306  22.770  0.00  0.00    -0.451 OA
ATOM     24  C   UNL     1       5.282  -5.147  24.441  0.00  0.00    +0.135 A 
ATOM     25  C   UNL     1       7.101  -1.385  23.792  0.00  0.00    +0.181 A 
BRANCH  25  26
ATOM     26  C   UNL     1       7.939  -0.247  23.297  0.00  0.00    +0.025 A 
ATOM     27  C   UNL     1       7.592   0.552  22.198  0.00  0.00    +0.015 A 
ATOM     28  C   UNL     1       8.482   1.493  21.666  0.00  0.00    +0.050 A 
ATOM     29  C   UNL     1       9.705   1.689  22.283  0.00  0.00    +0.158 A 
ATOM     30  C   UNL     1      10.013   1.024  23.458  0.00  0.00    +0.159 A 
ATOM     31  C   UNL     1       9.149   0.059  23.963  0.00  0.00    +0.060 A 
BRANCH  30  32
ATOM     32  O   UNL     1      11.185   1.338  24.086  0.00  0.00    -0.503 OA
ATOM     33  H   UNL     1      11.884   0.763  23.727  0.00  0.00    +0.292 HD
ENDBRANCH  30  32
BRANCH  29  34
ATOM     34  O   UNL     1      10.609   2.543  21.724  0.00  0.00    -0.503 OA
ATOM     35  H   UNL     1      10.684   2.246  20.794  0.00  0.00    +0.292 HD
ENDBRANCH  29  34
ENDBRANCH  25  26
BRANCH  24  36
ATOM     36  O   UNL     1       4.835  -5.579  25.655  0.00  0.00    -0.506 OA
ATOM     37  H   UNL     1       5.144  -6.482  25.823  0.00  0.00    +0.292 HD
ENDBRANCH  24  36
BRANCH  21  38
ATOM     38  O   UNL     1       5.663  -6.550  21.089  0.00  0.00    -0.507 OA
ATOM     39  H   UNL     1       4.741  -6.684  20.838  0.00  0.00    +0.292 HD
ENDBRANCH  21  38
ENDBRANCH  14  15
ENDBRANCH   4  14
BRANCH   1  40
ATOM     40  O   UNL     1       7.048   3.317  25.151  0.00  0.00    -0.340 OA
BRANCH  40  44
ATOM     41  C   UNL     1       5.229   7.103  22.960  0.00  0.00    +0.041 C 
ATOM     42  C   UNL     1       6.506   6.530  23.558  0.00  0.00    +0.149 C 
ATOM     43  O   UNL     1       6.313   5.130  23.852  0.00  0.00    -0.343 OA
ATOM     44  C   UNL     1       7.413   4.603  24.630  0.00  0.00    +0.282 C 
ATOM     45  C   UNL     1       8.706   4.643  23.759  0.00  0.00    +0.201 C 
ATOM     46  C   UNL     1       8.954   6.067  23.224  0.00  0.00    +0.179 C 
ATOM     47  C   UNL     1       7.699   6.680  22.601  0.00  0.00    +0.174 C 
BRANCH  47  48
ATOM     48  O   UNL     1       7.429   6.015  21.362  0.00  0.00    -0.387 OA
ATOM     49  H   UNL     1       8.037   6.382  20.690  0.00  0.00    +0.210 HD
ENDBRANCH  47  48
BRANCH  46  50
ATOM     50  O   UNL     1       9.495   6.876  24.288  0.00  0.00    -0.386 OA
ATOM     51  H   UNL     1       8.893   7.606  24.508  0.00  0.00    +0.210 HD
ENDBRANCH  46  50
BRANCH  45  52
ATOM     52  O   UNL     1       9.886   4.251  24.475  0.00  0.00    -0.384 OA
ATOM     53  H   UNL     1      10.171   3.389  24.104  0.00  0.00    +0.210 HD
ENDBRANCH  45  52
ENDBRANCH  40  44
ENDBRANCH   1  40
TORSDOF 16
ENDMDL
MODEL 6
REMARK VINA RESULT:      -6.4      2.602      8.068
REMARK  Name = 
REMARK  17 active torsions:
REMARK  status: ('A' for Active; 'I' for Inactive)
REMARK    1  A    between atoms: C_1  and  C_2
REMARK    2  A    between atoms: C_4  and  O_53
REMARK    3  A    between atoms: C_6  and  O_52
REMARK    4  A    between atoms: C_8  and  O_51
REMARK    5  A    between atoms: C_10  and  O_13
REMARK    6  A    between atoms: O_13  and  C_14
REMARK    7  A    between atoms: C_16  and  C_49
REMARK    8  A    between atoms: C_19  and  O_27
REMARK    9  A    between atoms: C_21  and  O_26
REMARK   10  A    between atoms: C_23  and  O_25
REMARK   11  A    between atoms: O_27  and  C_28
REMARK   12  A    between atoms: C_29  and  C_41
REMARK   13  A    between atoms: C_33  and  O_40
REMARK   14  A    between atoms: C_35  and  O_39
REMARK   15  A    between atoms: C_43  and  O_48
REMARK   16  A    between atoms: C_44  and  O_47
REMARK   17  A    between atoms: C_49  and  O_50
REMARK                            x       y       z     vdW  Elec       q    Type
REMARK                         _______ _______ _______ _____ _____    ______ ____
ROOT
ATOM      1  C   UNL     1       8.956   2.100  22.591  0.00  0.00    +0.184 C 
ATOM      2  C   UNL     1       8.406   0.770  22.016  0.00  0.00    +0.180 C 
ATOM      3  C   UNL     1       8.945  -0.545  22.645  0.00  0.00    +0.214 C 
ATOM      4  C   UNL     1       9.951  -0.426  23.835  0.00  0.00    +0.340 C 
ATOM      5  O   UNL     1      10.338   0.920  24.160  0.00  0.00    -0.331 OA
ATOM      6  C   UNL     1      10.403   1.793  23.026  0.00  0.00    +0.179 C 
ENDROOT
BRANCH   3   7
ATOM      7  O   UNL     1       9.625  -1.254  21.572  0.00  0.00    -0.383 OA
ATOM      8  H   UNL     1       9.128  -2.085  21.438  0.00  0.00    +0.210 HD
ENDBRANCH   3   7
BRANCH   2   9
ATOM      9  O   UNL     1       6.968   0.766  22.023  0.00  0.00    -0.386 OA
ATOM     10  H   UNL     1       6.711   0.980  22.942  0.00  0.00    +0.210 HD
ENDBRANCH   2   9
BRANCH   6  11
ATOM     11  C   UNL     1      11.311   2.981  23.372  0.00  0.00    +0.190 C 
BRANCH  11  12
ATOM     12  O   UNL     1      10.556   4.195  23.336  0.00  0.00    -0.392 OA
ATOM     13  H   UNL     1       9.880   4.101  24.034  0.00  0.00    +0.210 HD
ENDBRANCH  11  12
ENDBRANCH   6  11
BRANCH   4  14
ATOM     14  O   UNL     1       9.348  -1.024  25.008  0.00  0.00    -0.453 OA
BRANCH  14  15
ATOM     15  C   UNL     1       8.186  -1.761  24.808  0.00  0.00    +0.214 A 
ATOM     16  C   UNL     1       8.332  -3.141  24.216  0.00  0.00    +0.238 A 
ATOM     17  O   UNL     1       9.436  -3.674  24.188  0.00  0.00    -0.283 OA
ATOM     18  C   UNL     1       7.091  -3.815  23.730  0.00  0.00    +0.109 A 
ATOM     19  C   UNL     1       5.879  -3.229  24.067  0.00  0.00    +0.147 A 
ATOM     20  C   UNL     1       4.651  -3.827  23.762  0.00  0.00    +0.092 A 
ATOM     21  C   UNL     1       4.636  -5.030  23.071  0.00  0.00    +0.124 A 
ATOM     22  C   UNL     1       5.824  -5.613  22.666  0.00  0.00    +0.091 A 
ATOM     23  O   UNL     1       5.791  -2.029  24.712  0.00  0.00    -0.451 OA
ATOM     24  C   UNL     1       7.051  -5.013  22.988  0.00  0.00    +0.135 A 
ATOM     25  C   UNL     1       6.934  -1.276  24.962  0.00  0.00    +0.181 A 
BRANCH  25  26
ATOM     26  C   UNL     1       6.553   0.074  25.487  0.00  0.00    +0.025 A 
ATOM     27  C   UNL     1       7.346   0.813  26.378  0.00  0.00    +0.015 A 
ATOM     28  C   UNL     1       6.876   1.989  26.973  0.00  0.00    +0.050 A 
ATOM     29  C   UNL     1       5.629   2.473  26.621  0.00  0.00    +0.158 A 
ATOM     30  C   UNL     1       4.887   1.848  25.632  0.00  0.00    +0.159 A 
ATOM     31  C   UNL     1       5.334   0.657  25.071  0.00  0.00    +0.060 A 
BRANCH  30  32
ATOM     32  O   UNL     1       3.714   2.431  25.243  0.00  0.00    -0.503 OA
ATOM     33  H   UNL     1       3.195   1.768  24.754  0.00  0.00    +0.292 HD
ENDBRANCH  30  32
BRANCH  29  34
ATOM     34  O   UNL     1       5.131   3.572  27.257  0.00  0.00    -0.503 OA
ATOM     35  H   UNL     1       5.288   4.308  26.631  0.00  0.00    +0.292 HD
ENDBRANCH  29  34
ENDBRANCH  25  26
BRANCH  24  36
ATOM     36  O   UNL     1       8.196  -5.604  22.539  0.00  0.00    -0.506 OA
ATOM     37  H   UNL     1       8.545  -6.210  23.210  0.00  0.00    +0.292 HD
ENDBRANCH  24  36
BRANCH  21  38
ATOM     38  O   UNL     1       3.461  -5.658  22.772  0.00  0.00    -0.507 OA
ATOM     39  H   UNL     1       3.639  -6.560  22.483  0.00  0.00    +0.292 HD
ENDBRANCH  21  38
ENDBRANCH  14  15
ENDBRANCH   4  14
BRANCH   1  40
ATOM     40  O   UNL     1       8.027   2.553  23.610  0.00  0.00    -0.340 OA
BRANCH  40  44
ATOM     41  C   UNL     1       8.051   6.697  25.906  0.00  0.00    +0.041 C 
ATOM     42  C   UNL     1       7.568   6.000  24.641  0.00  0.00    +0.149 C 
ATOM     43  O   UNL     1       7.764   4.576  24.774  0.00  0.00    -0.343 OA
ATOM     44  C   UNL     1       7.538   3.899  23.515  0.00  0.00    +0.282 C 
ATOM     45  C   UNL     1       6.034   4.051  23.129  0.00  0.00    +0.201 C 
ATOM     46  C   UNL     1       5.627   5.537  23.113  0.00  0.00    +0.179 C 
ATOM     47  C   UNL     1       6.081   6.277  24.372  0.00  0.00    +0.174 C 
BRANCH  47  48
ATOM     48  O   UNL     1       5.284   5.836  25.477  0.00  0.00    -0.387 OA
ATOM     49  H   UNL     1       5.375   6.498  26.191  0.00  0.00    +0.210 HD
ENDBRANCH  47  48
BRANCH  46  50
ATOM     50  O   UNL     1       6.129   6.144  21.904  0.00  0.00    -0.386 OA
ATOM     51  H   UNL     1       5.600   6.923  21.663  0.00  0.00    +0.210 HD
ENDBRANCH  46  50
BRANCH  45  52
ATOM     52  O   UNL     1       5.722   3.515  21.835  0.00  0.00    -0.384 OA
ATOM     53  H   UNL     1       6.258   4.015  21.183  0.00  0.00    +0.210 HD
ENDBRANCH  45  52
ENDBRANCH  40  44
ENDBRANCH   1  40
TORSDOF 16
ENDMDL
MODEL 7
REMARK VINA RESULT:      -6.4      2.130      6.671
REMARK  Name = 
REMARK  17 active torsions:
REMARK  status: ('A' for Active; 'I' for Inactive)
REMARK    1  A    between atoms: C_1  and  C_2
REMARK    2  A    between atoms: C_4  and  O_53
REMARK    3  A    between atoms: C_6  and  O_52
REMARK    4  A    between atoms: C_8  and  O_51
REMARK    5  A    between atoms: C_10  and  O_13
REMARK    6  A    between atoms: O_13  and  C_14
REMARK    7  A    between atoms: C_16  and  C_49
REMARK    8  A    between atoms: C_19  and  O_27
REMARK    9  A    between atoms: C_21  and  O_26
REMARK   10  A    between atoms: C_23  and  O_25
REMARK   11  A    between atoms: O_27  and  C_28
REMARK   12  A    between atoms: C_29  and  C_41
REMARK   13  A    between atoms: C_33  and  O_40
REMARK   14  A    between atoms: C_35  and  O_39
REMARK   15  A    between atoms: C_43  and  O_48
REMARK   16  A    between atoms: C_44  and  O_47
REMARK   17  A    between atoms: C_49  and  O_50
REMARK                            x       y       z     vdW  Elec       q    Type
REMARK                         _______ _______ _______ _____ _____    ______ ____
ROOT
ATOM      1  C   UNL     1       8.099  -1.415  22.500  0.00  0.00    +0.184 C 
ATOM      2  C   UNL     1       6.975  -2.478  22.403  0.00  0.00    +0.180 C 
ATOM      3  C   UNL     1       7.122  -3.741  23.297  0.00  0.00    +0.214 C 
ATOM      4  C   UNL     1       8.352  -3.816  24.258  0.00  0.00    +0.340 C 
ATOM      5  O   UNL     1       9.276  -2.721  24.135  0.00  0.00    -0.331 OA
ATOM      6  C   UNL     1       9.388  -2.205  22.803  0.00  0.00    +0.179 C 
ENDROOT
BRANCH   3   7
ATOM      7  O   UNL     1       7.214  -4.871  22.385  0.00  0.00    -0.383 OA
ATOM      8  H   UNL     1       7.198  -4.494  21.484  0.00  0.00    +0.210 HD
ENDBRANCH   3   7
BRANCH   2   9
ATOM      9  O   UNL     1       5.684  -1.877  22.606  0.00  0.00    -0.386 OA
ATOM     10  H   UNL     1       5.539  -1.893  23.573  0.00  0.00    +0.210 HD
ENDBRANCH   2   9
BRANCH   6  11
ATOM     11  C   UNL     1      10.726  -1.464  22.674  0.00  0.00    +0.190 C 
BRANCH  11  12
ATOM     12  O   UNL     1      10.895  -0.572  23.779  0.00  0.00    -0.392 OA
ATOM     13  H   UNL     1      11.197   0.271  23.388  0.00  0.00    +0.210 HD
ENDBRANCH  11  12
ENDBRANCH   6  11
BRANCH   4  14
ATOM     14  O   UNL     1       7.869  -3.855  25.622  0.00  0.00    -0.453 OA
BRANCH  14  15
ATOM     15  C   UNL     1       6.894  -2.926  25.967  0.00  0.00    +0.214 A 
ATOM     16  C   UNL     1       7.358  -1.610  26.540  0.00  0.00    +0.238 A 
ATOM     17  O   UNL     1       8.536  -1.286  26.433  0.00  0.00    -0.283 OA
ATOM     18  C   UNL     1       6.329  -0.737  27.178  0.00  0.00    +0.109 A 
ATOM     19  C   UNL     1       4.999  -1.087  26.994  0.00  0.00    +0.147 A 
ATOM     20  C   UNL     1       3.946  -0.285  27.450  0.00  0.00    +0.092 A 
ATOM     21  C   UNL     1       4.234   0.883  28.141  0.00  0.00    +0.124 A 
ATOM     22  C   UNL     1       5.549   1.232  28.398  0.00  0.00    +0.091 A 
ATOM     23  O   UNL     1       4.616  -2.234  26.360  0.00  0.00    -0.451 OA
ATOM     24  C   UNL     1       6.598   0.430  27.924  0.00  0.00    +0.135 A 
ATOM     25  C   UNL     1       5.565  -3.174  25.968  0.00  0.00    +0.181 A 
BRANCH  25  26
ATOM     26  C   UNL     1       4.885  -4.419  25.490  0.00  0.00    +0.025 A 
ATOM     27  C   UNL     1       5.125  -5.691  26.030  0.00  0.00    +0.015 A 
ATOM     28  C   UNL     1       4.597  -6.847  25.443  0.00  0.00    +0.050 A 
ATOM     29  C   UNL     1       3.761  -6.727  24.347  0.00  0.00    +0.158 A 
ATOM     30  C   UNL     1       3.384  -5.477  23.885  0.00  0.00    +0.159 A 
ATOM     31  C   UNL     1       3.941  -4.330  24.440  0.00  0.00    +0.060 A 
BRANCH  30  32
ATOM     32  O   UNL     1       2.468  -5.414  22.873  0.00  0.00    -0.503 OA
ATOM     33  H   UNL     1       2.682  -4.643  22.320  0.00  0.00    +0.292 HD
ENDBRANCH  30  32
BRANCH  29  34
ATOM     34  O   UNL     1       3.309  -7.852  23.721  0.00  0.00    -0.503 OA
ATOM     35  H   UNL     1       2.507  -7.560  23.243  0.00  0.00    +0.292 HD
ENDBRANCH  29  34
ENDBRANCH  25  26
BRANCH  24  36
ATOM     36  O   UNL     1       7.877   0.793  28.229  0.00  0.00    -0.506 OA
ATOM     37  H   UNL     1       7.999   0.812  29.190  0.00  0.00    +0.292 HD
ENDBRANCH  24  36
BRANCH  21  38
ATOM     38  O   UNL     1       3.238   1.703  28.586  0.00  0.00    -0.507 OA
ATOM     39  H   UNL     1       2.459   1.599  28.028  0.00  0.00    +0.292 HD
ENDBRANCH  21  38
ENDBRANCH  14  15
ENDBRANCH   4  14
BRANCH   1  40
ATOM     40  O   UNL     1       7.675  -0.418  23.466  0.00  0.00    -0.340 OA
BRANCH  40  44
ATOM     41  C   UNL     1      10.888   3.060  23.325  0.00  0.00    +0.041 C 
ATOM     42  C   UNL     1       9.441   2.715  23.001  0.00  0.00    +0.149 C 
ATOM     43  O   UNL     1       9.110   1.437  23.584  0.00  0.00    -0.343 OA
ATOM     44  C   UNL     1       7.828   0.963  23.110  0.00  0.00    +0.282 C 
ATOM     45  C   UNL     1       6.717   1.927  23.629  0.00  0.00    +0.201 C 
ATOM     46  C   UNL     1       7.027   3.380  23.221  0.00  0.00    +0.179 C 
ATOM     47  C   UNL     1       8.469   3.777  23.540  0.00  0.00    +0.174 C 
BRANCH  47  48
ATOM     48  O   UNL     1       8.609   3.904  24.959  0.00  0.00    -0.387 OA
ATOM     49  H   UNL     1       7.825   3.491  25.372  0.00  0.00    +0.210 HD
ENDBRANCH  47  48
BRANCH  46  50
ATOM     50  O   UNL     1       6.701   3.553  21.827  0.00  0.00    -0.386 OA
ATOM     51  H   UNL     1       5.786   3.276  21.649  0.00  0.00    +0.210 HD
ENDBRANCH  46  50
BRANCH  45  52
ATOM     52  O   UNL     1       5.412   1.617  23.119  0.00  0.00    -0.384 OA
ATOM     53  H   UNL     1       5.420   1.836  22.162  0.00  0.00    +0.210 HD
ENDBRANCH  45  52
ENDBRANCH  40  44
ENDBRANCH   1  40
TORSDOF 16
ENDMDL
MODEL 8
REMARK VINA RESULT:      -6.4      1.910      5.069
REMARK  Name = 
REMARK  17 active torsions:
REMARK  status: ('A' for Active; 'I' for Inactive)
REMARK    1  A    between atoms: C_1  and  C_2
REMARK    2  A    between atoms: C_4  and  O_53
REMARK    3  A    between atoms: C_6  and  O_52
REMARK    4  A    between atoms: C_8  and  O_51
REMARK    5  A    between atoms: C_10  and  O_13
REMARK    6  A    between atoms: O_13  and  C_14
REMARK    7  A    between atoms: C_16  and  C_49
REMARK    8  A    between atoms: C_19  and  O_27
REMARK    9  A    between atoms: C_21  and  O_26
REMARK   10  A    between atoms: C_23  and  O_25
REMARK   11  A    between atoms: O_27  and  C_28
REMARK   12  A    between atoms: C_29  and  C_41
REMARK   13  A    between atoms: C_33  and  O_40
REMARK   14  A    between atoms: C_35  and  O_39
REMARK   15  A    between atoms: C_43  and  O_48
REMARK   16  A    between atoms: C_44  and  O_47
REMARK   17  A    between atoms: C_49  and  O_50
REMARK                            x       y       z     vdW  Elec       q    Type
REMARK                         _______ _______ _______ _____ _____    ______ ____
ROOT
ATOM      1  C   UNL     1       7.499  -4.889  24.429  0.00  0.00    +0.184 C 
ATOM      2  C   UNL     1       8.504  -3.836  24.961  0.00  0.00    +0.180 C 
ATOM      3  C   UNL     1       8.703  -2.556  24.102  0.00  0.00    +0.214 C 
ATOM      4  C   UNL     1       7.841  -2.405  22.807  0.00  0.00    +0.340 C 
ATOM      5  O   UNL     1       7.008  -3.538  22.506  0.00  0.00    -0.331 OA
ATOM      6  C   UNL     1       7.579  -4.794  22.892  0.00  0.00    +0.179 C 
ENDROOT
BRANCH   3   7
ATOM      7  O   UNL     1      10.100  -2.557  23.695  0.00  0.00    -0.383 OA
ATOM      8  H   UNL     1      10.336  -3.493  23.541  0.00  0.00    +0.210 HD
ENDBRANCH   3   7
BRANCH   2   9
ATOM      9  O   UNL     1       8.196  -3.475  26.319  0.00  0.00    -0.386 OA
ATOM     10  H   UNL     1       7.382  -3.969  26.541  0.00  0.00    +0.210 HD
ENDBRANCH   2   9
BRANCH   6  11
ATOM     11  C   UNL     1       6.912  -5.908  22.073  0.00  0.00    +0.190 C 
BRANCH  11  12
ATOM     12  O   UNL     1       5.623  -6.204  22.616  0.00  0.00    -0.392 OA
ATOM     13  H   UNL     1       5.353  -5.399  23.099  0.00  0.00    +0.210 HD
ENDBRANCH  11  12
ENDBRANCH   6  11
BRANCH   4  14
ATOM     14  O   UNL     1       6.994  -1.240  22.952  0.00  0.00    -0.453 OA
BRANCH  14  15
ATOM     15  C   UNL     1       6.704  -0.834  24.250  0.00  0.00    +0.214 A 
ATOM     16  C   UNL     1       5.519  -1.473  24.930  0.00  0.00    +0.238 A 
ATOM     17  O   UNL     1       5.027  -2.493  24.458  0.00  0.00    -0.283 OA
ATOM     18  C   UNL     1       5.028  -0.844  26.191  0.00  0.00    +0.109 A 
ATOM     19  C   UNL     1       5.831   0.132  26.766  0.00  0.00    +0.147 A 
ATOM     20  C   UNL     1       5.530   0.713  28.003  0.00  0.00    +0.092 A 
ATOM     21  C   UNL     1       4.373   0.331  28.668  0.00  0.00    +0.124 A 
ATOM     22  C   UNL     1       3.517  -0.594  28.096  0.00  0.00    +0.091 A 
ATOM     23  O   UNL     1       6.967   0.601  26.171  0.00  0.00    -0.451 OA
ATOM     24  C   UNL     1       3.835  -1.182  26.862  0.00  0.00    +0.135 A 
ATOM     25  C   UNL     1       7.311   0.193  24.886  0.00  0.00    +0.181 A 
BRANCH  25  26
ATOM     26  C   UNL     1       8.471   0.997  24.386  0.00  0.00    +0.025 A 
ATOM     27  C   UNL     1       9.808   0.594  24.512  0.00  0.00    +0.015 A 
ATOM     28  C   UNL     1      10.866   1.450  24.185  0.00  0.00    +0.050 A 
ATOM     29  C   UNL     1      10.585   2.698  23.657  0.00  0.00    +0.158 A 
ATOM     30  C   UNL     1       9.279   3.065  23.378  0.00  0.00    +0.159 A 
ATOM     31  C   UNL     1       8.227   2.233  23.743  0.00  0.00    +0.060 A 
BRANCH  30  32
ATOM     32  O   UNL     1       9.066   4.261  22.754  0.00  0.00    -0.503 OA
ATOM     33  H   UNL     1       8.420   4.766  23.278  0.00  0.00    +0.292 HD
ENDBRANCH  30  32
BRANCH  29  34
ATOM     34  O   UNL     1      11.606   3.568  23.413  0.00  0.00    -0.503 OA
ATOM     35  H   UNL     1      11.594   3.693  22.442  0.00  0.00    +0.292 HD
ENDBRANCH  29  34
ENDBRANCH  25  26
BRANCH  24  36
ATOM     36  O   UNL     1       2.947  -2.063  26.319  0.00  0.00    -0.506 OA
ATOM     37  H   UNL     1       2.059  -1.907  26.677  0.00  0.00    +0.292 HD
ENDBRANCH  24  36
BRANCH  21  38
ATOM     38  O   UNL     1       4.053   0.858  29.886  0.00  0.00    -0.507 OA
ATOM     39  H   UNL     1       4.614   0.469  30.566  0.00  0.00    +0.292 HD
ENDBRANCH  21  38
ENDBRANCH  14  15
ENDBRANCH   4  14
BRANCH   1  40
ATOM     40  O   UNL     1       6.217  -4.626  25.056  0.00  0.00    -0.340 OA
BRANCH  40  44
ATOM     41  C   UNL     1       2.705  -7.802  24.927  0.00  0.00    +0.041 C 
ATOM     42  C   UNL     1       3.879  -7.308  25.760  0.00  0.00    +0.149 C 
ATOM     43  O   UNL     1       4.368  -6.066  25.210  0.00  0.00    -0.343 OA
ATOM     44  C   UNL     1       5.621  -5.681  25.824  0.00  0.00    +0.282 C 
ATOM     45  C   UNL     1       5.363  -5.366  27.330  0.00  0.00    +0.201 C 
ATOM     46  C   UNL     1       4.676  -6.559  28.023  0.00  0.00    +0.179 C 
ATOM     47  C   UNL     1       3.481  -7.083  27.227  0.00  0.00    +0.174 C 
BRANCH  47  48
ATOM     48  O   UNL     1       2.417  -6.128  27.312  0.00  0.00    -0.387 OA
ATOM     49  H   UNL     1       1.781  -6.451  27.980  0.00  0.00    +0.210 HD
ENDBRANCH  47  48
BRANCH  46  50
ATOM     50  O   UNL     1       5.663  -7.580  28.276  0.00  0.00    -0.386 OA
ATOM     51  H   UNL     1       6.362  -7.248  28.864  0.00  0.00    +0.210 HD
ENDBRANCH  46  50
BRANCH  45  52
ATOM     52  O   UNL     1       6.563  -5.086  28.065  0.00  0.00    -0.384 OA
ATOM     53  H   UNL     1       6.638  -4.109  28.127  0.00  0.00    +0.210 HD
ENDBRANCH  45  52
ENDBRANCH  40  44
ENDBRANCH   1  40
TORSDOF 16
ENDMDL
MODEL 9
REMARK VINA RESULT:      -6.4      1.920      2.251
REMARK  Name = 
REMARK  17 active torsions:
REMARK  status: ('A' for Active; 'I' for Inactive)
REMARK    1  A    between atoms: C_1  and  C_2
REMARK    2  A    between atoms: C_4  and  O_53
REMARK    3  A    between atoms: C_6  and  O_52
REMARK    4  A    between atoms: C_8  and  O_51
REMARK    5  A    between atoms: C_10  and  O_13
REMARK    6  A    between atoms: O_13  and  C_14
REMARK    7  A    between atoms: C_16  and  C_49
REMARK    8  A    between atoms: C_19  and  O_27
REMARK    9  A    between atoms: C_21  and  O_26
REMARK   10  A    between atoms: C_23  and  O_25
REMARK   11  A    between atoms: O_27  and  C_28
REMARK   12  A    between atoms: C_29  and  C_41
REMARK   13  A    between atoms: C_33  and  O_40
REMARK   14  A    between atoms: C_35  and  O_39
REMARK   15  A    between atoms: C_43  and  O_48
REMARK   16  A    between atoms: C_44  and  O_47
REMARK   17  A    between atoms: C_49  and  O_50
REMARK                            x       y       z     vdW  Elec       q    Type
REMARK                         _______ _______ _______ _____ _____    ______ ____
ROOT
ATOM      1  C   UNL     1       7.581  -4.169  24.164  0.00  0.00    +0.184 C 
ATOM      2  C   UNL     1       9.119  -4.029  24.298  0.00  0.00    +0.180 C 
ATOM      3  C   UNL     1       9.711  -2.600  24.153  0.00  0.00    +0.214 C 
ATOM      4  C   UNL     1       8.714  -1.415  23.940  0.00  0.00    +0.340 C 
ATOM      5  O   UNL     1       7.336  -1.807  23.812  0.00  0.00    -0.331 OA
ATOM      6  C   UNL     1       7.153  -3.073  23.167  0.00  0.00    +0.179 C 
ENDROOT
BRANCH   3   7
ATOM      7  O   UNL     1      10.587  -2.643  22.992  0.00  0.00    -0.383 OA
ATOM      8  H   UNL     1      10.347  -1.871  22.443  0.00  0.00    +0.210 HD
ENDBRANCH   3   7
BRANCH   2   9
ATOM      9  O   UNL     1       9.583  -4.634  25.517  0.00  0.00    -0.386 OA
ATOM     10  H   UNL     1       9.276  -4.044  26.234  0.00  0.00    +0.210 HD
ENDBRANCH   2   9
BRANCH   6  11
ATOM     11  C   UNL     1       5.726  -3.137  22.607  0.00  0.00    +0.190 C 
BRANCH  11  12
ATOM     12  O   UNL     1       5.493  -4.417  22.014  0.00  0.00    -0.392 OA
ATOM     13  H   UNL     1       5.133  -4.229  21.125  0.00  0.00    +0.210 HD
ENDBRANCH  11  12
ENDBRANCH   6  11
BRANCH   4  14
ATOM     14  O   UNL     1       8.828  -0.510  25.065  0.00  0.00    -0.453 OA
BRANCH  14  15
ATOM     15  C   UNL     1       8.319   0.772  24.891  0.00  0.00    +0.214 A 
ATOM     16  C   UNL     1       9.190   1.775  24.177  0.00  0.00    +0.238 A 
ATOM     17  O   UNL     1      10.165   1.387  23.542  0.00  0.00    -0.283 OA
ATOM     18  C   UNL     1       8.783   3.210  24.244  0.00  0.00    +0.109 A 
ATOM     19  C   UNL     1       7.523   3.487  24.756  0.00  0.00    +0.147 A 
ATOM     20  C   UNL     1       6.990   4.781  24.766  0.00  0.00    +0.092 A 
ATOM     21  C   UNL     1       7.756   5.833  24.282  0.00  0.00    +0.124 A 
ATOM     22  C   UNL     1       9.041   5.603  23.822  0.00  0.00    +0.091 A 
ATOM     23  O   UNL     1       6.712   2.526  25.288  0.00  0.00    -0.451 OA
ATOM     24  C   UNL     1       9.560   4.300  23.802  0.00  0.00    +0.135 A 
ATOM     25  C   UNL     1       7.172   1.223  25.446  0.00  0.00    +0.181 A 
BRANCH  25  26
ATOM     26  C   UNL     1       6.180   0.422  26.232  0.00  0.00    +0.025 A 
ATOM     27  C   UNL     1       5.945   0.605  27.602  0.00  0.00    +0.015 A 
ATOM     28  C   UNL     1       5.137  -0.276  28.331  0.00  0.00    +0.050 A 
ATOM     29  C   UNL     1       4.497  -1.309  27.669  0.00  0.00    +0.158 A 
ATOM     30  C   UNL     1       4.589  -1.424  26.292  0.00  0.00    +0.159 A 
ATOM     31  C   UNL     1       5.425  -0.577  25.574  0.00  0.00    +0.060 A 
BRANCH  30  32
ATOM     32  O   UNL     1       3.847  -2.393  25.677  0.00  0.00    -0.503 OA
ATOM     33  H   UNL     1       2.964  -2.403  26.086  0.00  0.00    +0.292 HD
ENDBRANCH  30  32
BRANCH  29  34
ATOM     34  O   UNL     1       3.775  -2.219  28.384  0.00  0.00    -0.503 OA
ATOM     35  H   UNL     1       3.872  -3.055  27.885  0.00  0.00    +0.292 HD
ENDBRANCH  29  34
ENDBRANCH  25  26
BRANCH  24  36
ATOM     36  O   UNL     1      10.843   4.123  23.372  0.00  0.00    -0.506 OA
ATOM     37  H   UNL     1      11.224   4.972  23.099  0.00  0.00    +0.292 HD
ENDBRANCH  24  36
BRANCH  21  38
ATOM     38  O   UNL     1       7.266   7.108  24.256  0.00  0.00    -0.507 OA
ATOM     39  H   UNL     1       6.303   7.086  24.267  0.00  0.00    +0.292 HD
ENDBRANCH  21  38
ENDBRANCH  14  15
ENDBRANCH   4  14
BRANCH   1  40
ATOM     40  O   UNL     1       7.020  -4.120  25.502  0.00  0.00    -0.340 OA
BRANCH  40  44
ATOM     41  C   UNL     1       3.055  -6.239  24.009  0.00  0.00    +0.041 C 
ATOM     42  C   UNL     1       4.102  -6.239  25.114  0.00  0.00    +0.149 C 
ATOM     43  O   UNL     1       4.932  -5.065  24.988  0.00  0.00    -0.343 OA
ATOM     44  C   UNL     1       6.079  -5.139  25.868  0.00  0.00    +0.282 C 
ATOM     45  C   UNL     1       5.578  -5.105  27.345  0.00  0.00    +0.201 C 
ATOM     46  C   UNL     1       4.538  -6.216  27.589  0.00  0.00    +0.179 C 
ATOM     47  C   UNL     1       3.456  -6.248  26.509  0.00  0.00    +0.174 C 
BRANCH  47  48
ATOM     48  O   UNL     1       2.610  -5.104  26.672  0.00  0.00    -0.387 OA
ATOM     49  H   UNL     1       3.118  -4.317  26.392  0.00  0.00    +0.210 HD
ENDBRANCH  47  48
BRANCH  46  50
ATOM     50  O   UNL     1       5.226  -7.477  27.720  0.00  0.00    -0.386 OA
ATOM     51  H   UNL     1       4.653  -8.142  28.138  0.00  0.00    +0.210 HD
ENDBRANCH  46  50
BRANCH  45  52
ATOM     52  O   UNL     1       6.627  -5.292  28.306  0.00  0.00    -0.384 OA
ATOM     53  H   UNL     1       7.438  -4.895  27.922  0.00  0.00    +0.210 HD
ENDBRANCH  45  52
ENDBRANCH  40  44
ENDBRANCH   1  40
TORSDOF 16
ENDMDL
