MODEL 1
REMARK VINA RESULT:      -7.5      0.000      0.000
REMARK  Name = 
REMARK  13 active torsions:
REMARK  status: ('A' for Active; 'I' for Inactive)
REMARK    1  A    between atoms: C_1  and  C_2
REMARK    2  A    between atoms: C_3  and  O_38
REMARK    3  A    between atoms: C_5  and  O_34
REMARK    4  A    between atoms: C_6  and  O_33
REMARK    5  A    between atoms: C_8  and  O_11
REMARK    6  A    between atoms: O_11  and  C_12
REMARK    7  A    between atoms: C_13  and  C_25
REMARK    8  A    between atoms: C_17  and  O_24
REMARK    9  A    between atoms: C_19  and  O_23
REMARK   10  A    between atoms: C_27  and  O_32
REMARK   11  A    between atoms: C_28  and  O_31
REMARK   12  A    between atoms: O_34  and  C_35
REMARK   13  A    between atoms: C_35  and  C_37
REMARK                            x       y       z     vdW  Elec       q    Type
REMARK                         _______ _______ _______ _____ _____    ______ ____
ROOT
ATOM      1  C   UNL     1       7.964  -2.603  25.155  0.00  0.00    +0.214 A 
ATOM      2  C   UNL     1       8.795  -1.399  25.490  0.00  0.00    +0.238 A 
ATOM      3  O   UNL     1       9.001  -1.044  26.644  0.00  0.00    -0.283 OA
ATOM      4  C   UNL     1       9.229  -0.541  24.385  0.00  0.00    +0.109 A 
ATOM      5  C   UNL     1       8.569  -0.687  23.171  0.00  0.00    +0.147 A 
ATOM      6  C   UNL     1       8.805   0.223  22.138  0.00  0.00    +0.092 A 
ATOM      7  C   UNL     1       9.712   1.264  22.336  0.00  0.00    +0.124 A 
ATOM      8  C   UNL     1      10.410   1.392  23.531  0.00  0.00    +0.091 A 
ATOM      9  O   UNL     1       7.652  -1.681  22.937  0.00  0.00    -0.451 OA
ATOM     10  C   UNL     1      10.176   0.481  24.555  0.00  0.00    +0.135 A 
ATOM     11  C   UNL     1       7.421  -2.650  23.915  0.00  0.00    +0.181 A 
ENDROOT
BRANCH  11  12
ATOM     12  C   UNL     1       6.445  -3.694  23.460  0.00  0.00    +0.025 A 
ATOM     13  C   UNL     1       5.059  -3.455  23.587  0.00  0.00    +0.015 A 
ATOM     14  C   UNL     1       4.102  -4.397  23.177  0.00  0.00    +0.050 A 
ATOM     15  C   UNL     1       4.523  -5.603  22.639  0.00  0.00    +0.158 A 
ATOM     16  C   UNL     1       5.879  -5.871  22.509  0.00  0.00    +0.159 A 
ATOM     17  C   UNL     1       6.834  -4.929  22.899  0.00  0.00    +0.060 A 
BRANCH  15  18
ATOM     18  O   UNL     1       3.596  -6.520  22.237  0.00  0.00    -0.503 OA
ATOM     19  H   UNL     1       3.597  -6.452  21.262  0.00  0.00    +0.292 HD
ENDBRANCH  15  18
BRANCH  16  20
ATOM     20  O   UNL     1       6.236  -7.087  21.992  0.00  0.00    -0.503 OA
ATOM     21  H   UNL     1       5.565  -7.737  22.265  0.00  0.00    +0.292 HD
ENDBRANCH  16  20
ENDBRANCH  11  12
BRANCH   7  22
ATOM     22  O   UNL     1       9.954   2.198  21.374  0.00  0.00    -0.507 OA
ATOM     23  H   UNL     1      10.907   2.232  21.192  0.00  0.00    +0.292 HD
ENDBRANCH   7  22
BRANCH  10  24
ATOM     24  O   UNL     1      10.889   0.594  25.715  0.00  0.00    -0.506 OA
ATOM     25  H   UNL     1      10.785  -0.207  26.253  0.00  0.00    +0.292 HD
ENDBRANCH  10  24
BRANCH   1  26
ATOM     26  O   UNL     1       7.663  -3.569  26.105  0.00  0.00    -0.453 OA
BRANCH  26  30
ATOM     27  C   UNL     1       3.699  -2.405  27.413  0.00  0.00    +0.041 C 
ATOM     28  C   UNL     1       4.646  -3.305  28.209  0.00  0.00    +0.152 C 
ATOM     29  O   UNL     1       6.018  -3.192  27.785  0.00  0.00    -0.334 OA
ATOM     30  C   UNL     1       6.297  -3.750  26.492  0.00  0.00    +0.341 C 
ATOM     31  C   UNL     1       5.999  -5.262  26.493  0.00  0.00    +0.226 C 
ATOM     32  C   UNL     1       4.513  -5.430  26.844  0.00  0.00    +0.242 C 
ATOM     33  C   UNL     1       4.204  -4.780  28.208  0.00  0.00    +0.186 C 
BRANCH  31  34
ATOM     34  O   UNL     1       6.831  -5.969  27.436  0.00  0.00    -0.382 OA
ATOM     35  H   UNL     1       6.371  -5.907  28.294  0.00  0.00    +0.210 HD
ENDBRANCH  31  34
BRANCH  33  36
ATOM     36  O   UNL     1       4.911  -5.474  29.252  0.00  0.00    -0.385 OA
ATOM     37  H   UNL     1       5.831  -5.135  29.231  0.00  0.00    +0.210 HD
ENDBRANCH  33  36
BRANCH  32  38
ATOM     38  O   UNL     1       4.209  -6.841  26.848  0.00  0.00    -0.456 OA
BRANCH  38  39
ATOM     39  C   UNL     1       3.460  -7.252  25.787  0.00  0.00    +0.304 C 
ATOM     40  C   UNL     1       2.046  -6.783  25.927  0.00  0.00    +0.136 C 
ATOM     41  O   UNL     1       3.865  -7.952  24.868  0.00  0.00    -0.251 OA
ENDBRANCH  38  39
ENDBRANCH  32  38
ENDBRANCH  26  30
ENDBRANCH   1  26
TORSDOF 11
ENDMDL
MODEL 2
REMARK VINA RESULT:      -7.0      2.373      4.735
REMARK  Name = 
REMARK  13 active torsions:
REMARK  status: ('A' for Active; 'I' for Inactive)
REMARK    1  A    between atoms: C_1  and  C_2
REMARK    2  A    between atoms: C_3  and  O_38
REMARK    3  A    between atoms: C_5  and  O_34
REMARK    4  A    between atoms: C_6  and  O_33
REMARK    5  A    between atoms: C_8  and  O_11
REMARK    6  A    between atoms: O_11  and  C_12
REMARK    7  A    between atoms: C_13  and  C_25
REMARK    8  A    between atoms: C_17  and  O_24
REMARK    9  A    between atoms: C_19  and  O_23
REMARK   10  A    between atoms: C_27  and  O_32
REMARK   11  A    between atoms: C_28  and  O_31
REMARK   12  A    between atoms: O_34  and  C_35
REMARK   13  A    between atoms: C_35  and  C_37
REMARK                            x       y       z     vdW  Elec       q    Type
REMARK                         _______ _______ _______ _____ _____    ______ ____
ROOT
ATOM      1  C   UNL     1       7.773  -1.629  25.928  0.00  0.00    +0.214 A 
ATOM      2  C   UNL     1       8.768  -1.892  24.836  0.00  0.00    +0.238 A 
ATOM      3  O   UNL     1       9.482  -2.889  24.824  0.00  0.00    -0.283 OA
ATOM      4  C   UNL     1       8.994  -0.834  23.849  0.00  0.00    +0.109 A 
ATOM      5  C   UNL     1       8.555   0.442  24.176  0.00  0.00    +0.147 A 
ATOM      6  C   UNL     1       8.904   1.526  23.366  0.00  0.00    +0.092 A 
ATOM      7  C   UNL     1       9.682   1.309  22.230  0.00  0.00    +0.124 A 
ATOM      8  C   UNL     1      10.089   0.030  21.869  0.00  0.00    +0.091 A 
ATOM      9  O   UNL     1       7.807   0.709  25.295  0.00  0.00    -0.451 OA
ATOM     10  C   UNL     1       9.735  -1.047  22.676  0.00  0.00    +0.135 A 
ATOM     11  C   UNL     1       7.383  -0.345  26.107  0.00  0.00    +0.181 A 
ENDROOT
BRANCH  11  12
ATOM     12  C   UNL     1       6.518   0.124  27.240  0.00  0.00    +0.025 A 
ATOM     13  C   UNL     1       7.113   0.754  28.356  0.00  0.00    +0.015 A 
ATOM     14  C   UNL     1       6.352   1.212  29.443  0.00  0.00    +0.050 A 
ATOM     15  C   UNL     1       4.977   1.037  29.431  0.00  0.00    +0.158 A 
ATOM     16  C   UNL     1       4.364   0.415  28.352  0.00  0.00    +0.159 A 
ATOM     17  C   UNL     1       5.116  -0.027  27.261  0.00  0.00    +0.060 A 
BRANCH  15  18
ATOM     18  O   UNL     1       4.233   1.484  30.485  0.00  0.00    -0.503 OA
ATOM     19  H   UNL     1       4.895   1.712  31.167  0.00  0.00    +0.292 HD
ENDBRANCH  15  18
BRANCH  16  20
ATOM     20  O   UNL     1       3.006   0.249  28.406  0.00  0.00    -0.503 OA
ATOM     21  H   UNL     1       2.646   0.919  29.013  0.00  0.00    +0.292 HD
ENDBRANCH  16  20
ENDBRANCH  11  12
BRANCH   7  22
ATOM     22  O   UNL     1      10.078   2.334  21.424  0.00  0.00    -0.507 OA
ATOM     23  H   UNL     1       9.392   2.503  20.758  0.00  0.00    +0.292 HD
ENDBRANCH   7  22
BRANCH  10  24
ATOM     24  O   UNL     1      10.111  -2.305  22.299  0.00  0.00    -0.506 OA
ATOM     25  H   UNL     1       9.353  -2.787  21.931  0.00  0.00    +0.292 HD
ENDBRANCH  10  24
BRANCH   1  26
ATOM     26  O   UNL     1       7.359  -2.631  26.794  0.00  0.00    -0.453 OA
BRANCH  26  30
ATOM     27  C   UNL     1       3.220  -3.876  27.114  0.00  0.00    +0.041 C 
ATOM     28  C   UNL     1       4.422  -4.790  27.359  0.00  0.00    +0.152 C 
ATOM     29  O   UNL     1       5.640  -4.061  27.612  0.00  0.00    -0.334 OA
ATOM     30  C   UNL     1       6.177  -3.373  26.473  0.00  0.00    +0.341 C 
ATOM     31  C   UNL     1       6.535  -4.382  25.364  0.00  0.00    +0.226 C 
ATOM     32  C   UNL     1       5.240  -5.119  24.989  0.00  0.00    +0.242 C 
ATOM     33  C   UNL     1       4.634  -5.810  26.226  0.00  0.00    +0.186 C 
BRANCH  31  34
ATOM     34  O   UNL     1       7.547  -5.314  25.798  0.00  0.00    -0.382 OA
ATOM     35  H   UNL     1       7.950  -5.667  24.981  0.00  0.00    +0.210 HD
ENDBRANCH  31  34
BRANCH  33  36
ATOM     36  O   UNL     1       5.523  -6.841  26.694  0.00  0.00    -0.385 OA
ATOM     37  H   UNL     1       4.970  -7.641  26.821  0.00  0.00    +0.210 HD
ENDBRANCH  33  36
BRANCH  32  38
ATOM     38  O   UNL     1       5.550  -6.069  23.948  0.00  0.00    -0.456 OA
BRANCH  38  39
ATOM     39  C   UNL     1       5.610  -5.528  22.699  0.00  0.00    +0.304 C 
ATOM     40  C   UNL     1       6.814  -6.031  21.965  0.00  0.00    +0.136 C 
ATOM     41  O   UNL     1       4.823  -4.706  22.249  0.00  0.00    -0.251 OA
ENDBRANCH  38  39
ENDBRANCH  32  38
ENDBRANCH  26  30
ENDBRANCH   1  26
TORSDOF 11
ENDMDL
MODEL 3
REMARK VINA RESULT:      -6.9      2.567      5.036
REMARK  Name = 
REMARK  13 active torsions:
REMARK  status: ('A' for Active; 'I' for Inactive)
REMARK    1  A    between atoms: C_1  and  C_2
REMARK    2  A    between atoms: C_3  and  O_38
REMARK    3  A    between atoms: C_5  and  O_34
REMARK    4  A    between atoms: C_6  and  O_33
REMARK    5  A    between atoms: C_8  and  O_11
REMARK    6  A    between atoms: O_11  and  C_12
REMARK    7  A    between atoms: C_13  and  C_25
REMARK    8  A    between atoms: C_17  and  O_24
REMARK    9  A    between atoms: C_19  and  O_23
REMARK   10  A    between atoms: C_27  and  O_32
REMARK   11  A    between atoms: C_28  and  O_31
REMARK   12  A    between atoms: O_34  and  C_35
REMARK   13  A    between atoms: C_35  and  C_37
REMARK                            x       y       z     vdW  Elec       q    Type
REMARK                         _______ _______ _______ _____ _____    ______ ____
ROOT
ATOM      1  C   UNL     1       7.996  -0.349  25.774  0.00  0.00    +0.214 A 
ATOM      2  C   UNL     1       8.844   0.348  24.751  0.00  0.00    +0.238 A 
ATOM      3  O   UNL     1      10.064   0.241  24.727  0.00  0.00    -0.283 OA
ATOM      4  C   UNL     1       8.188   1.309  23.862  0.00  0.00    +0.109 A 
ATOM      5  C   UNL     1       6.934   1.771  24.241  0.00  0.00    +0.147 A 
ATOM      6  C   UNL     1       6.340   2.823  23.540  0.00  0.00    +0.092 A 
ATOM      7  C   UNL     1       7.011   3.391  22.458  0.00  0.00    +0.124 A 
ATOM      8  C   UNL     1       8.246   2.907  22.043  0.00  0.00    +0.091 A 
ATOM      9  O   UNL     1       6.245   1.260  25.312  0.00  0.00    -0.451 OA
ATOM     10  C   UNL     1       8.832   1.856  22.742  0.00  0.00    +0.135 A 
ATOM     11  C   UNL     1       6.768   0.170  26.011  0.00  0.00    +0.181 A 
ENDROOT
BRANCH  11  12
ATOM     12  C   UNL     1       5.848  -0.299  27.100  0.00  0.00    +0.025 A 
ATOM     13  C   UNL     1       5.728   0.460  28.286  0.00  0.00    +0.015 A 
ATOM     14  C   UNL     1       4.883   0.068  29.336  0.00  0.00    +0.050 A 
ATOM     15  C   UNL     1       4.149  -1.101  29.216  0.00  0.00    +0.158 A 
ATOM     16  C   UNL     1       4.252  -1.873  28.068  0.00  0.00    +0.159 A 
ATOM     17  C   UNL     1       5.079  -1.477  27.013  0.00  0.00    +0.060 A 
BRANCH  15  18
ATOM     18  O   UNL     1       3.325  -1.485  30.235  0.00  0.00    -0.503 OA
ATOM     19  H   UNL     1       2.751  -2.168  29.835  0.00  0.00    +0.292 HD
ENDBRANCH  15  18
BRANCH  16  20
ATOM     20  O   UNL     1       3.522  -3.030  28.015  0.00  0.00    -0.503 OA
ATOM     21  H   UNL     1       4.142  -3.771  27.895  0.00  0.00    +0.292 HD
ENDBRANCH  16  20
ENDBRANCH  11  12
BRANCH   7  22
ATOM     22  O   UNL     1       6.492   4.440  21.761  0.00  0.00    -0.507 OA
ATOM     23  H   UNL     1       6.543   4.252  20.810  0.00  0.00    +0.292 HD
ENDBRANCH   7  22
BRANCH  10  24
ATOM     24  O   UNL     1      10.031   1.365  22.309  0.00  0.00    -0.506 OA
ATOM     25  H   UNL     1      10.041   0.396  22.374  0.00  0.00    +0.292 HD
ENDBRANCH  10  24
BRANCH   1  26
ATOM     26  O   UNL     1       8.486  -1.404  26.532  0.00  0.00    -0.453 OA
BRANCH  26  30
ATOM     27  C   UNL     1       6.959  -5.406  27.188  0.00  0.00    +0.041 C 
ATOM     28  C   UNL     1       8.378  -5.085  26.714  0.00  0.00    +0.152 C 
ATOM     29  O   UNL     1       8.767  -3.724  26.984  0.00  0.00    -0.334 OA
ATOM     30  C   UNL     1       8.093  -2.737  26.189  0.00  0.00    +0.341 C 
ATOM     31  C   UNL     1       8.405  -2.956  24.696  0.00  0.00    +0.226 C 
ATOM     32  C   UNL     1       7.915  -4.367  24.334  0.00  0.00    +0.242 C 
ATOM     33  C   UNL     1       8.598  -5.421  25.228  0.00  0.00    +0.186 C 
BRANCH  31  34
ATOM     34  O   UNL     1       9.814  -2.817  24.420  0.00  0.00    -0.382 OA
ATOM     35  H   UNL     1      10.033  -1.887  24.620  0.00  0.00    +0.210 HD
ENDBRANCH  31  34
BRANCH  33  36
ATOM     36  O   UNL     1      10.013  -5.443  24.964  0.00  0.00    -0.385 OA
ATOM     37  H   UNL     1      10.202  -4.646  24.424  0.00  0.00    +0.210 HD
ENDBRANCH  33  36
BRANCH  32  38
ATOM     38  O   UNL     1       8.195  -4.594  22.937  0.00  0.00    -0.456 OA
BRANCH  38  39
ATOM     39  C   UNL     1       7.095  -4.549  22.134  0.00  0.00    +0.304 C 
ATOM     40  C   UNL     1       6.796  -5.904  21.573  0.00  0.00    +0.136 C 
ATOM     41  O   UNL     1       6.463  -3.537  21.862  0.00  0.00    -0.251 OA
ENDBRANCH  38  39
ENDBRANCH  32  38
ENDBRANCH  26  30
ENDBRANCH   1  26
TORSDOF 11
ENDMDL
MODEL 4
REMARK VINA RESULT:      -6.9      2.959      6.516
REMARK  Name = 
REMARK  13 active torsions:
REMARK  status: ('A' for Active; 'I' for Inactive)
REMARK    1  A    between atoms: C_1  and  C_2
REMARK    2  A    between atoms: C_3  and  O_38
REMARK    3  A    between atoms: C_5  and  O_34
REMARK    4  A    between atoms: C_6  and  O_33
REMARK    5  A    between atoms: C_8  and  O_11
REMARK    6  A    between atoms: O_11  and  C_12
REMARK    7  A    between atoms: C_13  and  C_25
REMARK    8  A    between atoms: C_17  and  O_24
REMARK    9  A    between atoms: C_19  and  O_23
REMARK   10  A    between atoms: C_27  and  O_32
REMARK   11  A    between atoms: C_28  and  O_31
REMARK   12  A    between atoms: O_34  and  C_35
REMARK   13  A    between atoms: C_35  and  C_37
REMARK                            x       y       z     vdW  Elec       q    Type
REMARK                         _______ _______ _______ _____ _____    ______ ____
ROOT
ATOM      1  C   UNL     1       6.619  -0.083  26.163  0.00  0.00    +0.214 A 
ATOM      2  C   UNL     1       5.389  -0.430  26.949  0.00  0.00    +0.238 A 
ATOM      3  O   UNL     1       5.200  -1.549  27.412  0.00  0.00    -0.283 OA
ATOM      4  C   UNL     1       4.319   0.567  27.018  0.00  0.00    +0.109 A 
ATOM      5  C   UNL     1       4.350   1.597  26.086  0.00  0.00    +0.147 A 
ATOM      6  C   UNL     1       3.264   2.469  25.977  0.00  0.00    +0.092 A 
ATOM      7  C   UNL     1       2.164   2.300  26.816  0.00  0.00    +0.124 A 
ATOM      8  C   UNL     1       2.141   1.301  27.781  0.00  0.00    +0.091 A 
ATOM      9  O   UNL     1       5.401   1.789  25.224  0.00  0.00    -0.451 OA
ATOM     10  C   UNL     1       3.226   0.438  27.889  0.00  0.00    +0.135 A 
ATOM     11  C   UNL     1       6.535   0.981  25.329  0.00  0.00    +0.181 A 
ENDROOT
BRANCH  11  12
ATOM     12  C   UNL     1       7.607   1.380  24.359  0.00  0.00    +0.025 A 
ATOM     13  C   UNL     1       8.697   2.160  24.806  0.00  0.00    +0.015 A 
ATOM     14  C   UNL     1       9.727   2.562  23.941  0.00  0.00    +0.050 A 
ATOM     15  C   UNL     1       9.675   2.193  22.606  0.00  0.00    +0.158 A 
ATOM     16  C   UNL     1       8.613   1.434  22.135  0.00  0.00    +0.159 A 
ATOM     17  C   UNL     1       7.595   1.018  22.996  0.00  0.00    +0.060 A 
BRANCH  15  18
ATOM     18  O   UNL     1      10.676   2.580  21.762  0.00  0.00    -0.503 OA
ATOM     19  H   UNL     1      10.890   1.771  21.257  0.00  0.00    +0.292 HD
ENDBRANCH  15  18
BRANCH  16  20
ATOM     20  O   UNL     1       8.603   1.119  20.802  0.00  0.00    -0.503 OA
ATOM     21  H   UNL     1       8.037   1.767  20.346  0.00  0.00    +0.292 HD
ENDBRANCH  16  20
ENDBRANCH  11  12
BRANCH   7  22
ATOM     22  O   UNL     1       1.065   3.102  26.729  0.00  0.00    -0.507 OA
ATOM     23  H   UNL     1       0.847   3.444  27.611  0.00  0.00    +0.292 HD
ENDBRANCH   7  22
BRANCH  10  24
ATOM     24  O   UNL     1       3.211  -0.522  28.861  0.00  0.00    -0.506 OA
ATOM     25  H   UNL     1       4.116  -0.800  29.074  0.00  0.00    +0.292 HD
ENDBRANCH  10  24
BRANCH   1  26
ATOM     26  O   UNL     1       7.754  -0.881  26.193  0.00  0.00    -0.453 OA
BRANCH  26  30
ATOM     27  C   UNL     1       7.221  -5.102  27.017  0.00  0.00    +0.041 C 
ATOM     28  C   UNL     1       8.469  -4.494  26.375  0.00  0.00    +0.152 C 
ATOM     29  O   UNL     1       8.583  -3.075  26.600  0.00  0.00    -0.334 OA
ATOM     30  C   UNL     1       7.622  -2.275  25.896  0.00  0.00    +0.341 C 
ATOM     31  C   UNL     1       7.793  -2.457  24.376  0.00  0.00    +0.226 C 
ATOM     32  C   UNL     1       7.581  -3.947  24.071  0.00  0.00    +0.242 C 
ATOM     33  C   UNL     1       8.578  -4.808  24.872  0.00  0.00    +0.186 C 
BRANCH  31  34
ATOM     34  O   UNL     1       9.095  -2.023  23.930  0.00  0.00    -0.382 OA
ATOM     35  H   UNL     1       9.684  -2.794  24.045  0.00  0.00    +0.210 HD
ENDBRANCH  31  34
BRANCH  33  36
ATOM     36  O   UNL     1       9.922  -4.531  24.438  0.00  0.00    -0.385 OA
ATOM     37  H   UNL     1      10.024  -4.969  23.567  0.00  0.00    +0.210 HD
ENDBRANCH  33  36
BRANCH  32  38
ATOM     38  O   UNL     1       7.735  -4.142  22.650  0.00  0.00    -0.456 OA
BRANCH  38  39
ATOM     39  C   UNL     1       6.601  -4.559  22.019  0.00  0.00    +0.304 C 
ATOM     40  C   UNL     1       6.700  -6.009  21.662  0.00  0.00    +0.136 C 
ATOM     41  O   UNL     1       5.650  -3.844  21.733  0.00  0.00    -0.251 OA
ENDBRANCH  38  39
ENDBRANCH  32  38
ENDBRANCH  26  30
ENDBRANCH   1  26
TORSDOF 11
ENDMDL
MODEL 5
REMARK VINA RESULT:      -6.8      2.728      8.506
REMARK  Name = 
REMARK  13 active torsions:
REMARK  status: ('A' for Active; 'I' for Inactive)
REMARK    1  A    between atoms: C_1  and  C_2
REMARK    2  A    between atoms: C_3  and  O_38
REMARK    3  A    between atoms: C_5  and  O_34
REMARK    4  A    between atoms: C_6  and  O_33
REMARK    5  A    between atoms: C_8  and  O_11
REMARK    6  A    between atoms: O_11  and  C_12
REMARK    7  A    between atoms: C_13  and  C_25
REMARK    8  A    between atoms: C_17  and  O_24
REMARK    9  A    between atoms: C_19  and  O_23
REMARK   10  A    between atoms: C_27  and  O_32
REMARK   11  A    between atoms: C_28  and  O_31
REMARK   12  A    between atoms: O_34  and  C_35
REMARK   13  A    between atoms: C_35  and  C_37
REMARK                            x       y       z     vdW  Elec       q    Type
REMARK                         _______ _______ _______ _____ _____    ______ ____
ROOT
ATOM      1  C   UNL     1       7.343  -1.547  24.602  0.00  0.00    +0.214 A 
ATOM      2  C   UNL     1       7.554  -2.618  23.573  0.00  0.00    +0.238 A 
ATOM      3  O   UNL     1       8.474  -2.580  22.765  0.00  0.00    -0.283 OA
ATOM      4  C   UNL     1       6.524  -3.650  23.441  0.00  0.00    +0.109 A 
ATOM      5  C   UNL     1       5.284  -3.384  24.008  0.00  0.00    +0.147 A 
ATOM      6  C   UNL     1       4.207  -4.240  23.758  0.00  0.00    +0.092 A 
ATOM      7  C   UNL     1       4.397  -5.359  22.948  0.00  0.00    +0.124 A 
ATOM      8  C   UNL     1       5.644  -5.658  22.412  0.00  0.00    +0.091 A 
ATOM      9  O   UNL     1       5.044  -2.284  24.792  0.00  0.00    -0.451 OA
ATOM     10  C   UNL     1       6.713  -4.806  22.668  0.00  0.00    +0.135 A 
ATOM     11  C   UNL     1       6.097  -1.429  25.120  0.00  0.00    +0.181 A 
ENDROOT
BRANCH  11  12
ATOM     12  C   UNL     1       5.666  -0.325  26.040  0.00  0.00    +0.025 A 
ATOM     13  C   UNL     1       4.979   0.792  25.515  0.00  0.00    +0.015 A 
ATOM     14  C   UNL     1       4.553   1.852  26.331  0.00  0.00    +0.050 A 
ATOM     15  C   UNL     1       4.819   1.812  27.690  0.00  0.00    +0.158 A 
ATOM     16  C   UNL     1       5.500   0.733  28.234  0.00  0.00    +0.159 A 
ATOM     17  C   UNL     1       5.910  -0.333  27.429  0.00  0.00    +0.060 A 
BRANCH  15  18
ATOM     18  O   UNL     1       4.404   2.841  28.487  0.00  0.00    -0.503 OA
ATOM     19  H   UNL     1       3.927   3.439  27.878  0.00  0.00    +0.292 HD
ENDBRANCH  15  18
BRANCH  16  20
ATOM     20  O   UNL     1       5.755   0.759  29.580  0.00  0.00    -0.503 OA
ATOM     21  H   UNL     1       4.908   0.650  30.047  0.00  0.00    +0.292 HD
ENDBRANCH  16  20
ENDBRANCH  11  12
BRANCH   7  22
ATOM     22  O   UNL     1       3.374  -6.207  22.645  0.00  0.00    -0.507 OA
ATOM     23  H   UNL     1       3.738  -7.062  22.364  0.00  0.00    +0.292 HD
ENDBRANCH   7  22
BRANCH  10  24
ATOM     24  O   UNL     1       7.943  -5.123  22.165  0.00  0.00    -0.506 OA
ATOM     25  H   UNL     1       7.866  -5.402  21.239  0.00  0.00    +0.292 HD
ENDBRANCH  10  24
BRANCH   1  26
ATOM     26  O   UNL     1       8.342  -0.639  24.926  0.00  0.00    -0.453 OA
BRANCH  26  30
ATOM     27  C   UNL     1       6.601   2.832  23.003  0.00  0.00    +0.041 C 
ATOM     28  C   UNL     1       7.643   1.915  22.360  0.00  0.00    +0.152 C 
ATOM     29  O   UNL     1       7.736   0.630  23.005  0.00  0.00    -0.334 OA
ATOM     30  C   UNL     1       8.317   0.656  24.318  0.00  0.00    +0.341 C 
ATOM     31  C   UNL     1       9.766   1.176  24.245  0.00  0.00    +0.226 C 
ATOM     32  C   UNL     1       9.709   2.592  23.652  0.00  0.00    +0.242 C 
ATOM     33  C   UNL     1       9.033   2.569  22.266  0.00  0.00    +0.186 C 
BRANCH  31  34
ATOM     34  O   UNL     1      10.601   0.317  23.441  0.00  0.00    -0.382 OA
ATOM     35  H   UNL     1      10.854  -0.426  24.023  0.00  0.00    +0.210 HD
ENDBRANCH  31  34
BRANCH  33  36
ATOM     36  O   UNL     1       9.838   1.814  21.342  0.00  0.00    -0.385 OA
ATOM     37  H   UNL     1       9.215   1.249  20.836  0.00  0.00    +0.210 HD
ENDBRANCH  33  36
BRANCH  32  38
ATOM     38  O   UNL     1      11.057   3.101  23.576  0.00  0.00    -0.456 OA
BRANCH  38  39
ATOM     39  C   UNL     1      11.141   4.461  23.608  0.00  0.00    +0.304 C 
ATOM     40  C   UNL     1      12.484   4.917  23.128  0.00  0.00    +0.136 C 
ATOM     41  O   UNL     1      10.266   5.212  24.018  0.00  0.00    -0.251 OA
ENDBRANCH  38  39
ENDBRANCH  32  38
ENDBRANCH  26  30
ENDBRANCH   1  26
TORSDOF 11
ENDMDL
MODEL 6
REMARK VINA RESULT:      -6.8      2.638      7.725
REMARK  Name = 
REMARK  13 active torsions:
REMARK  status: ('A' for Active; 'I' for Inactive)
REMARK    1  A    between atoms: C_1  and  C_2
REMARK    2  A    between atoms: C_3  and  O_38
REMARK    3  A    between atoms: C_5  and  O_34
REMARK    4  A    between atoms: C_6  and  O_33
REMARK    5  A    between atoms: C_8  and  O_11
REMARK    6  A    between atoms: O_11  and  C_12
REMARK    7  A    between atoms: C_13  and  C_25
REMARK    8  A    between atoms: C_17  and  O_24
REMARK    9  A    between atoms: C_19  and  O_23
REMARK   10  A    between atoms: C_27  and  O_32
REMARK   11  A    between atoms: C_28  and  O_31
REMARK   12  A    between atoms: O_34  and  C_35
REMARK   13  A    between atoms: C_35  and  C_37
REMARK                            x       y       z     vdW  Elec       q    Type
REMARK                         _______ _______ _______ _____ _____    ______ ____
ROOT
ATOM      1  C   UNL     1       6.979  -1.126  25.772  0.00  0.00    +0.214 A 
ATOM      2  C   UNL     1       6.696  -0.390  27.049  0.00  0.00    +0.238 A 
ATOM      3  O   UNL     1       7.538   0.303  27.608  0.00  0.00    -0.283 OA
ATOM      4  C   UNL     1       5.419  -0.650  27.717  0.00  0.00    +0.109 A 
ATOM      5  C   UNL     1       4.724  -1.790  27.335  0.00  0.00    +0.147 A 
ATOM      6  C   UNL     1       3.600  -2.193  28.061  0.00  0.00    +0.092 A 
ATOM      7  C   UNL     1       3.184  -1.438  29.156  0.00  0.00    +0.124 A 
ATOM      8  C   UNL     1       3.847  -0.272  29.519  0.00  0.00    +0.091 A 
ATOM      9  O   UNL     1       5.108  -2.578  26.280  0.00  0.00    -0.451 OA
ATOM     10  C   UNL     1       4.962   0.129  28.792  0.00  0.00    +0.135 A 
ATOM     11  C   UNL     1       6.189  -2.188  25.487  0.00  0.00    +0.181 A 
ENDROOT
BRANCH  11  12
ATOM     12  C   UNL     1       6.419  -3.128  24.341  0.00  0.00    +0.025 A 
ATOM     13  C   UNL     1       7.244  -4.260  24.522  0.00  0.00    +0.015 A 
ATOM     14  C   UNL     1       7.493  -5.172  23.483  0.00  0.00    +0.050 A 
ATOM     15  C   UNL     1       6.923  -4.955  22.239  0.00  0.00    +0.158 A 
ATOM     16  C   UNL     1       6.114  -3.847  22.027  0.00  0.00    +0.159 A 
ATOM     17  C   UNL     1       5.850  -2.947  23.063  0.00  0.00    +0.060 A 
BRANCH  15  18
ATOM     18  O   UNL     1       7.160  -5.841  21.227  0.00  0.00    -0.503 OA
ATOM     19  H   UNL     1       8.133  -5.937  21.216  0.00  0.00    +0.292 HD
ENDBRANCH  15  18
BRANCH  16  20
ATOM     20  O   UNL     1       5.597  -3.672  20.771  0.00  0.00    -0.503 OA
ATOM     21  H   UNL     1       6.316  -3.365  20.192  0.00  0.00    +0.292 HD
ENDBRANCH  16  20
ENDBRANCH  11  12
BRANCH   7  22
ATOM     22  O   UNL     1       2.115  -1.805  29.917  0.00  0.00    -0.507 OA
ATOM     23  H   UNL     1       2.138  -2.764  30.062  0.00  0.00    +0.292 HD
ENDBRANCH   7  22
BRANCH  10  24
ATOM     24  O   UNL     1       5.590   1.293  29.135  0.00  0.00    -0.506 OA
ATOM     25  H   UNL     1       5.428   1.500  30.069  0.00  0.00    +0.292 HD
ENDBRANCH  10  24
BRANCH   1  26
ATOM     26  O   UNL     1       8.071  -0.811  24.975  0.00  0.00    -0.453 OA
BRANCH  26  30
ATOM     27  C   UNL     1       6.445   2.445  22.623  0.00  0.00    +0.041 C 
ATOM     28  C   UNL     1       7.581   1.528  22.166  0.00  0.00    +0.152 C 
ATOM     29  O   UNL     1       7.643   0.296  22.911  0.00  0.00    -0.334 OA
ATOM     30  C   UNL     1       8.073   0.437  24.273  0.00  0.00    +0.341 C 
ATOM     31  C   UNL     1       9.503   1.007  24.320  0.00  0.00    +0.226 C 
ATOM     32  C   UNL     1       9.468   2.375  23.621  0.00  0.00    +0.242 C 
ATOM     33  C   UNL     1       8.951   2.228  22.176  0.00  0.00    +0.186 C 
BRANCH  31  34
ATOM     34  O   UNL     1      10.450   0.128  23.678  0.00  0.00    -0.382 OA
ATOM     35  H   UNL     1      10.254  -0.766  24.018  0.00  0.00    +0.210 HD
ENDBRANCH  31  34
BRANCH  33  36
ATOM     36  O   UNL     1       9.878   1.443  21.403  0.00  0.00    -0.385 OA
ATOM     37  H   UNL     1      10.675   1.332  21.963  0.00  0.00    +0.210 HD
ENDBRANCH  33  36
BRANCH  32  38
ATOM     38  O   UNL     1      10.799   2.931  23.655  0.00  0.00    -0.456 OA
BRANCH  38  39
ATOM     39  C   UNL     1      10.834   4.293  23.643  0.00  0.00    +0.304 C 
ATOM     40  C   UNL     1      12.192   4.781  23.245  0.00  0.00    +0.136 C 
ATOM     41  O   UNL     1       9.906   5.025  23.960  0.00  0.00    -0.251 OA
ENDBRANCH  38  39
ENDBRANCH  32  38
ENDBRANCH  26  30
ENDBRANCH   1  26
TORSDOF 11
ENDMDL
MODEL 7
REMARK VINA RESULT:      -6.7      1.703      2.008
REMARK  Name = 
REMARK  13 active torsions:
REMARK  status: ('A' for Active; 'I' for Inactive)
REMARK    1  A    between atoms: C_1  and  C_2
REMARK    2  A    between atoms: C_3  and  O_38
REMARK    3  A    between atoms: C_5  and  O_34
REMARK    4  A    between atoms: C_6  and  O_33
REMARK    5  A    between atoms: C_8  and  O_11
REMARK    6  A    between atoms: O_11  and  C_12
REMARK    7  A    between atoms: C_13  and  C_25
REMARK    8  A    between atoms: C_17  and  O_24
REMARK    9  A    between atoms: C_19  and  O_23
REMARK   10  A    between atoms: C_27  and  O_32
REMARK   11  A    between atoms: C_28  and  O_31
REMARK   12  A    between atoms: O_34  and  C_35
REMARK   13  A    between atoms: C_35  and  C_37
REMARK                            x       y       z     vdW  Elec       q    Type
REMARK                         _______ _______ _______ _____ _____    ______ ____
ROOT
ATOM      1  C   UNL     1       7.122  -1.266  25.255  0.00  0.00    +0.214 A 
ATOM      2  C   UNL     1       7.218   0.181  25.641  0.00  0.00    +0.238 A 
ATOM      3  O   UNL     1       7.011   0.571  26.784  0.00  0.00    -0.283 OA
ATOM      4  C   UNL     1       7.408   1.162  24.570  0.00  0.00    +0.109 A 
ATOM      5  C   UNL     1       7.138   0.744  23.273  0.00  0.00    +0.147 A 
ATOM      6  C   UNL     1       7.118   1.678  22.233  0.00  0.00    +0.092 A 
ATOM      7  C   UNL     1       7.382   3.018  22.510  0.00  0.00    +0.124 A 
ATOM      8  C   UNL     1       7.697   3.438  23.797  0.00  0.00    +0.091 A 
ATOM      9  O   UNL     1       6.849  -0.559  22.954  0.00  0.00    -0.451 OA
ATOM     10  C   UNL     1       7.721   2.505  24.828  0.00  0.00    +0.135 A 
ATOM     11  C   UNL     1       6.912  -1.540  23.946  0.00  0.00    +0.181 A 
ENDROOT
BRANCH  11  12
ATOM     12  C   UNL     1       6.639  -2.912  23.403  0.00  0.00    +0.025 A 
ATOM     13  C   UNL     1       7.717  -3.720  22.977  0.00  0.00    +0.015 A 
ATOM     14  C   UNL     1       7.519  -5.011  22.462  0.00  0.00    +0.050 A 
ATOM     15  C   UNL     1       6.231  -5.509  22.356  0.00  0.00    +0.158 A 
ATOM     16  C   UNL     1       5.150  -4.737  22.759  0.00  0.00    +0.159 A 
ATOM     17  C   UNL     1       5.344  -3.458  23.288  0.00  0.00    +0.060 A 
BRANCH  15  18
ATOM     18  O   UNL     1       6.034  -6.765  21.858  0.00  0.00    -0.503 OA
ATOM     19  H   UNL     1       6.801  -7.276  22.184  0.00  0.00    +0.292 HD
ENDBRANCH  15  18
BRANCH  16  20
ATOM     20  O   UNL     1       3.899  -5.272  22.610  0.00  0.00    -0.503 OA
ATOM     21  H   UNL     1       3.317  -4.861  23.273  0.00  0.00    +0.292 HD
ENDBRANCH  16  20
ENDBRANCH  11  12
BRANCH   7  22
ATOM     22  O   UNL     1       7.343   3.973  21.539  0.00  0.00    -0.507 OA
ATOM     23  H   UNL     1       6.434   4.059  21.209  0.00  0.00    +0.292 HD
ENDBRANCH   7  22
BRANCH  10  24
ATOM     24  O   UNL     1       8.063   2.919  26.084  0.00  0.00    -0.506 OA
ATOM     25  H   UNL     1       8.935   3.344  26.072  0.00  0.00    +0.292 HD
ENDBRANCH  10  24
BRANCH   1  26
ATOM     26  O   UNL     1       7.128  -2.276  26.206  0.00  0.00    -0.453 OA
BRANCH  26  30
ATOM     27  C   UNL     1       3.002  -2.493  27.513  0.00  0.00    +0.041 C 
ATOM     28  C   UNL     1       4.183  -3.107  28.266  0.00  0.00    +0.152 C 
ATOM     29  O   UNL     1       5.452  -2.545  27.876  0.00  0.00    -0.334 OA
ATOM     30  C   UNL     1       5.887  -2.899  26.554  0.00  0.00    +0.341 C 
ATOM     31  C   UNL     1       6.073  -4.425  26.449  0.00  0.00    +0.226 C 
ATOM     32  C   UNL     1       4.715  -5.070  26.761  0.00  0.00    +0.242 C 
ATOM     33  C   UNL     1       4.223  -4.643  28.158  0.00  0.00    +0.186 C 
BRANCH  31  34
ATOM     34  O   UNL     1       7.087  -4.902  27.359  0.00  0.00    -0.382 OA
ATOM     35  H   UNL     1       7.318  -4.139  27.922  0.00  0.00    +0.210 HD
ENDBRANCH  31  34
BRANCH  33  36
ATOM     36  O   UNL     1       5.113  -5.154  29.167  0.00  0.00    -0.385 OA
ATOM     37  H   UNL     1       5.462  -6.002  28.820  0.00  0.00    +0.210 HD
ENDBRANCH  33  36
BRANCH  32  38
ATOM     38  O   UNL     1       4.864  -6.502  26.666  0.00  0.00    -0.456 OA
BRANCH  38  39
ATOM     39  C   UNL     1       4.121  -7.076  25.679  0.00  0.00    +0.304 C 
ATOM     40  C   UNL     1       2.681  -7.152  26.080  0.00  0.00    +0.136 C 
ATOM     41  O   UNL     1       4.566  -7.517  24.628  0.00  0.00    -0.251 OA
ENDBRANCH  38  39
ENDBRANCH  32  38
ENDBRANCH  26  30
ENDBRANCH   1  26
TORSDOF 11
ENDMDL
MODEL 8
REMARK VINA RESULT:      -6.7      2.893      7.667
REMARK  Name = 
REMARK  13 active torsions:
REMARK  status: ('A' for Active; 'I' for Inactive)
REMARK    1  A    between atoms: C_1  and  C_2
REMARK    2  A    between atoms: C_3  and  O_38
REMARK    3  A    between atoms: C_5  and  O_34
REMARK    4  A    between atoms: C_6  and  O_33
REMARK    5  A    between atoms: C_8  and  O_11
REMARK    6  A    between atoms: O_11  and  C_12
REMARK    7  A    between atoms: C_13  and  C_25
REMARK    8  A    between atoms: C_17  and  O_24
REMARK    9  A    between atoms: C_19  and  O_23
REMARK   10  A    between atoms: C_27  and  O_32
REMARK   11  A    between atoms: C_28  and  O_31
REMARK   12  A    between atoms: O_34  and  C_35
REMARK   13  A    between atoms: C_35  and  C_37
REMARK                            x       y       z     vdW  Elec       q    Type
REMARK                         _______ _______ _______ _____ _____    ______ ____
ROOT
ATOM      1  C   UNL     1       5.567  -1.984  26.081  0.00  0.00    +0.214 A 
ATOM      2  C   UNL     1       4.890  -2.495  27.319  0.00  0.00    +0.238 A 
ATOM      3  O   UNL     1       4.183  -1.784  28.023  0.00  0.00    -0.283 OA
ATOM      4  C   UNL     1       5.227  -3.847  27.773  0.00  0.00    +0.109 A 
ATOM      5  C   UNL     1       6.381  -4.420  27.255  0.00  0.00    +0.147 A 
ATOM      6  C   UNL     1       6.858  -5.622  27.784  0.00  0.00    +0.092 A 
ATOM      7  C   UNL     1       6.161  -6.238  28.822  0.00  0.00    +0.124 A 
ATOM      8  C   UNL     1       4.981  -5.695  29.318  0.00  0.00    +0.091 A 
ATOM      9  O   UNL     1       7.114  -3.840  26.250  0.00  0.00    -0.451 OA
ATOM     10  C   UNL     1       4.507  -4.501  28.785  0.00  0.00    +0.135 A 
ATOM     11  C   UNL     1       6.651  -2.669  25.647  0.00  0.00    +0.181 A 
ENDROOT
BRANCH  11  12
ATOM     12  C   UNL     1       7.539  -2.221  24.524  0.00  0.00    +0.025 A 
ATOM     13  C   UNL     1       7.234  -2.605  23.199  0.00  0.00    +0.015 A 
ATOM     14  C   UNL     1       8.030  -2.214  22.110  0.00  0.00    +0.050 A 
ATOM     15  C   UNL     1       9.154  -1.436  22.336  0.00  0.00    +0.158 A 
ATOM     16  C   UNL     1       9.484  -1.049  23.627  0.00  0.00    +0.159 A 
ATOM     17  C   UNL     1       8.685  -1.421  24.711  0.00  0.00    +0.060 A 
BRANCH  15  18
ATOM     18  O   UNL     1       9.929  -1.051  21.280  0.00  0.00    -0.503 OA
ATOM     19  H   UNL     1      10.596  -0.457  21.676  0.00  0.00    +0.292 HD
ENDBRANCH  15  18
BRANCH  16  20
ATOM     20  O   UNL     1      10.619  -0.300  23.793  0.00  0.00    -0.503 OA
ATOM     21  H   UNL     1      10.424   0.608  23.500  0.00  0.00    +0.292 HD
ENDBRANCH  16  20
ENDBRANCH  11  12
BRANCH   7  22
ATOM     22  O   UNL     1       6.599  -7.393  29.396  0.00  0.00    -0.507 OA
ATOM     23  H   UNL     1       6.474  -7.342  30.357  0.00  0.00    +0.292 HD
ENDBRANCH   7  22
BRANCH  10  24
ATOM     24  O   UNL     1       3.331  -3.990  29.255  0.00  0.00    -0.506 OA
ATOM     25  H   UNL     1       3.227  -3.067  28.970  0.00  0.00    +0.292 HD
ENDBRANCH  10  24
BRANCH   1  26
ATOM     26  O   UNL     1       5.178  -0.799  25.474  0.00  0.00    -0.453 OA
BRANCH  26  30
ATOM     27  C   UNL     1       6.609   2.257  28.194  0.00  0.00    +0.041 C 
ATOM     28  C   UNL     1       5.562   2.488  27.103  0.00  0.00    +0.152 C 
ATOM     29  O   UNL     1       4.955   1.266  26.638  0.00  0.00    -0.334 OA
ATOM     30  C   UNL     1       5.820   0.418  25.869  0.00  0.00    +0.341 C 
ATOM     31  C   UNL     1       6.280   1.150  24.593  0.00  0.00    +0.226 C 
ATOM     32  C   UNL     1       7.024   2.417  25.041  0.00  0.00    +0.242 C 
ATOM     33  C   UNL     1       6.110   3.298  25.915  0.00  0.00    +0.186 C 
BRANCH  31  34
ATOM     34  O   UNL     1       5.166   1.485  23.740  0.00  0.00    -0.382 OA
ATOM     35  H   UNL     1       5.460   1.285  22.830  0.00  0.00    +0.210 HD
ENDBRANCH  31  34
BRANCH  33  36
ATOM     36  O   UNL     1       5.002   3.779  25.132  0.00  0.00    -0.385 OA
ATOM     37  H   UNL     1       4.786   4.669  25.483  0.00  0.00    +0.210 HD
ENDBRANCH  33  36
BRANCH  32  38
ATOM     38  O   UNL     1       7.468   3.118  23.860  0.00  0.00    -0.456 OA
BRANCH  38  39
ATOM     39  C   UNL     1       8.635   2.648  23.338  0.00  0.00    +0.304 C 
ATOM     40  C   UNL     1       8.447   2.244  21.909  0.00  0.00    +0.136 C 
ATOM     41  O   UNL     1       9.683   2.521  23.957  0.00  0.00    -0.251 OA
ENDBRANCH  38  39
ENDBRANCH  32  38
ENDBRANCH  26  30
ENDBRANCH   1  26
TORSDOF 11
ENDMDL
MODEL 9
REMARK VINA RESULT:      -6.7      3.138      8.819
REMARK  Name = 
REMARK  13 active torsions:
REMARK  status: ('A' for Active; 'I' for Inactive)
REMARK    1  A    between atoms: C_1  and  C_2
REMARK    2  A    between atoms: C_3  and  O_38
REMARK    3  A    between atoms: C_5  and  O_34
REMARK    4  A    between atoms: C_6  and  O_33
REMARK    5  A    between atoms: C_8  and  O_11
REMARK    6  A    between atoms: O_11  and  C_12
REMARK    7  A    between atoms: C_13  and  C_25
REMARK    8  A    between atoms: C_17  and  O_24
REMARK    9  A    between atoms: C_19  and  O_23
REMARK   10  A    between atoms: C_27  and  O_32
REMARK   11  A    between atoms: C_28  and  O_31
REMARK   12  A    between atoms: O_34  and  C_35
REMARK   13  A    between atoms: C_35  and  C_37
REMARK                            x       y       z     vdW  Elec       q    Type
REMARK                         _______ _______ _______ _____ _____    ______ ____
ROOT
ATOM      1  C   UNL     1       8.492  -0.956  25.899  0.00  0.00    +0.214 A 
ATOM      2  C   UNL     1       8.807  -2.299  25.309  0.00  0.00    +0.238 A 
ATOM      3  O   UNL     1       9.527  -2.432  24.326  0.00  0.00    -0.283 OA
ATOM      4  C   UNL     1       8.093  -3.462  25.840  0.00  0.00    +0.109 A 
ATOM      5  C   UNL     1       6.946  -3.217  26.583  0.00  0.00    +0.147 A 
ATOM      6  C   UNL     1       6.120  -4.280  26.957  0.00  0.00    +0.092 A 
ATOM      7  C   UNL     1       6.465  -5.579  26.586  0.00  0.00    +0.124 A 
ATOM      8  C   UNL     1       7.634  -5.839  25.881  0.00  0.00    +0.091 A 
ATOM      9  O   UNL     1       6.552  -1.955  26.951  0.00  0.00    -0.451 OA
ATOM     10  C   UNL     1       8.456  -4.778  25.515  0.00  0.00    +0.135 A 
ATOM     11  C   UNL     1       7.371  -0.864  26.653  0.00  0.00    +0.181 A 
ENDROOT
BRANCH  11  12
ATOM     12  C   UNL     1       6.820   0.422  27.193  0.00  0.00    +0.025 A 
ATOM     13  C   UNL     1       5.636   0.960  26.640  0.00  0.00    +0.015 A 
ATOM     14  C   UNL     1       5.077   2.161  27.108  0.00  0.00    +0.050 A 
ATOM     15  C   UNL     1       5.704   2.847  28.135  0.00  0.00    +0.158 A 
ATOM     16  C   UNL     1       6.873   2.349  28.693  0.00  0.00    +0.159 A 
ATOM     17  C   UNL     1       7.423   1.146  28.243  0.00  0.00    +0.060 A 
BRANCH  15  18
ATOM     18  O   UNL     1       5.162   4.013  28.594  0.00  0.00    -0.503 OA
ATOM     19  H   UNL     1       5.012   3.850  29.546  0.00  0.00    +0.292 HD
ENDBRANCH  15  18
BRANCH  16  20
ATOM     20  O   UNL     1       7.461   3.082  29.689  0.00  0.00    -0.503 OA
ATOM     21  H   UNL     1       8.409   2.860  29.705  0.00  0.00    +0.292 HD
ENDBRANCH  16  20
ENDBRANCH  11  12
BRANCH   7  22
ATOM     22  O   UNL     1       5.679  -6.647  26.896  0.00  0.00    -0.507 OA
ATOM     23  H   UNL     1       4.748  -6.414  26.750  0.00  0.00    +0.292 HD
ENDBRANCH   7  22
BRANCH  10  24
ATOM     24  O   UNL     1       9.619  -5.044  24.849  0.00  0.00    -0.506 OA
ATOM     25  H   UNL     1       9.499  -5.798  24.250  0.00  0.00    +0.292 HD
ENDBRANCH  10  24
BRANCH   1  26
ATOM     26  O   UNL     1       9.244   0.170  25.594  0.00  0.00    -0.453 OA
BRANCH  26  30
ATOM     27  C   UNL     1       6.374   1.864  22.823  0.00  0.00    +0.041 C 
ATOM     28  C   UNL     1       7.795   1.439  22.449  0.00  0.00    +0.152 C 
ATOM     29  O   UNL     1       8.382   0.534  23.404  0.00  0.00    -0.334 OA
ATOM     30  C   UNL     1       8.707   1.125  24.671  0.00  0.00    +0.341 C 
ATOM     31  C   UNL     1       9.751   2.243  24.482  0.00  0.00    +0.226 C 
ATOM     32  C   UNL     1       9.130   3.287  23.543  0.00  0.00    +0.242 C 
ATOM     33  C   UNL     1       8.728   2.638  22.204  0.00  0.00    +0.186 C 
BRANCH  31  34
ATOM     34  O   UNL     1      10.985   1.733  23.935  0.00  0.00    -0.382 OA
ATOM     35  H   UNL     1      11.687   2.323  24.271  0.00  0.00    +0.210 HD
ENDBRANCH  31  34
BRANCH  33  36
ATOM     36  O   UNL     1       9.904   2.175  21.514  0.00  0.00    -0.385 OA
ATOM     37  H   UNL     1      10.408   1.640  22.162  0.00  0.00    +0.210 HD
ENDBRANCH  33  36
BRANCH  32  38
ATOM     38  O   UNL     1      10.090   4.348  23.353  0.00  0.00    -0.456 OA
BRANCH  38  39
ATOM     39  C   UNL     1       9.747   5.524  23.949  0.00  0.00    +0.304 C 
ATOM     40  C   UNL     1       8.259   5.637  24.074  0.00  0.00    +0.136 C 
ATOM     41  O   UNL     1      10.534   6.396  24.292  0.00  0.00    -0.251 OA
ENDBRANCH  38  39
ENDBRANCH  32  38
ENDBRANCH  26  30
ENDBRANCH   1  26
TORSDOF 11
ENDMDL
