MODEL 1
REMARK VINA RESULT:      -7.9      0.000      0.000
REMARK  Name = 
REMARK  17 active torsions:
REMARK  status: ('A' for Active; 'I' for Inactive)
REMARK    1  A    between atoms: C_1  and  C_2
REMARK    2  A    between atoms: C_4  and  O_53
REMARK    3  A    between atoms: C_6  and  O_52
REMARK    4  A    between atoms: C_8  and  O_51
REMARK    5  A    between atoms: C_10  and  O_13
REMARK    6  A    between atoms: O_13  and  C_14
REMARK    7  A    between atoms: C_14  and  C_15
REMARK    8  A    between atoms: C_17  and  O_50
REMARK    9  A    between atoms: C_19  and  O_49
REMARK   10  A    between atoms: C_21  and  O_48
REMARK   11  A    between atoms: C_23  and  O_26
REMARK   12  A    between atoms: O_26  and  C_27
REMARK   13  A    between atoms: C_28  and  C_40
REMARK   14  A    between atoms: C_32  and  O_39
REMARK   15  A    between atoms: C_34  and  O_38
REMARK   16  A    between atoms: C_42  and  O_47
REMARK   17  A    between atoms: C_43  and  O_46
REMARK                            x       y       z     vdW  Elec       q    Type
REMARK                         _______ _______ _______ _____ _____    ______ ____
ROOT
ATOM      1  C   UNL     1       7.684  -0.923  23.897  0.00  0.00    +0.179 C 
ATOM      2  O   UNL     1       8.277   0.193  24.582  0.00  0.00    -0.331 OA
ATOM      3  C   UNL     1       8.428   1.309  23.690  0.00  0.00    +0.340 C 
ATOM      4  C   UNL     1       9.545   0.966  22.673  0.00  0.00    +0.214 C 
ATOM      5  C   UNL     1       9.124  -0.354  21.965  0.00  0.00    +0.180 C 
ATOM      6  C   UNL     1       8.732  -1.488  22.939  0.00  0.00    +0.177 C 
ENDROOT
BRANCH   6   7
ATOM      7  O   UNL     1       8.227  -2.547  22.116  0.00  0.00    -0.386 OA
ATOM      8  H   UNL     1       7.868  -2.140  21.312  0.00  0.00    +0.210 HD
ENDBRANCH   6   7
BRANCH   5   9
ATOM      9  O   UNL     1      10.126  -0.830  21.059  0.00  0.00    -0.386 OA
ATOM     10  H   UNL     1       9.629  -1.354  20.396  0.00  0.00    +0.210 HD
ENDBRANCH   5   9
BRANCH   4  11
ATOM     11  O   UNL     1       9.684   2.028  21.711  0.00  0.00    -0.383 OA
ATOM     12  H   UNL     1      10.104   1.662  20.912  0.00  0.00    +0.210 HD
ENDBRANCH   4  11
BRANCH   3  13
ATOM     13  O   UNL     1       8.619   2.528  24.449  0.00  0.00    -0.453 OA
BRANCH  13  14
ATOM     14  C   UNL     1       7.706   3.560  24.144  0.00  0.00    +0.214 A 
ATOM     15  C   UNL     1       6.216   3.284  24.082  0.00  0.00    +0.238 A 
ATOM     16  O   UNL     1       5.681   2.330  24.632  0.00  0.00    -0.283 OA
ATOM     17  C   UNL     1       5.346   4.225  23.400  0.00  0.00    +0.109 A 
ATOM     18  C   UNL     1       5.859   5.485  23.187  0.00  0.00    +0.147 A 
ATOM     19  C   UNL     1       5.039   6.478  22.645  0.00  0.00    +0.092 A 
ATOM     20  C   UNL     1       3.719   6.174  22.312  0.00  0.00    +0.124 A 
ATOM     21  C   UNL     1       3.196   4.907  22.519  0.00  0.00    +0.091 A 
ATOM     22  O   UNL     1       7.126   5.832  23.542  0.00  0.00    -0.451 OA
ATOM     23  C   UNL     1       4.014   3.925  23.059  0.00  0.00    +0.135 A 
ATOM     24  C   UNL     1       8.055   4.865  23.966  0.00  0.00    +0.181 A 
BRANCH  24  25
ATOM     25  C   UNL     1       9.379   5.543  24.262  0.00  0.00    +0.025 A 
ATOM     26  C   UNL     1       9.417   6.523  25.298  0.00  0.00    +0.015 A 
ATOM     27  C   UNL     1      10.609   7.060  25.796  0.00  0.00    +0.050 A 
ATOM     28  C   UNL     1      11.801   6.651  25.243  0.00  0.00    +0.158 A 
ATOM     29  C   UNL     1      11.808   5.752  24.176  0.00  0.00    +0.159 A 
ATOM     30  C   UNL     1      10.615   5.206  23.684  0.00  0.00    +0.060 A 
BRANCH  29  31
ATOM     31  O   UNL     1      13.033   5.434  23.657  0.00  0.00    -0.503 OA
ATOM     32  H   UNL     1      13.687   5.504  24.374  0.00  0.00    +0.292 HD
ENDBRANCH  29  31
BRANCH  28  33
ATOM     33  O   UNL     1      12.969   7.102  25.782  0.00  0.00    -0.503 OA
ATOM     34  H   UNL     1      12.761   7.294  26.718  0.00  0.00    +0.292 HD
ENDBRANCH  28  33
ENDBRANCH  24  25
BRANCH  23  35
ATOM     35  O   UNL     1       3.504   2.667  23.232  0.00  0.00    -0.506 OA
ATOM     36  H   UNL     1       4.176   2.092  23.631  0.00  0.00    +0.292 HD
ENDBRANCH  23  35
BRANCH  20  37
ATOM     37  O   UNL     1       2.879   7.107  21.782  0.00  0.00    -0.507 OA
ATOM     38  H   UNL     1       3.324   7.973  21.771  0.00  0.00    +0.292 HD
ENDBRANCH  20  37
ENDBRANCH  13  14
ENDBRANCH   3  13
BRANCH   1  39
ATOM     39  C   UNL     1       7.014  -1.878  24.901  0.00  0.00    +0.197 C 
BRANCH  39  40
ATOM     40  O   UNL     1       6.163  -2.877  24.325  0.00  0.00    -0.346 OA
BRANCH  40  44
ATOM     41  C   UNL     1       3.300  -4.025  24.023  0.00  0.00    +0.041 C 
ATOM     42  C   UNL     1       4.124  -5.136  24.658  0.00  0.00    +0.149 C 
ATOM     43  O   UNL     1       5.090  -4.623  25.584  0.00  0.00    -0.343 OA
ATOM     44  C   UNL     1       6.317  -4.128  25.027  0.00  0.00    +0.282 C 
ATOM     45  C   UNL     1       6.992  -5.220  24.173  0.00  0.00    +0.201 C 
ATOM     46  C   UNL     1       6.067  -5.718  23.060  0.00  0.00    +0.179 C 
ATOM     47  C   UNL     1       4.704  -6.129  23.632  0.00  0.00    +0.174 C 
BRANCH  47  48
ATOM     48  O   UNL     1       4.837  -7.416  24.256  0.00  0.00    -0.387 OA
ATOM     49  H   UNL     1       5.421  -7.965  23.699  0.00  0.00    +0.210 HD
ENDBRANCH  47  48
BRANCH  46  50
ATOM     50  O   UNL     1       5.914  -4.719  22.044  0.00  0.00    -0.386 OA
ATOM     51  H   UNL     1       5.407  -5.124  21.319  0.00  0.00    +0.210 HD
ENDBRANCH  46  50
BRANCH  45  52
ATOM     52  O   UNL     1       8.242  -4.781  23.635  0.00  0.00    -0.384 OA
ATOM     53  H   UNL     1       8.801  -4.597  24.417  0.00  0.00    +0.210 HD
ENDBRANCH  45  52
ENDBRANCH  40  44
ENDBRANCH  39  40
ENDBRANCH   1  39
TORSDOF 16
ENDMDL
MODEL 2
REMARK VINA RESULT:      -7.8      2.358      5.939
REMARK  Name = 
REMARK  17 active torsions:
REMARK  status: ('A' for Active; 'I' for Inactive)
REMARK    1  A    between atoms: C_1  and  C_2
REMARK    2  A    between atoms: C_4  and  O_53
REMARK    3  A    between atoms: C_6  and  O_52
REMARK    4  A    between atoms: C_8  and  O_51
REMARK    5  A    between atoms: C_10  and  O_13
REMARK    6  A    between atoms: O_13  and  C_14
REMARK    7  A    between atoms: C_14  and  C_15
REMARK    8  A    between atoms: C_17  and  O_50
REMARK    9  A    between atoms: C_19  and  O_49
REMARK   10  A    between atoms: C_21  and  O_48
REMARK   11  A    between atoms: C_23  and  O_26
REMARK   12  A    between atoms: O_26  and  C_27
REMARK   13  A    between atoms: C_28  and  C_40
REMARK   14  A    between atoms: C_32  and  O_39
REMARK   15  A    between atoms: C_34  and  O_38
REMARK   16  A    between atoms: C_42  and  O_47
REMARK   17  A    between atoms: C_43  and  O_46
REMARK                            x       y       z     vdW  Elec       q    Type
REMARK                         _______ _______ _______ _____ _____    ______ ____
ROOT
ATOM      1  C   UNL     1       5.768  -1.169  26.011  0.00  0.00    +0.179 C 
ATOM      2  O   UNL     1       5.771  -0.412  24.789  0.00  0.00    -0.331 OA
ATOM      3  C   UNL     1       6.025   0.976  25.057  0.00  0.00    +0.340 C 
ATOM      4  C   UNL     1       4.778   1.567  25.760  0.00  0.00    +0.214 C 
ATOM      5  C   UNL     1       4.531   0.714  27.037  0.00  0.00    +0.180 C 
ATOM      6  C   UNL     1       4.494  -0.808  26.775  0.00  0.00    +0.177 C 
ENDROOT
BRANCH   6   7
ATOM      7  O   UNL     1       4.422  -1.422  28.068  0.00  0.00    -0.386 OA
ATOM      8  H   UNL     1       4.692  -2.348  27.961  0.00  0.00    +0.210 HD
ENDBRANCH   6   7
BRANCH   5   9
ATOM      9  O   UNL     1       3.341   1.106  27.732  0.00  0.00    -0.386 OA
ATOM     10  H   UNL     1       2.653   0.487  27.409  0.00  0.00    +0.210 HD
ENDBRANCH   5   9
BRANCH   4  11
ATOM     11  O   UNL     1       5.013   2.943  26.115  0.00  0.00    -0.383 OA
ATOM     12  H   UNL     1       4.630   3.100  26.997  0.00  0.00    +0.210 HD
ENDBRANCH   4  11
BRANCH   3  13
ATOM     13  O   UNL     1       6.442   1.648  23.843  0.00  0.00    -0.453 OA
BRANCH  13  14
ATOM     14  C   UNL     1       7.768   2.129  23.863  0.00  0.00    +0.214 A 
ATOM     15  C   UNL     1       8.068   3.559  24.269  0.00  0.00    +0.238 A 
ATOM     16  O   UNL     1       7.308   4.246  24.940  0.00  0.00    -0.283 OA
ATOM     17  C   UNL     1       9.348   4.145  23.916  0.00  0.00    +0.109 A 
ATOM     18  C   UNL     1      10.350   3.264  23.578  0.00  0.00    +0.147 A 
ATOM     19  C   UNL     1      11.640   3.746  23.343  0.00  0.00    +0.092 A 
ATOM     20  C   UNL     1      11.891   5.114  23.438  0.00  0.00    +0.124 A 
ATOM     21  C   UNL     1      10.887   6.010  23.774  0.00  0.00    +0.091 A 
ATOM     22  O   UNL     1      10.156   1.917  23.522  0.00  0.00    -0.451 OA
ATOM     23  C   UNL     1       9.608   5.526  24.007  0.00  0.00    +0.135 A 
ATOM     24  C   UNL     1       8.867   1.363  23.611  0.00  0.00    +0.181 A 
BRANCH  24  25
ATOM     25  C   UNL     1       8.964  -0.146  23.488  0.00  0.00    +0.025 A 
ATOM     26  C   UNL     1       9.758  -0.849  24.441  0.00  0.00    +0.015 A 
ATOM     27  C   UNL     1       9.758  -2.243  24.554  0.00  0.00    +0.050 A 
ATOM     28  C   UNL     1       8.981  -2.977  23.687  0.00  0.00    +0.158 A 
ATOM     29  C   UNL     1       8.247  -2.336  22.689  0.00  0.00    +0.159 A 
ATOM     30  C   UNL     1       8.239  -0.938  22.582  0.00  0.00    +0.060 A 
BRANCH  29  31
ATOM     31  O   UNL     1       7.538  -3.143  21.840  0.00  0.00    -0.503 OA
ATOM     32  H   UNL     1       8.089  -3.302  21.054  0.00  0.00    +0.292 HD
ENDBRANCH  29  31
BRANCH  28  33
ATOM     33  O   UNL     1       8.906  -4.329  23.847  0.00  0.00    -0.503 OA
ATOM     34  H   UNL     1       9.323  -4.704  23.046  0.00  0.00    +0.292 HD
ENDBRANCH  28  33
ENDBRANCH  24  25
BRANCH  23  35
ATOM     35  O   UNL     1       8.612   6.415  24.306  0.00  0.00    -0.506 OA
ATOM     36  H   UNL     1       8.926   7.322  24.163  0.00  0.00    +0.292 HD
ENDBRANCH  23  35
BRANCH  20  37
ATOM     37  O   UNL     1      13.131   5.635  23.219  0.00  0.00    -0.507 OA
ATOM     38  H   UNL     1      13.708   5.421  23.973  0.00  0.00    +0.292 HD
ENDBRANCH  20  37
ENDBRANCH  13  14
ENDBRANCH   3  13
BRANCH   1  39
ATOM     39  C   UNL     1       6.060  -2.653  25.728  0.00  0.00    +0.197 C 
BRANCH  39  40
ATOM     40  O   UNL     1       5.053  -3.346  24.981  0.00  0.00    -0.346 OA
BRANCH  40  44
ATOM     41  C   UNL     1       3.691  -5.388  26.875  0.00  0.00    +0.041 C 
ATOM     42  C   UNL     1       4.394  -6.218  25.811  0.00  0.00    +0.149 C 
ATOM     43  O   UNL     1       5.644  -5.637  25.417  0.00  0.00    -0.343 OA
ATOM     44  C   UNL     1       5.585  -4.578  24.450  0.00  0.00    +0.282 C 
ATOM     45  C   UNL     1       4.848  -5.055  23.182  0.00  0.00    +0.201 C 
ATOM     46  C   UNL     1       3.439  -5.559  23.505  0.00  0.00    +0.179 C 
ATOM     47  C   UNL     1       3.480  -6.601  24.630  0.00  0.00    +0.174 C 
BRANCH  47  48
ATOM     48  O   UNL     1       3.927  -7.851  24.082  0.00  0.00    -0.387 OA
ATOM     49  H   UNL     1       3.401  -8.565  24.487  0.00  0.00    +0.210 HD
ENDBRANCH  47  48
BRANCH  46  50
ATOM     50  O   UNL     1       2.578  -4.468  23.851  0.00  0.00    -0.386 OA
ATOM     51  H   UNL     1       2.833  -4.173  24.743  0.00  0.00    +0.210 HD
ENDBRANCH  46  50
BRANCH  45  52
ATOM     52  O   UNL     1       4.807  -4.042  22.174  0.00  0.00    -0.384 OA
ATOM     53  H   UNL     1       5.349  -4.396  21.440  0.00  0.00    +0.210 HD
ENDBRANCH  45  52
ENDBRANCH  40  44
ENDBRANCH  39  40
ENDBRANCH   1  39
TORSDOF 16
ENDMDL
MODEL 3
REMARK VINA RESULT:      -7.7      2.293      8.488
REMARK  Name = 
REMARK  17 active torsions:
REMARK  status: ('A' for Active; 'I' for Inactive)
REMARK    1  A    between atoms: C_1  and  C_2
REMARK    2  A    between atoms: C_4  and  O_53
REMARK    3  A    between atoms: C_6  and  O_52
REMARK    4  A    between atoms: C_8  and  O_51
REMARK    5  A    between atoms: C_10  and  O_13
REMARK    6  A    between atoms: O_13  and  C_14
REMARK    7  A    between atoms: C_14  and  C_15
REMARK    8  A    between atoms: C_17  and  O_50
REMARK    9  A    between atoms: C_19  and  O_49
REMARK   10  A    between atoms: C_21  and  O_48
REMARK   11  A    between atoms: C_23  and  O_26
REMARK   12  A    between atoms: O_26  and  C_27
REMARK   13  A    between atoms: C_28  and  C_40
REMARK   14  A    between atoms: C_32  and  O_39
REMARK   15  A    between atoms: C_34  and  O_38
REMARK   16  A    between atoms: C_42  and  O_47
REMARK   17  A    between atoms: C_43  and  O_46
REMARK                            x       y       z     vdW  Elec       q    Type
REMARK                         _______ _______ _______ _____ _____    ______ ____
ROOT
ATOM      1  C   UNL     1       9.603   1.595  23.846  0.00  0.00    +0.179 C 
ATOM      2  O   UNL     1       8.922   0.586  24.611  0.00  0.00    -0.331 OA
ATOM      3  C   UNL     1       9.546  -0.695  24.423  0.00  0.00    +0.340 C 
ATOM      4  C   UNL     1       9.243  -1.170  22.980  0.00  0.00    +0.214 C 
ATOM      5  C   UNL     1       9.769  -0.066  22.018  0.00  0.00    +0.180 C 
ATOM      6  C   UNL     1       9.278   1.355  22.372  0.00  0.00    +0.177 C 
ENDROOT
BRANCH   6   7
ATOM      7  O   UNL     1       9.984   2.239  21.491  0.00  0.00    -0.386 OA
ATOM      8  H   UNL     1      10.253   1.718  20.718  0.00  0.00    +0.210 HD
ENDBRANCH   6   7
BRANCH   5   9
ATOM      9  O   UNL     1       9.464  -0.348  20.647  0.00  0.00    -0.386 OA
ATOM     10  H   UNL     1       9.081   0.487  20.305  0.00  0.00    +0.210 HD
ENDBRANCH   5   9
BRANCH   4  11
ATOM     11  O   UNL     1       9.909  -2.420  22.719  0.00  0.00    -0.383 OA
ATOM     12  H   UNL     1      10.142  -2.450  21.774  0.00  0.00    +0.210 HD
ENDBRANCH   4  11
BRANCH   3  13
ATOM     13  O   UNL     1       9.150  -1.600  25.482  0.00  0.00    -0.453 OA
BRANCH  13  14
ATOM     14  C   UNL     1       7.899  -2.223  25.286  0.00  0.00    +0.214 A 
ATOM     15  C   UNL     1       7.806  -3.578  24.611  0.00  0.00    +0.238 A 
ATOM     16  O   UNL     1       8.740  -4.367  24.543  0.00  0.00    -0.283 OA
ATOM     17  C   UNL     1       6.531  -4.018  24.072  0.00  0.00    +0.109 A 
ATOM     18  C   UNL     1       5.414  -3.361  24.536  0.00  0.00    +0.147 A 
ATOM     19  C   UNL     1       4.146  -3.807  24.155  0.00  0.00    +0.092 A 
ATOM     20  C   UNL     1       4.031  -4.900  23.296  0.00  0.00    +0.124 A 
ATOM     21  C   UNL     1       5.151  -5.564  22.820  0.00  0.00    +0.091 A 
ATOM     22  O   UNL     1       5.484  -2.321  25.413  0.00  0.00    -0.451 OA
ATOM     23  C   UNL     1       6.407  -5.118  23.203  0.00  0.00    +0.135 A 
ATOM     24  C   UNL     1       6.715  -1.727  25.741  0.00  0.00    +0.181 A 
BRANCH  24  25
ATOM     25  C   UNL     1       6.474  -0.584  26.709  0.00  0.00    +0.025 A 
ATOM     26  C   UNL     1       5.133  -0.138  26.903  0.00  0.00    +0.015 A 
ATOM     27  C   UNL     1       4.767   0.759  27.912  0.00  0.00    +0.050 A 
ATOM     28  C   UNL     1       5.745   1.260  28.739  0.00  0.00    +0.158 A 
ATOM     29  C   UNL     1       7.081   0.911  28.537  0.00  0.00    +0.159 A 
ATOM     30  C   UNL     1       7.447   0.006  27.533  0.00  0.00    +0.060 A 
BRANCH  29  31
ATOM     31  O   UNL     1       7.995   1.491  29.375  0.00  0.00    -0.503 OA
ATOM     32  H   UNL     1       8.102   2.419  29.100  0.00  0.00    +0.292 HD
ENDBRANCH  29  31
BRANCH  28  33
ATOM     33  O   UNL     1       5.385   2.064  29.780  0.00  0.00    -0.503 OA
ATOM     34  H   UNL     1       4.418   1.945  29.870  0.00  0.00    +0.292 HD
ENDBRANCH  28  33
ENDBRANCH  24  25
BRANCH  23  35
ATOM     35  O   UNL     1       7.511  -5.756  22.707  0.00  0.00    -0.506 OA
ATOM     36  H   UNL     1       7.926  -6.288  23.404  0.00  0.00    +0.292 HD
ENDBRANCH  23  35
BRANCH  20  37
ATOM     37  O   UNL     1       2.818  -5.374  22.895  0.00  0.00    -0.507 OA
ATOM     38  H   UNL     1       2.368  -4.696  22.361  0.00  0.00    +0.292 HD
ENDBRANCH  20  37
ENDBRANCH  13  14
ENDBRANCH   3  13
BRANCH   1  39
ATOM     39  C   UNL     1       9.340   2.991  24.440  0.00  0.00    +0.197 C 
BRANCH  39  40
ATOM     40  O   UNL     1       8.683   3.916  23.565  0.00  0.00    -0.346 OA
BRANCH  40  44
ATOM     41  C   UNL     1       8.797   6.761  24.791  0.00  0.00    +0.041 C 
ATOM     42  C   UNL     1       7.324   6.381  24.769  0.00  0.00    +0.149 C 
ATOM     43  O   UNL     1       7.126   4.989  25.052  0.00  0.00    -0.343 OA
ATOM     44  C   UNL     1       7.304   4.079  23.956  0.00  0.00    +0.282 C 
ATOM     45  C   UNL     1       6.386   4.473  22.782  0.00  0.00    +0.201 C 
ATOM     46  C   UNL     1       6.643   5.911  22.323  0.00  0.00    +0.179 C 
ATOM     47  C   UNL     1       6.582   6.877  23.512  0.00  0.00    +0.174 C 
BRANCH  47  48
ATOM     48  O   UNL     1       5.204   7.107  23.847  0.00  0.00    -0.387 OA
ATOM     49  H   UNL     1       4.809   7.658  23.145  0.00  0.00    +0.210 HD
ENDBRANCH  47  48
BRANCH  46  50
ATOM     50  O   UNL     1       7.903   6.009  21.649  0.00  0.00    -0.386 OA
ATOM     51  H   UNL     1       7.714   6.194  20.713  0.00  0.00    +0.210 HD
ENDBRANCH  46  50
BRANCH  45  52
ATOM     52  O   UNL     1       6.500   3.562  21.685  0.00  0.00    -0.384 OA
ATOM     53  H   UNL     1       5.580   3.408  21.390  0.00  0.00    +0.210 HD
ENDBRANCH  45  52
ENDBRANCH  40  44
ENDBRANCH  39  40
ENDBRANCH   1  39
TORSDOF 16
ENDMDL
MODEL 4
REMARK VINA RESULT:      -7.7      2.267      5.936
REMARK  Name = 
REMARK  17 active torsions:
REMARK  status: ('A' for Active; 'I' for Inactive)
REMARK    1  A    between atoms: C_1  and  C_2
REMARK    2  A    between atoms: C_4  and  O_53
REMARK    3  A    between atoms: C_6  and  O_52
REMARK    4  A    between atoms: C_8  and  O_51
REMARK    5  A    between atoms: C_10  and  O_13
REMARK    6  A    between atoms: O_13  and  C_14
REMARK    7  A    between atoms: C_14  and  C_15
REMARK    8  A    between atoms: C_17  and  O_50
REMARK    9  A    between atoms: C_19  and  O_49
REMARK   10  A    between atoms: C_21  and  O_48
REMARK   11  A    between atoms: C_23  and  O_26
REMARK   12  A    between atoms: O_26  and  C_27
REMARK   13  A    between atoms: C_28  and  C_40
REMARK   14  A    between atoms: C_32  and  O_39
REMARK   15  A    between atoms: C_34  and  O_38
REMARK   16  A    between atoms: C_42  and  O_47
REMARK   17  A    between atoms: C_43  and  O_46
REMARK                            x       y       z     vdW  Elec       q    Type
REMARK                         _______ _______ _______ _____ _____    ______ ____
ROOT
ATOM      1  C   UNL     1       5.173  -0.252  26.431  0.00  0.00    +0.179 C 
ATOM      2  O   UNL     1       5.444   0.074  25.058  0.00  0.00    -0.331 OA
ATOM      3  C   UNL     1       5.702   1.480  24.915  0.00  0.00    +0.340 C 
ATOM      4  C   UNL     1       4.370   2.238  25.135  0.00  0.00    +0.214 C 
ATOM      5  C   UNL     1       3.844   1.834  26.542  0.00  0.00    +0.180 C 
ATOM      6  C   UNL     1       3.793   0.308  26.775  0.00  0.00    +0.177 C 
ENDROOT
BRANCH   6   7
ATOM      7  O   UNL     1       3.446   0.138  28.155  0.00  0.00    -0.386 OA
ATOM      8  H   UNL     1       4.057  -0.518  28.526  0.00  0.00    +0.210 HD
ENDBRANCH   6   7
BRANCH   5   9
ATOM      9  O   UNL     1       2.561   2.403  26.829  0.00  0.00    -0.386 OA
ATOM     10  H   UNL     1       2.249   1.918  27.622  0.00  0.00    +0.210 HD
ENDBRANCH   5   9
BRANCH   4  11
ATOM     11  O   UNL     1       4.591   3.660  25.073  0.00  0.00    -0.383 OA
ATOM     12  H   UNL     1       5.541   3.814  24.921  0.00  0.00    +0.210 HD
ENDBRANCH   4  11
BRANCH   3  13
ATOM     13  O   UNL     1       6.374   1.736  23.658  0.00  0.00    -0.453 OA
BRANCH  13  14
ATOM     14  C   UNL     1       7.680   2.254  23.784  0.00  0.00    +0.214 A 
ATOM     15  C   UNL     1       7.909   3.739  23.987  0.00  0.00    +0.238 A 
ATOM     16  O   UNL     1       7.057   4.503  24.422  0.00  0.00    -0.283 OA
ATOM     17  C   UNL     1       9.223   4.298  23.725  0.00  0.00    +0.109 A 
ATOM     18  C   UNL     1      10.269   3.404  23.681  0.00  0.00    +0.147 A 
ATOM     19  C   UNL     1      11.577   3.880  23.553  0.00  0.00    +0.092 A 
ATOM     20  C   UNL     1      11.802   5.252  23.455  0.00  0.00    +0.124 A 
ATOM     21  C   UNL     1      10.755   6.160  23.495  0.00  0.00    +0.091 A 
ATOM     22  O   UNL     1      10.093   2.061  23.821  0.00  0.00    -0.451 OA
ATOM     23  C   UNL     1       9.459   5.683  23.623  0.00  0.00    +0.135 A 
ATOM     24  C   UNL     1       8.809   1.490  23.819  0.00  0.00    +0.181 A 
BRANCH  24  25
ATOM     25  C   UNL     1       8.932  -0.015  23.961  0.00  0.00    +0.025 A 
ATOM     26  C   UNL     1       9.509  -0.747  22.882  0.00  0.00    +0.015 A 
ATOM     27  C   UNL     1       9.860  -2.098  22.979  0.00  0.00    +0.050 A 
ATOM     28  C   UNL     1       9.611  -2.763  24.158  0.00  0.00    +0.158 A 
ATOM     29  C   UNL     1       8.977  -2.107  25.213  0.00  0.00    +0.159 A 
ATOM     30  C   UNL     1       8.634  -0.752  25.120  0.00  0.00    +0.060 A 
BRANCH  29  31
ATOM     31  O   UNL     1       8.726  -2.854  26.332  0.00  0.00    -0.503 OA
ATOM     32  H   UNL     1       8.375  -3.714  26.041  0.00  0.00    +0.292 HD
ENDBRANCH  29  31
BRANCH  28  33
ATOM     33  O   UNL     1      10.031  -4.053  24.291  0.00  0.00    -0.503 OA
ATOM     34  H   UNL     1      11.005  -3.999  24.359  0.00  0.00    +0.292 HD
ENDBRANCH  28  33
ENDBRANCH  24  25
BRANCH  23  35
ATOM     35  O   UNL     1       8.425   6.579  23.629  0.00  0.00    -0.506 OA
ATOM     36  H   UNL     1       7.857   6.433  22.856  0.00  0.00    +0.292 HD
ENDBRANCH  23  35
BRANCH  20  37
ATOM     37  O   UNL     1      13.057   5.767  23.330  0.00  0.00    -0.507 OA
ATOM     38  H   UNL     1      13.711   5.058  23.459  0.00  0.00    +0.292 HD
ENDBRANCH  20  37
ENDBRANCH  13  14
ENDBRANCH   3  13
BRANCH   1  39
ATOM     39  C   UNL     1       5.449  -1.742  26.698  0.00  0.00    +0.197 C 
BRANCH  39  40
ATOM     40  O   UNL     1       5.723  -2.534  25.535  0.00  0.00    -0.346 OA
BRANCH  40  44
ATOM     41  C   UNL     1       6.162  -3.009  22.503  0.00  0.00    +0.041 C 
ATOM     42  C   UNL     1       5.025  -3.938  22.905  0.00  0.00    +0.149 C 
ATOM     43  O   UNL     1       4.168  -3.341  23.887  0.00  0.00    -0.343 OA
ATOM     44  C   UNL     1       4.609  -3.405  25.251  0.00  0.00    +0.282 C 
ATOM     45  C   UNL     1       4.869  -4.869  25.658  0.00  0.00    +0.201 C 
ATOM     46  C   UNL     1       5.894  -5.537  24.737  0.00  0.00    +0.179 C 
ATOM     47  C   UNL     1       5.497  -5.361  23.267  0.00  0.00    +0.174 C 
BRANCH  47  48
ATOM     48  O   UNL     1       4.445  -6.290  22.961  0.00  0.00    -0.387 OA
ATOM     49  H   UNL     1       4.847  -7.166  22.814  0.00  0.00    +0.210 HD
ENDBRANCH  47  48
BRANCH  46  50
ATOM     50  O   UNL     1       7.206  -5.013  24.978  0.00  0.00    -0.386 OA
ATOM     51  H   UNL     1       7.842  -5.705  24.721  0.00  0.00    +0.210 HD
ENDBRANCH  46  50
BRANCH  45  52
ATOM     52  O   UNL     1       5.268  -4.981  27.027  0.00  0.00    -0.384 OA
ATOM     53  H   UNL     1       5.030  -4.121  27.429  0.00  0.00    +0.210 HD
ENDBRANCH  45  52
ENDBRANCH  40  44
ENDBRANCH  39  40
ENDBRANCH   1  39
TORSDOF 16
ENDMDL
MODEL 5
REMARK VINA RESULT:      -7.6      3.663      9.819
REMARK  Name = 
REMARK  17 active torsions:
REMARK  status: ('A' for Active; 'I' for Inactive)
REMARK    1  A    between atoms: C_1  and  C_2
REMARK    2  A    between atoms: C_4  and  O_53
REMARK    3  A    between atoms: C_6  and  O_52
REMARK    4  A    between atoms: C_8  and  O_51
REMARK    5  A    between atoms: C_10  and  O_13
REMARK    6  A    between atoms: O_13  and  C_14
REMARK    7  A    between atoms: C_14  and  C_15
REMARK    8  A    between atoms: C_17  and  O_50
REMARK    9  A    between atoms: C_19  and  O_49
REMARK   10  A    between atoms: C_21  and  O_48
REMARK   11  A    between atoms: C_23  and  O_26
REMARK   12  A    between atoms: O_26  and  C_27
REMARK   13  A    between atoms: C_28  and  C_40
REMARK   14  A    between atoms: C_32  and  O_39
REMARK   15  A    between atoms: C_34  and  O_38
REMARK   16  A    between atoms: C_42  and  O_47
REMARK   17  A    between atoms: C_43  and  O_46
REMARK                            x       y       z     vdW  Elec       q    Type
REMARK                         _______ _______ _______ _____ _____    ______ ____
ROOT
ATOM      1  C   UNL     1       6.682  -0.953  26.322  0.00  0.00    +0.179 C 
ATOM      2  O   UNL     1       6.458  -2.018  27.260  0.00  0.00    -0.331 OA
ATOM      3  C   UNL     1       5.111  -2.507  27.155  0.00  0.00    +0.340 C 
ATOM      4  C   UNL     1       4.161  -1.421  27.717  0.00  0.00    +0.214 C 
ATOM      5  C   UNL     1       4.424  -0.122  26.904  0.00  0.00    +0.180 C 
ATOM      6  C   UNL     1       5.916   0.271  26.821  0.00  0.00    +0.177 C 
ENDROOT
BRANCH   6   7
ATOM      7  O   UNL     1       5.975   1.379  25.913  0.00  0.00    -0.386 OA
ATOM      8  H   UNL     1       5.089   1.774  25.885  0.00  0.00    +0.210 HD
ENDBRANCH   6   7
BRANCH   5   9
ATOM      9  O   UNL     1       3.665   0.991  27.392  0.00  0.00    -0.386 OA
ATOM     10  H   UNL     1       4.335   1.681  27.582  0.00  0.00    +0.210 HD
ENDBRANCH   5   9
BRANCH   4  11
ATOM     11  O   UNL     1       2.789  -1.836  27.567  0.00  0.00    -0.383 OA
ATOM     12  H   UNL     1       2.745  -2.485  26.843  0.00  0.00    +0.210 HD
ENDBRANCH   4  11
BRANCH   3  13
ATOM     13  O   UNL     1       5.008  -3.815  27.769  0.00  0.00    -0.453 OA
BRANCH  13  14
ATOM     14  C   UNL     1       4.477  -4.818  26.932  0.00  0.00    +0.214 A 
ATOM     15  C   UNL     1       3.013  -5.204  27.019  0.00  0.00    +0.238 A 
ATOM     16  O   UNL     1       2.147  -4.478  27.491  0.00  0.00    -0.283 OA
ATOM     17  C   UNL     1       2.577  -6.469  26.454  0.00  0.00    +0.109 A 
ATOM     18  C   UNL     1       3.429  -7.058  25.548  0.00  0.00    +0.147 A 
ATOM     19  C   UNL     1       3.024  -8.213  24.873  0.00  0.00    +0.092 A 
ATOM     20  C   UNL     1       1.771  -8.762  25.141  0.00  0.00    +0.124 A 
ATOM     21  C   UNL     1       0.908  -8.178  26.056  0.00  0.00    +0.091 A 
ATOM     22  O   UNL     1       4.640  -6.526  25.224  0.00  0.00    -0.451 OA
ATOM     23  C   UNL     1       1.314  -7.031  26.722  0.00  0.00    +0.135 A 
ATOM     24  C   UNL     1       5.178  -5.448  25.948  0.00  0.00    +0.181 A 
BRANCH  24  25
ATOM     25  C   UNL     1       6.541  -5.097  25.380  0.00  0.00    +0.025 A 
ATOM     26  C   UNL     1       6.596  -4.214  24.262  0.00  0.00    +0.015 A 
ATOM     27  C   UNL     1       7.789  -3.661  23.785  0.00  0.00    +0.050 A 
ATOM     28  C   UNL     1       8.970  -4.005  24.401  0.00  0.00    +0.158 A 
ATOM     29  C   UNL     1       8.972  -4.926  25.450  0.00  0.00    +0.159 A 
ATOM     30  C   UNL     1       7.776  -5.473  25.933  0.00  0.00    +0.060 A 
BRANCH  29  31
ATOM     31  O   UNL     1      10.194  -5.247  25.975  0.00  0.00    -0.503 OA
ATOM     32  H   UNL     1      10.132  -5.165  26.942  0.00  0.00    +0.292 HD
ENDBRANCH  29  31
BRANCH  28  33
ATOM     33  O   UNL     1      10.125  -3.402  24.001  0.00  0.00    -0.503 OA
ATOM     34  H   UNL     1       9.974  -2.445  24.136  0.00  0.00    +0.292 HD
ENDBRANCH  28  33
ENDBRANCH  24  25
BRANCH  23  35
ATOM     35  O   UNL     1       0.473  -6.475  27.647  0.00  0.00    -0.506 OA
ATOM     36  H   UNL     1      -0.360  -6.970  27.676  0.00  0.00    +0.292 HD
ENDBRANCH  23  35
BRANCH  20  37
ATOM     37  O   UNL     1       1.329  -9.886  24.511  0.00  0.00    -0.507 OA
ATOM     38  H   UNL     1       0.665  -9.642  23.843  0.00  0.00    +0.292 HD
ENDBRANCH  20  37
ENDBRANCH  13  14
ENDBRANCH   3  13
BRANCH   1  39
ATOM     39  C   UNL     1       8.184  -0.807  26.019  0.00  0.00    +0.197 C 
BRANCH  39  40
ATOM     40  O   UNL     1       8.520  -0.661  24.633  0.00  0.00    -0.346 OA
BRANCH  40  44
ATOM     41  C   UNL     1       9.043  -0.973  21.594  0.00  0.00    +0.041 C 
ATOM     42  C   UNL     1      10.020   0.090  22.072  0.00  0.00    +0.149 C 
ATOM     43  O   UNL     1      10.523  -0.196  23.384  0.00  0.00    -0.343 OA
ATOM     44  C   UNL     1       9.686   0.177  24.489  0.00  0.00    +0.282 C 
ATOM     45  C   UNL     1       9.344   1.679  24.415  0.00  0.00    +0.201 C 
ATOM     46  C   UNL     1       8.665   2.038  23.091  0.00  0.00    +0.179 C 
ATOM     47  C   UNL     1       9.491   1.529  21.903  0.00  0.00    +0.174 C 
BRANCH  47  48
ATOM     48  O   UNL     1      10.604   2.413  21.705  0.00  0.00    -0.387 OA
ATOM     49  H   UNL     1      10.676   2.602  20.751  0.00  0.00    +0.210 HD
ENDBRANCH  47  48
BRANCH  46  50
ATOM     50  O   UNL     1       7.332   1.514  23.047  0.00  0.00    -0.386 OA
ATOM     51  H   UNL     1       6.881   1.940  22.297  0.00  0.00    +0.210 HD
ENDBRANCH  46  50
BRANCH  45  52
ATOM     52  O   UNL     1       8.547   2.102  25.525  0.00  0.00    -0.384 OA
ATOM     53  H   UNL     1       9.048   2.840  25.927  0.00  0.00    +0.210 HD
ENDBRANCH  45  52
ENDBRANCH  40  44
ENDBRANCH  39  40
ENDBRANCH   1  39
TORSDOF 16
ENDMDL
MODEL 6
REMARK VINA RESULT:      -7.4      2.135      9.202
REMARK  Name = 
REMARK  17 active torsions:
REMARK  status: ('A' for Active; 'I' for Inactive)
REMARK    1  A    between atoms: C_1  and  C_2
REMARK    2  A    between atoms: C_4  and  O_53
REMARK    3  A    between atoms: C_6  and  O_52
REMARK    4  A    between atoms: C_8  and  O_51
REMARK    5  A    between atoms: C_10  and  O_13
REMARK    6  A    between atoms: O_13  and  C_14
REMARK    7  A    between atoms: C_14  and  C_15
REMARK    8  A    between atoms: C_17  and  O_50
REMARK    9  A    between atoms: C_19  and  O_49
REMARK   10  A    between atoms: C_21  and  O_48
REMARK   11  A    between atoms: C_23  and  O_26
REMARK   12  A    between atoms: O_26  and  C_27
REMARK   13  A    between atoms: C_28  and  C_40
REMARK   14  A    between atoms: C_32  and  O_39
REMARK   15  A    between atoms: C_34  and  O_38
REMARK   16  A    between atoms: C_42  and  O_47
REMARK   17  A    between atoms: C_43  and  O_46
REMARK                            x       y       z     vdW  Elec       q    Type
REMARK                         _______ _______ _______ _____ _____    ______ ____
ROOT
ATOM      1  C   UNL     1       7.602   1.579  25.841  0.00  0.00    +0.179 C 
ATOM      2  O   UNL     1       8.077   0.316  26.335  0.00  0.00    -0.331 OA
ATOM      3  C   UNL     1       6.973  -0.547  26.653  0.00  0.00    +0.340 C 
ATOM      4  C   UNL     1       6.272   0.014  27.915  0.00  0.00    +0.214 C 
ATOM      5  C   UNL     1       5.854   1.476  27.590  0.00  0.00    +0.180 C 
ATOM      6  C   UNL     1       7.000   2.341  27.021  0.00  0.00    +0.177 C 
ENDROOT
BRANCH   6   7
ATOM      7  O   UNL     1       6.395   3.583  26.638  0.00  0.00    -0.386 OA
ATOM      8  H   UNL     1       5.478   3.565  26.956  0.00  0.00    +0.210 HD
ENDBRANCH   6   7
BRANCH   5   9
ATOM      9  O   UNL     1       5.271   2.140  28.719  0.00  0.00    -0.386 OA
ATOM     10  H   UNL     1       4.463   1.622  28.918  0.00  0.00    +0.210 HD
ENDBRANCH   5   9
BRANCH   4  11
ATOM     11  O   UNL     1       5.112  -0.780  28.233  0.00  0.00    -0.383 OA
ATOM     12  H   UNL     1       4.686  -0.395  29.019  0.00  0.00    +0.210 HD
ENDBRANCH   4  11
BRANCH   3  13
ATOM     13  O   UNL     1       7.426  -1.920  26.741  0.00  0.00    -0.453 OA
BRANCH  13  14
ATOM     14  C   UNL     1       6.649  -2.844  26.011  0.00  0.00    +0.214 A 
ATOM     15  C   UNL     1       5.616  -3.708  26.707  0.00  0.00    +0.238 A 
ATOM     16  O   UNL     1       5.121  -3.432  27.793  0.00  0.00    -0.283 OA
ATOM     17  C   UNL     1       5.117  -4.897  26.039  0.00  0.00    +0.109 A 
ATOM     18  C   UNL     1       5.318  -4.962  24.679  0.00  0.00    +0.147 A 
ATOM     19  C   UNL     1       4.761  -6.017  23.951  0.00  0.00    +0.092 A 
ATOM     20  C   UNL     1       4.026  -6.998  24.615  0.00  0.00    +0.124 A 
ATOM     21  C   UNL     1       3.823  -6.943  25.986  0.00  0.00    +0.091 A 
ATOM     22  O   UNL     1       5.989  -3.999  23.988  0.00  0.00    -0.451 OA
ATOM     23  C   UNL     1       4.376  -5.893  26.704  0.00  0.00    +0.135 A 
ATOM     24  C   UNL     1       6.691  -2.980  24.655  0.00  0.00    +0.181 A 
BRANCH  24  25
ATOM     25  C   UNL     1       7.357  -2.081  23.631  0.00  0.00    +0.025 A 
ATOM     26  C   UNL     1       6.715  -0.854  23.294  0.00  0.00    +0.015 A 
ATOM     27  C   UNL     1       7.328   0.142  22.526  0.00  0.00    +0.050 A 
ATOM     28  C   UNL     1       8.597  -0.082  22.045  0.00  0.00    +0.158 A 
ATOM     29  C   UNL     1       9.235  -1.299  22.285  0.00  0.00    +0.159 A 
ATOM     30  C   UNL     1       8.625  -2.293  23.062  0.00  0.00    +0.060 A 
BRANCH  29  31
ATOM     31  O   UNL     1      10.476  -1.456  21.732  0.00  0.00    -0.503 OA
ATOM     32  H   UNL     1      11.039  -0.732  22.058  0.00  0.00    +0.292 HD
ENDBRANCH  29  31
BRANCH  28  33
ATOM     33  O   UNL     1       9.236   0.918  21.372  0.00  0.00    -0.503 OA
ATOM     34  H   UNL     1       9.478   0.530  20.508  0.00  0.00    +0.292 HD
ENDBRANCH  28  33
ENDBRANCH  24  25
BRANCH  23  35
ATOM     35  O   UNL     1       4.202  -5.859  28.060  0.00  0.00    -0.506 OA
ATOM     36  H   UNL     1       4.851  -5.260  28.461  0.00  0.00    +0.292 HD
ENDBRANCH  23  35
BRANCH  20  37
ATOM     37  O   UNL     1       3.462  -8.046  23.952  0.00  0.00    -0.507 OA
ATOM     38  H   UNL     1       3.997  -8.846  24.100  0.00  0.00    +0.292 HD
ENDBRANCH  20  37
ENDBRANCH  13  14
ENDBRANCH   3  13
BRANCH   1  39
ATOM     39  C   UNL     1       8.687   2.271  24.996  0.00  0.00    +0.197 C 
BRANCH  39  40
ATOM     40  O   UNL     1       8.571   3.695  24.892  0.00  0.00    -0.346 OA
BRANCH  40  44
ATOM     41  C   UNL     1       5.971   3.640  23.204  0.00  0.00    +0.041 C 
ATOM     42  C   UNL     1       7.027   4.280  22.314  0.00  0.00    +0.149 C 
ATOM     43  O   UNL     1       8.317   3.683  22.500  0.00  0.00    -0.343 OA
ATOM     44  C   UNL     1       9.084   4.146  23.622  0.00  0.00    +0.282 C 
ATOM     45  C   UNL     1       9.260   5.677  23.551  0.00  0.00    +0.201 C 
ATOM     46  C   UNL     1       7.911   6.397  23.498  0.00  0.00    +0.179 C 
ATOM     47  C   UNL     1       7.032   5.820  22.382  0.00  0.00    +0.174 C 
BRANCH  47  48
ATOM     48  O   UNL     1       7.489   6.338  21.122  0.00  0.00    -0.387 OA
ATOM     49  H   UNL     1       8.422   6.077  21.007  0.00  0.00    +0.210 HD
ENDBRANCH  47  48
BRANCH  46  50
ATOM     50  O   UNL     1       7.245   6.319  24.764  0.00  0.00    -0.386 OA
ATOM     51  H   UNL     1       7.790   5.755  25.340  0.00  0.00    +0.210 HD
ENDBRANCH  46  50
BRANCH  45  52
ATOM     52  O   UNL     1      10.059   6.173  24.628  0.00  0.00    -0.384 OA
ATOM     53  H   UNL     1       9.442   6.249  25.384  0.00  0.00    +0.210 HD
ENDBRANCH  45  52
ENDBRANCH  40  44
ENDBRANCH  39  40
ENDBRANCH   1  39
TORSDOF 16
ENDMDL
MODEL 7
REMARK VINA RESULT:      -7.4      1.445      1.627
REMARK  Name = 
REMARK  17 active torsions:
REMARK  status: ('A' for Active; 'I' for Inactive)
REMARK    1  A    between atoms: C_1  and  C_2
REMARK    2  A    between atoms: C_4  and  O_53
REMARK    3  A    between atoms: C_6  and  O_52
REMARK    4  A    between atoms: C_8  and  O_51
REMARK    5  A    between atoms: C_10  and  O_13
REMARK    6  A    between atoms: O_13  and  C_14
REMARK    7  A    between atoms: C_14  and  C_15
REMARK    8  A    between atoms: C_17  and  O_50
REMARK    9  A    between atoms: C_19  and  O_49
REMARK   10  A    between atoms: C_21  and  O_48
REMARK   11  A    between atoms: C_23  and  O_26
REMARK   12  A    between atoms: O_26  and  C_27
REMARK   13  A    between atoms: C_28  and  C_40
REMARK   14  A    between atoms: C_32  and  O_39
REMARK   15  A    between atoms: C_34  and  O_38
REMARK   16  A    between atoms: C_42  and  O_47
REMARK   17  A    between atoms: C_43  and  O_46
REMARK                            x       y       z     vdW  Elec       q    Type
REMARK                         _______ _______ _______ _____ _____    ______ ____
ROOT
ATOM      1  C   UNL     1       7.983  -1.658  24.171  0.00  0.00    +0.179 C 
ATOM      2  O   UNL     1       8.553  -0.629  24.995  0.00  0.00    -0.331 OA
ATOM      3  C   UNL     1       8.778   0.565  24.228  0.00  0.00    +0.340 C 
ATOM      4  C   UNL     1       9.948   0.295  23.251  0.00  0.00    +0.214 C 
ATOM      5  C   UNL     1       9.548  -0.939  22.393  0.00  0.00    +0.180 C 
ATOM      6  C   UNL     1       9.077  -2.152  23.225  0.00  0.00    +0.177 C 
ENDROOT
BRANCH   6   7
ATOM      7  O   UNL     1       8.606  -3.115  22.274  0.00  0.00    -0.386 OA
ATOM      8  H   UNL     1       8.808  -3.994  22.631  0.00  0.00    +0.210 HD
ENDBRANCH   6   7
BRANCH   5   9
ATOM      9  O   UNL     1      10.596  -1.348  21.505  0.00  0.00    -0.386 OA
ATOM     10  H   UNL     1      10.362  -2.267  21.256  0.00  0.00    +0.210 HD
ENDBRANCH   5   9
BRANCH   4  11
ATOM     11  O   UNL     1      10.165   1.442  22.407  0.00  0.00    -0.383 OA
ATOM     12  H   UNL     1      11.117   1.499  22.208  0.00  0.00    +0.210 HD
ENDBRANCH   4  11
BRANCH   3  13
ATOM     13  O   UNL     1       8.943   1.700  25.113  0.00  0.00    -0.453 OA
BRANCH  13  14
ATOM     14  C   UNL     1       7.861   2.605  25.117  0.00  0.00    +0.214 A 
ATOM     15  C   UNL     1       6.499   2.184  25.634  0.00  0.00    +0.238 A 
ATOM     16  O   UNL     1       6.326   1.241  26.396  0.00  0.00    -0.283 OA
ATOM     17  C   UNL     1       5.330   2.967  25.278  0.00  0.00    +0.109 A 
ATOM     18  C   UNL     1       5.568   4.244  24.819  0.00  0.00    +0.147 A 
ATOM     19  C   UNL     1       4.489   5.097  24.571  0.00  0.00    +0.092 A 
ATOM     20  C   UNL     1       3.188   4.639  24.775  0.00  0.00    +0.124 A 
ATOM     21  C   UNL     1       2.940   3.353  25.232  0.00  0.00    +0.091 A 
ATOM     22  O   UNL     1       6.824   4.743  24.654  0.00  0.00    -0.451 OA
ATOM     23  C   UNL     1       4.013   2.510  25.478  0.00  0.00    +0.135 A 
ATOM     24  C   UNL     1       7.955   3.915  24.750  0.00  0.00    +0.181 A 
BRANCH  24  25
ATOM     25  C   UNL     1       9.201   4.741  24.491  0.00  0.00    +0.025 A 
ATOM     26  C   UNL     1       9.358   5.964  25.206  0.00  0.00    +0.015 A 
ATOM     27  C   UNL     1      10.547   6.701  25.205  0.00  0.00    +0.050 A 
ATOM     28  C   UNL     1      11.607   6.244  24.456  0.00  0.00    +0.158 A 
ATOM     29  C   UNL     1      11.473   5.093  23.679  0.00  0.00    +0.159 A 
ATOM     30  C   UNL     1      10.286   4.350  23.688  0.00  0.00    +0.060 A 
BRANCH  29  31
ATOM     31  O   UNL     1      12.561   4.735  22.929  0.00  0.00    -0.503 OA
ATOM     32  H   UNL     1      12.347   4.910  21.996  0.00  0.00    +0.292 HD
ENDBRANCH  29  31
BRANCH  28  33
ATOM     33  O   UNL     1      12.797   6.907  24.520  0.00  0.00    -0.503 OA
ATOM     34  H   UNL     1      13.124   6.935  23.598  0.00  0.00    +0.292 HD
ENDBRANCH  28  33
ENDBRANCH  24  25
BRANCH  23  35
ATOM     35  O   UNL     1       3.764   1.233  25.898  0.00  0.00    -0.506 OA
ATOM     36  H   UNL     1       3.107   0.817  25.318  0.00  0.00    +0.292 HD
ENDBRANCH  23  35
BRANCH  20  37
ATOM     37  O   UNL     1       2.104   5.431  24.548  0.00  0.00    -0.507 OA
ATOM     38  H   UNL     1       2.012   6.069  25.277  0.00  0.00    +0.292 HD
ENDBRANCH  20  37
ENDBRANCH  13  14
ENDBRANCH   3  13
BRANCH   1  39
ATOM     39  C   UNL     1       7.236  -2.691  25.034  0.00  0.00    +0.197 C 
BRANCH  39  40
ATOM     40  O   UNL     1       6.233  -3.453  24.351  0.00  0.00    -0.346 OA
BRANCH  40  44
ATOM     41  C   UNL     1       3.738  -4.387  25.935  0.00  0.00    +0.041 C 
ATOM     42  C   UNL     1       4.484  -5.658  25.556  0.00  0.00    +0.149 C 
ATOM     43  O   UNL     1       5.906  -5.479  25.605  0.00  0.00    -0.343 OA
ATOM     44  C   UNL     1       6.517  -4.863  24.462  0.00  0.00    +0.282 C 
ATOM     45  C   UNL     1       6.170  -5.651  23.183  0.00  0.00    +0.201 C 
ATOM     46  C   UNL     1       4.656  -5.759  22.981  0.00  0.00    +0.179 C 
ATOM     47  C   UNL     1       3.978  -6.297  24.247  0.00  0.00    +0.174 C 
BRANCH  47  48
ATOM     48  O   UNL     1       4.187  -7.717  24.313  0.00  0.00    -0.387 OA
ATOM     49  H   UNL     1       4.217  -7.976  25.253  0.00  0.00    +0.210 HD
ENDBRANCH  47  48
BRANCH  46  50
ATOM     50  O   UNL     1       4.104  -4.492  22.606  0.00  0.00    -0.386 OA
ATOM     51  H   UNL     1       3.266  -4.670  22.143  0.00  0.00    +0.210 HD
ENDBRANCH  46  50
BRANCH  45  52
ATOM     52  O   UNL     1       6.797  -5.095  22.025  0.00  0.00    -0.384 OA
ATOM     53  H   UNL     1       6.087  -5.047  21.353  0.00  0.00    +0.210 HD
ENDBRANCH  45  52
ENDBRANCH  40  44
ENDBRANCH  39  40
ENDBRANCH   1  39
TORSDOF 16
ENDMDL
MODEL 8
REMARK VINA RESULT:      -7.4      2.677      8.782
REMARK  Name = 
REMARK  17 active torsions:
REMARK  status: ('A' for Active; 'I' for Inactive)
REMARK    1  A    between atoms: C_1  and  C_2
REMARK    2  A    between atoms: C_4  and  O_53
REMARK    3  A    between atoms: C_6  and  O_52
REMARK    4  A    between atoms: C_8  and  O_51
REMARK    5  A    between atoms: C_10  and  O_13
REMARK    6  A    between atoms: O_13  and  C_14
REMARK    7  A    between atoms: C_14  and  C_15
REMARK    8  A    between atoms: C_17  and  O_50
REMARK    9  A    between atoms: C_19  and  O_49
REMARK   10  A    between atoms: C_21  and  O_48
REMARK   11  A    between atoms: C_23  and  O_26
REMARK   12  A    between atoms: O_26  and  C_27
REMARK   13  A    between atoms: C_28  and  C_40
REMARK   14  A    between atoms: C_32  and  O_39
REMARK   15  A    between atoms: C_34  and  O_38
REMARK   16  A    between atoms: C_42  and  O_47
REMARK   17  A    between atoms: C_43  and  O_46
REMARK                            x       y       z     vdW  Elec       q    Type
REMARK                         _______ _______ _______ _____ _____    ______ ____
ROOT
ATOM      1  C   UNL     1       6.164   3.067  26.789  0.00  0.00    +0.179 C 
ATOM      2  O   UNL     1       6.375   1.870  26.022  0.00  0.00    -0.331 OA
ATOM      3  C   UNL     1       5.120   1.248  25.703  0.00  0.00    +0.340 C 
ATOM      4  C   UNL     1       4.531   0.656  27.007  0.00  0.00    +0.214 C 
ATOM      5  C   UNL     1       4.414   1.826  28.025  0.00  0.00    +0.180 C 
ATOM      6  C   UNL     1       5.714   2.645  28.188  0.00  0.00    +0.177 C 
ENDROOT
BRANCH   6   7
ATOM      7  O   UNL     1       5.369   3.756  29.025  0.00  0.00    -0.386 OA
ATOM      8  H   UNL     1       6.156   3.974  29.550  0.00  0.00    +0.210 HD
ENDBRANCH   6   7
BRANCH   5   9
ATOM      9  O   UNL     1       3.964   1.386  29.312  0.00  0.00    -0.386 OA
ATOM     10  H   UNL     1       3.376   0.625  29.119  0.00  0.00    +0.210 HD
ENDBRANCH   5   9
BRANCH   4  11
ATOM     11  O   UNL     1       3.235   0.082  26.751  0.00  0.00    -0.383 OA
ATOM     12  H   UNL     1       2.627   0.380  27.452  0.00  0.00    +0.210 HD
ENDBRANCH   4  11
BRANCH   3  13
ATOM     13  O   UNL     1       5.292   0.316  24.607  0.00  0.00    -0.453 OA
BRANCH  13  14
ATOM     14  C   UNL     1       5.929  -0.893  24.959  0.00  0.00    +0.214 A 
ATOM     15  C   UNL     1       5.131  -2.056  25.515  0.00  0.00    +0.238 A 
ATOM     16  O   UNL     1       3.925  -2.191  25.351  0.00  0.00    -0.283 OA
ATOM     17  C   UNL     1       5.822  -3.118  26.223  0.00  0.00    +0.109 A 
ATOM     18  C   UNL     1       7.181  -3.204  26.019  0.00  0.00    +0.147 A 
ATOM     19  C   UNL     1       7.894  -4.272  26.570  0.00  0.00    +0.092 A 
ATOM     20  C   UNL     1       7.222  -5.225  27.335  0.00  0.00    +0.124 A 
ATOM     21  C   UNL     1       5.855  -5.144  27.550  0.00  0.00    +0.091 A 
ATOM     22  O   UNL     1       7.864  -2.320  25.240  0.00  0.00    -0.451 OA
ATOM     23  C   UNL     1       5.152  -4.083  26.999  0.00  0.00    +0.135 A 
ATOM     24  C   UNL     1       7.253  -1.149  24.760  0.00  0.00    +0.181 A 
BRANCH  24  25
ATOM     25  C   UNL     1       8.262  -0.354  23.954  0.00  0.00    +0.025 A 
ATOM     26  C   UNL     1       8.247  -0.490  22.534  0.00  0.00    +0.015 A 
ATOM     27  C   UNL     1       8.984   0.337  21.681  0.00  0.00    +0.050 A 
ATOM     28  C   UNL     1       9.786   1.310  22.232  0.00  0.00    +0.158 A 
ATOM     29  C   UNL     1       9.891   1.430  23.618  0.00  0.00    +0.159 A 
ATOM     30  C   UNL     1       9.146   0.607  24.473  0.00  0.00    +0.060 A 
BRANCH  29  31
ATOM     31  O   UNL     1      10.746   2.392  24.083  0.00  0.00    -0.503 OA
ATOM     32  H   UNL     1      10.387   2.726  24.924  0.00  0.00    +0.292 HD
ENDBRANCH  29  31
BRANCH  28  33
ATOM     33  O   UNL     1      10.437   2.178  21.406  0.00  0.00    -0.503 OA
ATOM     34  H   UNL     1      10.580   2.983  21.944  0.00  0.00    +0.292 HD
ENDBRANCH  28  33
ENDBRANCH  24  25
BRANCH  23  35
ATOM     35  O   UNL     1       3.808  -3.989  27.239  0.00  0.00    -0.506 OA
ATOM     36  H   UNL     1       3.612  -3.153  27.692  0.00  0.00    +0.292 HD
ENDBRANCH  23  35
BRANCH  20  37
ATOM     37  O   UNL     1       7.871  -6.284  27.894  0.00  0.00    -0.507 OA
ATOM     38  H   UNL     1       8.678  -6.474  27.385  0.00  0.00    +0.292 HD
ENDBRANCH  20  37
ENDBRANCH  13  14
ENDBRANCH   3  13
BRANCH   1  39
ATOM     39  C   UNL     1       7.372   4.011  26.660  0.00  0.00    +0.197 C 
BRANCH  39  40
ATOM     40  O   UNL     1       7.733   4.366  25.319  0.00  0.00    -0.346 OA
BRANCH  40  44
ATOM     41  C   UNL     1       8.850   7.086  24.336  0.00  0.00    +0.041 C 
ATOM     42  C   UNL     1       7.487   6.938  23.676  0.00  0.00    +0.149 C 
ATOM     43  O   UNL     1       6.538   6.305  24.544  0.00  0.00    -0.343 OA
ATOM     44  C   UNL     1       6.583   4.872  24.610  0.00  0.00    +0.282 C 
ATOM     45  C   UNL     1       6.431   4.268  23.199  0.00  0.00    +0.201 C 
ATOM     46  C   UNL     1       7.509   4.789  22.245  0.00  0.00    +0.179 C 
ATOM     47  C   UNL     1       7.555   6.322  22.264  0.00  0.00    +0.174 C 
BRANCH  47  48
ATOM     48  O   UNL     1       6.458   6.825  21.485  0.00  0.00    -0.387 OA
ATOM     49  H   UNL     1       6.470   6.376  20.619  0.00  0.00    +0.210 HD
ENDBRANCH  47  48
BRANCH  46  50
ATOM     50  O   UNL     1       8.788   4.235  22.575  0.00  0.00    -0.386 OA
ATOM     51  H   UNL     1       9.378   4.406  21.820  0.00  0.00    +0.210 HD
ENDBRANCH  46  50
BRANCH  45  52
ATOM     52  O   UNL     1       6.425   2.838  23.227  0.00  0.00    -0.384 OA
ATOM     53  H   UNL     1       7.285   2.591  23.624  0.00  0.00    +0.210 HD
ENDBRANCH  45  52
ENDBRANCH  40  44
ENDBRANCH  39  40
ENDBRANCH   1  39
TORSDOF 16
ENDMDL
MODEL 9
REMARK VINA RESULT:      -7.2      2.441      8.620
REMARK  Name = 
REMARK  17 active torsions:
REMARK  status: ('A' for Active; 'I' for Inactive)
REMARK    1  A    between atoms: C_1  and  C_2
REMARK    2  A    between atoms: C_4  and  O_53
REMARK    3  A    between atoms: C_6  and  O_52
REMARK    4  A    between atoms: C_8  and  O_51
REMARK    5  A    between atoms: C_10  and  O_13
REMARK    6  A    between atoms: O_13  and  C_14
REMARK    7  A    between atoms: C_14  and  C_15
REMARK    8  A    between atoms: C_17  and  O_50
REMARK    9  A    between atoms: C_19  and  O_49
REMARK   10  A    between atoms: C_21  and  O_48
REMARK   11  A    between atoms: C_23  and  O_26
REMARK   12  A    between atoms: O_26  and  C_27
REMARK   13  A    between atoms: C_28  and  C_40
REMARK   14  A    between atoms: C_32  and  O_39
REMARK   15  A    between atoms: C_34  and  O_38
REMARK   16  A    between atoms: C_42  and  O_47
REMARK   17  A    between atoms: C_43  and  O_46
REMARK                            x       y       z     vdW  Elec       q    Type
REMARK                         _______ _______ _______ _____ _____    ______ ____
ROOT
ATOM      1  C   UNL     1       7.222   2.309  25.918  0.00  0.00    +0.179 C 
ATOM      2  O   UNL     1       7.940   1.093  26.188  0.00  0.00    -0.331 OA
ATOM      3  C   UNL     1       7.029  -0.007  26.340  0.00  0.00    +0.340 C 
ATOM      4  C   UNL     1       6.265   0.181  27.674  0.00  0.00    +0.214 C 
ATOM      5  C   UNL     1       5.569   1.571  27.607  0.00  0.00    +0.180 C 
ATOM      6  C   UNL     1       6.516   2.725  27.208  0.00  0.00    +0.177 C 
ENDROOT
BRANCH   6   7
ATOM      7  O   UNL     1       5.677   3.875  27.043  0.00  0.00    -0.386 OA
ATOM      8  H   UNL     1       4.959   3.622  26.441  0.00  0.00    +0.210 HD
ENDBRANCH   6   7
BRANCH   5   9
ATOM      9  O   UNL     1       4.900   1.905  28.829  0.00  0.00    -0.386 OA
ATOM     10  H   UNL     1       4.975   1.096  29.379  0.00  0.00    +0.210 HD
ENDBRANCH   5   9
BRANCH   4  11
ATOM     11  O   UNL     1       5.285  -0.862  27.837  0.00  0.00    -0.383 OA
ATOM     12  H   UNL     1       5.018  -1.169  26.952  0.00  0.00    +0.210 HD
ENDBRANCH   4  11
BRANCH   3  13
ATOM     13  O   UNL     1       7.736  -1.262  26.189  0.00  0.00    -0.453 OA
BRANCH  13  14
ATOM     14  C   UNL     1       7.355  -2.020  25.062  0.00  0.00    +0.214 A 
ATOM     15  C   UNL     1       6.214  -3.015  25.147  0.00  0.00    +0.238 A 
ATOM     16  O   UNL     1       5.337  -2.969  26.001  0.00  0.00    -0.283 OA
ATOM     17  C   UNL     1       6.090  -4.044  24.130  0.00  0.00    +0.109 A 
ATOM     18  C   UNL     1       6.776  -3.827  22.956  0.00  0.00    +0.147 A 
ATOM     19  C   UNL     1       6.609  -4.713  21.889  0.00  0.00    +0.092 A 
ATOM     20  C   UNL     1       5.765  -5.813  22.034  0.00  0.00    +0.124 A 
ATOM     21  C   UNL     1       5.074  -6.042  23.214  0.00  0.00    +0.091 A 
ATOM     22  O   UNL     1       7.571  -2.739  22.760  0.00  0.00    -0.451 OA
ATOM     23  C   UNL     1       5.242  -5.159  24.270  0.00  0.00    +0.135 A 
ATOM     24  C   UNL     1       7.898  -1.876  23.820  0.00  0.00    +0.181 A 
BRANCH  24  25
ATOM     25  C   UNL     1       8.816  -0.782  23.307  0.00  0.00    +0.025 A 
ATOM     26  C   UNL     1       8.538  -0.217  22.027  0.00  0.00    +0.015 A 
ATOM     27  C   UNL     1       9.183   0.926  21.543  0.00  0.00    +0.050 A 
ATOM     28  C   UNL     1      10.152   1.519  22.320  0.00  0.00    +0.158 A 
ATOM     29  C   UNL     1      10.510   0.956  23.545  0.00  0.00    +0.159 A 
ATOM     30  C   UNL     1       9.858  -0.184  24.035  0.00  0.00    +0.060 A 
BRANCH  29  31
ATOM     31  O   UNL     1      11.514   1.582  24.233  0.00  0.00    -0.503 OA
ATOM     32  H   UNL     1      12.006   2.134  23.600  0.00  0.00    +0.292 HD
ENDBRANCH  29  31
BRANCH  28  33
ATOM     33  O   UNL     1      10.720   2.683  21.895  0.00  0.00    -0.503 OA
ATOM     34  H   UNL     1      11.643   2.449  21.669  0.00  0.00    +0.292 HD
ENDBRANCH  28  33
ENDBRANCH  24  25
BRANCH  23  35
ATOM     35  O   UNL     1       4.584  -5.405  25.444  0.00  0.00    -0.506 OA
ATOM     36  H   UNL     1       4.952  -6.195  25.870  0.00  0.00    +0.292 HD
ENDBRANCH  23  35
BRANCH  20  37
ATOM     37  O   UNL     1       5.569  -6.706  21.023  0.00  0.00    -0.507 OA
ATOM     38  H   UNL     1       5.907  -7.578  21.293  0.00  0.00    +0.292 HD
ENDBRANCH  20  37
ENDBRANCH  13  14
ENDBRANCH   3  13
BRANCH   1  39
ATOM     39  C   UNL     1       8.135   3.331  25.217  0.00  0.00    +0.197 C 
BRANCH  39  40
ATOM     40  O   UNL     1       7.499   4.551  24.818  0.00  0.00    -0.346 OA
BRANCH  40  44
ATOM     41  C   UNL     1       5.597   6.945  25.328  0.00  0.00    +0.041 C 
ATOM     42  C   UNL     1       5.057   6.247  24.089  0.00  0.00    +0.149 C 
ATOM     43  O   UNL     1       5.197   4.823  24.173  0.00  0.00    -0.343 OA
ATOM     44  C   UNL     1       6.482   4.282  23.830  0.00  0.00    +0.282 C 
ATOM     45  C   UNL     1       6.886   4.729  22.411  0.00  0.00    +0.201 C 
ATOM     46  C   UNL     1       6.902   6.254  22.283  0.00  0.00    +0.179 C 
ATOM     47  C   UNL     1       5.576   6.852  22.769  0.00  0.00    +0.174 C 
BRANCH  47  48
ATOM     48  O   UNL     1       4.584   6.661  21.749  0.00  0.00    -0.387 OA
ATOM     49  H   UNL     1       4.940   6.034  21.092  0.00  0.00    +0.210 HD
ENDBRANCH  47  48
BRANCH  46  50
ATOM     50  O   UNL     1       8.008   6.811  23.004  0.00  0.00    -0.386 OA
ATOM     51  H   UNL     1       8.400   6.091  23.527  0.00  0.00    +0.210 HD
ENDBRANCH  46  50
BRANCH  45  52
ATOM     52  O   UNL     1       8.143   4.173  22.012  0.00  0.00    -0.384 OA
ATOM     53  H   UNL     1       8.044   3.989  21.056  0.00  0.00    +0.210 HD
ENDBRANCH  45  52
ENDBRANCH  40  44
ENDBRANCH  39  40
ENDBRANCH   1  39
TORSDOF 16
ENDMDL
