MODEL 1
REMARK VINA RESULT:      -7.4      0.000      0.000
REMARK  Name = 
REMARK  6 active torsions:
REMARK  status: ('A' for Active; 'I' for Inactive)
REMARK    1  A    between atoms: C_3  and  O_23
REMARK    2  A    between atoms: C_4  and  O_22
REMARK    3  A    between atoms: C_6  and  C_7
REMARK    4  A    between atoms: C_8  and  O_21
REMARK    5  A    between atoms: C_15  and  O_19
REMARK    6  A    between atoms: C_17  and  O_18
REMARK                            x       y       z     vdW  Elec       q    Type
REMARK                         _______ _______ _______ _____ _____    ______ ____
ROOT
ATOM      1  C   UNL     1       6.854  -2.676  23.200  0.00  0.00    +0.181 A 
ATOM      2  O   UNL     1       7.231  -3.019  24.487  0.00  0.00    -0.451 OA
ATOM      3  C   UNL     1       6.694  -4.137  25.103  0.00  0.00    +0.139 A 
ATOM      4  C   UNL     1       7.255  -4.493  26.361  0.00  0.00    -0.021 A 
ATOM      5  O   UNL     1       8.229  -3.890  26.942  0.00  0.00    -0.869 OA
ATOM      6  C   UNL     1       6.643  -5.615  26.966  0.00  0.00    +0.116 A 
ATOM      7  C   UNL     1       5.595  -6.346  26.424  0.00  0.00    +0.091 A 
ATOM      8  C   UNL     1       5.095  -5.967  25.186  0.00  0.00    +0.135 A 
ATOM      9  C   UNL     1       5.642  -4.863  24.515  0.00  0.00    +0.109 A 
ATOM     10  C   UNL     1       5.160  -4.440  23.184  0.00  0.00    +0.238 A 
ATOM     11  O   UNL     1       4.201  -4.956  22.618  0.00  0.00    -0.283 OA
ATOM     12  C   UNL     1       5.913  -3.345  22.505  0.00  0.00    +0.208 A 
ENDROOT
BRANCH   1  14
ATOM     13  C   UNL     1       8.807  -1.645  21.994  0.00  0.00    +0.015 A 
ATOM     14  C   UNL     1       7.590  -1.482  22.688  0.00  0.00    +0.025 A 
ATOM     15  C   UNL     1       7.153  -0.168  22.940  0.00  0.00    +0.060 A 
ATOM     16  C   UNL     1       7.885   0.919  22.477  0.00  0.00    +0.159 A 
ATOM     17  C   UNL     1       9.086   0.740  21.801  0.00  0.00    +0.158 A 
ATOM     18  C   UNL     1       9.555  -0.543  21.555  0.00  0.00    +0.050 A 
BRANCH  16  19
ATOM     19  O   UNL     1       7.420   2.184  22.710  0.00  0.00    -0.503 OA
ATOM     20  H   UNL     1       6.623   2.255  22.149  0.00  0.00    +0.292 HD
ENDBRANCH  16  19
BRANCH  17  21
ATOM     21  O   UNL     1       9.778   1.855  21.420  0.00  0.00    -0.503 OA
ATOM     22  H   UNL     1      10.726   1.654  21.512  0.00  0.00    +0.292 HD
ENDBRANCH  17  21
ENDBRANCH   1  14
BRANCH   6  23
ATOM     23  O   UNL     1       7.141  -6.004  28.192  0.00  0.00    -0.507 OA
ATOM     24  H   UNL     1       7.519  -5.133  28.472  0.00  0.00    +0.292 HD
ENDBRANCH   6  23
BRANCH   8  25
ATOM     25  O   UNL     1       4.075  -6.702  24.646  0.00  0.00    -0.506 OA
ATOM     26  H   UNL     1       3.268  -6.542  25.158  0.00  0.00    +0.292 HD
ENDBRANCH   8  25
BRANCH  12  27
ATOM     27  O   UNL     1       5.583  -3.098  21.180  0.00  0.00    -0.501 OA
ATOM     28  H   UNL     1       4.877  -2.433  21.177  0.00  0.00    +0.292 HD
ENDBRANCH  12  27
TORSDOF 6
ENDMDL
MODEL 2
REMARK VINA RESULT:      -7.2      1.108      3.149
REMARK  Name = 
REMARK  6 active torsions:
REMARK  status: ('A' for Active; 'I' for Inactive)
REMARK    1  A    between atoms: C_3  and  O_23
REMARK    2  A    between atoms: C_4  and  O_22
REMARK    3  A    between atoms: C_6  and  C_7
REMARK    4  A    between atoms: C_8  and  O_21
REMARK    5  A    between atoms: C_15  and  O_19
REMARK    6  A    between atoms: C_17  and  O_18
REMARK                            x       y       z     vdW  Elec       q    Type
REMARK                         _______ _______ _______ _____ _____    ______ ____
ROOT
ATOM      1  C   UNL     1       7.710  -2.446  24.143  0.00  0.00    +0.181 A 
ATOM      2  O   UNL     1       6.858  -3.235  23.388  0.00  0.00    -0.451 OA
ATOM      3  C   UNL     1       6.215  -4.321  23.958  0.00  0.00    +0.139 A 
ATOM      4  C   UNL     1       5.246  -4.975  23.147  0.00  0.00    -0.021 A 
ATOM      5  O   UNL     1       4.902  -4.620  21.962  0.00  0.00    -0.869 OA
ATOM      6  C   UNL     1       4.650  -6.101  23.761  0.00  0.00    +0.116 A 
ATOM      7  C   UNL     1       4.938  -6.565  25.037  0.00  0.00    +0.091 A 
ATOM      8  C   UNL     1       5.879  -5.880  25.793  0.00  0.00    +0.135 A 
ATOM      9  C   UNL     1       6.522  -4.753  25.261  0.00  0.00    +0.109 A 
ATOM     10  C   UNL     1       7.510  -3.977  26.039  0.00  0.00    +0.238 A 
ATOM     11  O   UNL     1       7.904  -4.310  27.154  0.00  0.00    -0.283 OA
ATOM     12  C   UNL     1       8.019  -2.716  25.426  0.00  0.00    +0.208 A 
ENDROOT
BRANCH   1  14
ATOM     13  C   UNL     1       9.607  -1.279  22.973  0.00  0.00    +0.015 A 
ATOM     14  C   UNL     1       8.254  -1.290  23.370  0.00  0.00    +0.025 A 
ATOM     15  C   UNL     1       7.479  -0.152  23.080  0.00  0.00    +0.060 A 
ATOM     16  C   UNL     1       8.032   0.920  22.388  0.00  0.00    +0.159 A 
ATOM     17  C   UNL     1       9.370   0.917  22.011  0.00  0.00    +0.158 A 
ATOM     18  C   UNL     1      10.166  -0.182  22.301  0.00  0.00    +0.050 A 
BRANCH  16  19
ATOM     19  O   UNL     1       7.247   2.000  22.092  0.00  0.00    -0.503 OA
ATOM     20  H   UNL     1       6.539   1.975  22.764  0.00  0.00    +0.292 HD
ENDBRANCH  16  19
BRANCH  17  21
ATOM     21  O   UNL     1       9.859   2.025  21.380  0.00  0.00    -0.503 OA
ATOM     22  H   UNL     1       9.199   2.732  21.480  0.00  0.00    +0.292 HD
ENDBRANCH  17  21
ENDBRANCH   1  14
BRANCH   6  23
ATOM     23  O   UNL     1       3.706  -6.780  23.020  0.00  0.00    -0.507 OA
ATOM     24  H   UNL     1       2.906  -6.526  23.545  0.00  0.00    +0.292 HD
ENDBRANCH   6  23
BRANCH   8  25
ATOM     25  O   UNL     1       6.145  -6.330  27.057  0.00  0.00    -0.506 OA
ATOM     26  H   UNL     1       6.545  -5.610  27.568  0.00  0.00    +0.292 HD
ENDBRANCH   8  25
BRANCH  12  27
ATOM     27  O   UNL     1       8.782  -1.895  26.245  0.00  0.00    -0.501 OA
ATOM     28  H   UNL     1       8.200  -1.194  26.577  0.00  0.00    +0.292 HD
ENDBRANCH  12  27
TORSDOF 6
ENDMDL
MODEL 3
REMARK VINA RESULT:      -7.1      1.126      1.732
REMARK  Name = 
REMARK  6 active torsions:
REMARK  status: ('A' for Active; 'I' for Inactive)
REMARK    1  A    between atoms: C_3  and  O_23
REMARK    2  A    between atoms: C_4  and  O_22
REMARK    3  A    between atoms: C_6  and  C_7
REMARK    4  A    between atoms: C_8  and  O_21
REMARK    5  A    between atoms: C_15  and  O_19
REMARK    6  A    between atoms: C_17  and  O_18
REMARK                            x       y       z     vdW  Elec       q    Type
REMARK                         _______ _______ _______ _____ _____    ______ ____
ROOT
ATOM      1  C   UNL     1       6.552  -3.456  23.314  0.00  0.00    +0.181 A 
ATOM      2  O   UNL     1       6.670  -3.784  24.655  0.00  0.00    -0.451 OA
ATOM      3  C   UNL     1       6.036  -4.905  25.162  0.00  0.00    +0.139 A 
ATOM      4  C   UNL     1       6.341  -5.244  26.510  0.00  0.00    -0.021 A 
ATOM      5  O   UNL     1       7.172  -4.623  27.266  0.00  0.00    -0.869 OA
ATOM      6  C   UNL     1       5.636  -6.371  26.992  0.00  0.00    +0.116 A 
ATOM      7  C   UNL     1       4.726  -7.121  26.261  0.00  0.00    +0.091 A 
ATOM      8  C   UNL     1       4.477  -6.758  24.945  0.00  0.00    +0.135 A 
ATOM      9  C   UNL     1       5.131  -5.650  24.385  0.00  0.00    +0.109 A 
ATOM     10  C   UNL     1       4.918  -5.244  22.980  0.00  0.00    +0.238 A 
ATOM     11  O   UNL     1       4.096  -5.778  22.240  0.00  0.00    -0.283 OA
ATOM     12  C   UNL     1       5.775  -4.143  22.454  0.00  0.00    +0.208 A 
ENDROOT
BRANCH   1  14
ATOM     13  C   UNL     1       6.807  -0.963  23.084  0.00  0.00    +0.015 A 
ATOM     14  C   UNL     1       7.358  -2.254  22.947  0.00  0.00    +0.025 A 
ATOM     15  C   UNL     1       8.644  -2.358  22.385  0.00  0.00    +0.060 A 
ATOM     16  C   UNL     1       9.350  -1.216  22.023  0.00  0.00    +0.159 A 
ATOM     17  C   UNL     1       8.788   0.048  22.159  0.00  0.00    +0.158 A 
ATOM     18  C   UNL     1       7.513   0.182  22.690  0.00  0.00    +0.050 A 
BRANCH  16  19
ATOM     19  O   UNL     1      10.611  -1.346  21.510  0.00  0.00    -0.503 OA
ATOM     20  H   UNL     1      10.733  -2.310  21.411  0.00  0.00    +0.292 HD
ENDBRANCH  16  19
BRANCH  17  21
ATOM     21  O   UNL     1       9.518   1.121  21.735  0.00  0.00    -0.503 OA
ATOM     22  H   UNL     1       8.960   1.912  21.838  0.00  0.00    +0.292 HD
ENDBRANCH  17  21
ENDBRANCH   1  14
BRANCH   6  23
ATOM     23  O   UNL     1       5.886  -6.744  28.296  0.00  0.00    -0.507 OA
ATOM     24  H   UNL     1       6.751  -6.276  28.412  0.00  0.00    +0.292 HD
ENDBRANCH   6  23
BRANCH   8  25
ATOM     25  O   UNL     1       3.594  -7.512  24.221  0.00  0.00    -0.506 OA
ATOM     26  H   UNL     1       2.760  -7.576  24.711  0.00  0.00    +0.292 HD
ENDBRANCH   8  25
BRANCH  12  27
ATOM     27  O   UNL     1       5.711  -3.910  21.087  0.00  0.00    -0.501 OA
ATOM     28  H   UNL     1       6.278  -3.146  20.897  0.00  0.00    +0.292 HD
ENDBRANCH  12  27
TORSDOF 6
ENDMDL
MODEL 4
REMARK VINA RESULT:      -6.9      1.823      3.927
REMARK  Name = 
REMARK  6 active torsions:
REMARK  status: ('A' for Active; 'I' for Inactive)
REMARK    1  A    between atoms: C_3  and  O_23
REMARK    2  A    between atoms: C_4  and  O_22
REMARK    3  A    between atoms: C_6  and  C_7
REMARK    4  A    between atoms: C_8  and  O_21
REMARK    5  A    between atoms: C_15  and  O_19
REMARK    6  A    between atoms: C_17  and  O_18
REMARK                            x       y       z     vdW  Elec       q    Type
REMARK                         _______ _______ _______ _____ _____    ______ ____
ROOT
ATOM      1  C   UNL     1       8.134  -1.078  24.723  0.00  0.00    +0.181 A 
ATOM      2  O   UNL     1       7.357  -1.699  23.759  0.00  0.00    -0.451 OA
ATOM      3  C   UNL     1       6.852  -2.970  23.975  0.00  0.00    +0.139 A 
ATOM      4  C   UNL     1       5.942  -3.460  22.996  0.00  0.00    -0.021 A 
ATOM      5  O   UNL     1       5.533  -2.812  21.966  0.00  0.00    -0.869 OA
ATOM      6  C   UNL     1       5.490  -4.777  23.243  0.00  0.00    +0.116 A 
ATOM      7  C   UNL     1       5.857  -5.562  24.326  0.00  0.00    +0.091 A 
ATOM      8  C   UNL     1       6.734  -5.029  25.261  0.00  0.00    +0.135 A 
ATOM      9  C   UNL     1       7.236  -3.730  25.094  0.00  0.00    +0.109 A 
ATOM     10  C   UNL     1       8.150  -3.113  26.078  0.00  0.00    +0.238 A 
ATOM     11  O   UNL     1       8.604  -3.714  27.047  0.00  0.00    -0.283 OA
ATOM     12  C   UNL     1       8.501  -1.678  25.871  0.00  0.00    +0.208 A 
ENDROOT
BRANCH   1  14
ATOM     13  C   UNL     1       8.164   1.402  25.146  0.00  0.00    +0.015 A 
ATOM     14  C   UNL     1       8.528   0.309  24.332  0.00  0.00    +0.025 A 
ATOM     15  C   UNL     1       9.193   0.587  23.124  0.00  0.00    +0.060 A 
ATOM     16  C   UNL     1       9.511   1.895  22.779  0.00  0.00    +0.159 A 
ATOM     17  C   UNL     1       9.139   2.962  23.589  0.00  0.00    +0.158 A 
ATOM     18  C   UNL     1       8.463   2.722  24.777  0.00  0.00    +0.050 A 
BRANCH  16  19
ATOM     19  O   UNL     1      10.186   2.133  21.613  0.00  0.00    -0.503 OA
ATOM     20  H   UNL     1      11.061   2.456  21.903  0.00  0.00    +0.292 HD
ENDBRANCH  16  19
BRANCH  17  21
ATOM     21  O   UNL     1       9.439   4.224  23.163  0.00  0.00    -0.503 OA
ATOM     22  H   UNL     1      10.402   4.265  23.027  0.00  0.00    +0.292 HD
ENDBRANCH  17  21
ENDBRANCH   1  14
BRANCH   6  23
ATOM     23  O   UNL     1       4.609  -5.309  22.323  0.00  0.00    -0.507 OA
ATOM     24  H   UNL     1       3.767  -5.105  22.803  0.00  0.00    +0.292 HD
ENDBRANCH   6  23
BRANCH   8  25
ATOM     25  O   UNL     1       7.078  -5.800  26.338  0.00  0.00    -0.506 OA
ATOM     26  H   UNL     1       6.632  -6.657  26.266  0.00  0.00    +0.292 HD
ENDBRANCH   8  25
BRANCH  12  27
ATOM     27  O   UNL     1       9.188  -1.056  26.904  0.00  0.00    -0.501 OA
ATOM     28  H   UNL     1       8.530  -0.754  27.549  0.00  0.00    +0.292 HD
ENDBRANCH  12  27
TORSDOF 6
ENDMDL
MODEL 5
REMARK VINA RESULT:      -6.8      2.222      6.968
REMARK  Name = 
REMARK  6 active torsions:
REMARK  status: ('A' for Active; 'I' for Inactive)
REMARK    1  A    between atoms: C_3  and  O_23
REMARK    2  A    between atoms: C_4  and  O_22
REMARK    3  A    between atoms: C_6  and  C_7
REMARK    4  A    between atoms: C_8  and  O_21
REMARK    5  A    between atoms: C_15  and  O_19
REMARK    6  A    between atoms: C_17  and  O_18
REMARK                            x       y       z     vdW  Elec       q    Type
REMARK                         _______ _______ _______ _____ _____    ______ ____
ROOT
ATOM      1  C   UNL     1       6.948  -4.008  24.616  0.00  0.00    +0.181 A 
ATOM      2  O   UNL     1       6.368  -2.778  24.877  0.00  0.00    -0.451 OA
ATOM      3  C   UNL     1       7.070  -1.606  24.647  0.00  0.00    +0.139 A 
ATOM      4  C   UNL     1       6.338  -0.395  24.799  0.00  0.00    -0.021 A 
ATOM      5  O   UNL     1       5.092  -0.307  25.092  0.00  0.00    -0.869 OA
ATOM      6  C   UNL     1       7.112   0.771  24.593  0.00  0.00    +0.116 A 
ATOM      7  C   UNL     1       8.460   0.792  24.263  0.00  0.00    +0.091 A 
ATOM      8  C   UNL     1       9.122  -0.418  24.110  0.00  0.00    +0.135 A 
ATOM      9  C   UNL     1       8.432  -1.625  24.298  0.00  0.00    +0.109 A 
ATOM     10  C   UNL     1       9.089  -2.937  24.119  0.00  0.00    +0.238 A 
ATOM     11  O   UNL     1      10.289  -3.066  23.890  0.00  0.00    -0.283 OA
ATOM     12  C   UNL     1       8.222  -4.148  24.202  0.00  0.00    +0.208 A 
ENDROOT
BRANCH   1  14
ATOM     13  C   UNL     1       5.154  -5.592  23.840  0.00  0.00    +0.015 A 
ATOM     14  C   UNL     1       6.012  -5.145  24.866  0.00  0.00    +0.025 A 
ATOM     15  C   UNL     1       5.892  -5.753  26.129  0.00  0.00    +0.060 A 
ATOM     16  C   UNL     1       4.984  -6.786  26.331  0.00  0.00    +0.159 A 
ATOM     17  C   UNL     1       4.140  -7.209  25.311  0.00  0.00    +0.158 A 
ATOM     18  C   UNL     1       4.219  -6.614  24.059  0.00  0.00    +0.050 A 
BRANCH  16  19
ATOM     19  O   UNL     1       4.911  -7.379  27.561  0.00  0.00    -0.503 OA
ATOM     20  H   UNL     1       5.372  -8.232  27.444  0.00  0.00    +0.292 HD
ENDBRANCH  16  19
BRANCH  17  21
ATOM     21  O   UNL     1       3.237  -8.193  25.595  0.00  0.00    -0.503 OA
ATOM     22  H   UNL     1       2.828  -8.464  24.755  0.00  0.00    +0.292 HD
ENDBRANCH  17  21
ENDBRANCH   1  14
BRANCH   6  23
ATOM     23  O   UNL     1       6.458   1.978  24.733  0.00  0.00    -0.507 OA
ATOM     24  H   UNL     1       7.152   2.453  25.257  0.00  0.00    +0.292 HD
ENDBRANCH   6  23
BRANCH   8  25
ATOM     25  O   UNL     1      10.445  -0.393  23.765  0.00  0.00    -0.506 OA
ATOM     26  H   UNL     1      10.955  -0.861  24.444  0.00  0.00    +0.292 HD
ENDBRANCH   8  25
BRANCH  12  27
ATOM     27  O   UNL     1       8.805  -5.351  23.831  0.00  0.00    -0.501 OA
ATOM     28  H   UNL     1       8.257  -5.734  23.128  0.00  0.00    +0.292 HD
ENDBRANCH  12  27
TORSDOF 6
ENDMDL
MODEL 6
REMARK VINA RESULT:      -6.8      2.054      7.020
REMARK  Name = 
REMARK  6 active torsions:
REMARK  status: ('A' for Active; 'I' for Inactive)
REMARK    1  A    between atoms: C_3  and  O_23
REMARK    2  A    between atoms: C_4  and  O_22
REMARK    3  A    between atoms: C_6  and  C_7
REMARK    4  A    between atoms: C_8  and  O_21
REMARK    5  A    between atoms: C_15  and  O_19
REMARK    6  A    between atoms: C_17  and  O_18
REMARK                            x       y       z     vdW  Elec       q    Type
REMARK                         _______ _______ _______ _____ _____    ______ ____
ROOT
ATOM      1  C   UNL     1       7.818  -1.856  24.116  0.00  0.00    +0.181 A 
ATOM      2  O   UNL     1       7.779  -0.761  24.962  0.00  0.00    -0.451 OA
ATOM      3  C   UNL     1       8.150   0.493  24.507  0.00  0.00    +0.139 A 
ATOM      4  C   UNL     1       7.930   1.577  25.402  0.00  0.00    -0.021 A 
ATOM      5  O   UNL     1       7.390   1.489  26.564  0.00  0.00    -0.869 OA
ATOM      6  C   UNL     1       8.364   2.828  24.905  0.00  0.00    +0.116 A 
ATOM      7  C   UNL     1       8.947   3.039  23.664  0.00  0.00    +0.091 A 
ATOM      8  C   UNL     1       9.123   1.950  22.822  0.00  0.00    +0.135 A 
ATOM      9  C   UNL     1       8.724   0.671  23.236  0.00  0.00    +0.109 A 
ATOM     10  C   UNL     1       8.867  -0.513  22.362  0.00  0.00    +0.238 A 
ATOM     11  O   UNL     1       9.422  -0.481  21.268  0.00  0.00    -0.283 OA
ATOM     12  C   UNL     1       8.275  -1.793  22.850  0.00  0.00    +0.208 A 
ENDROOT
BRANCH   1  14
ATOM     13  C   UNL     1       6.014  -3.564  24.511  0.00  0.00    +0.015 A 
ATOM     14  C   UNL     1       7.321  -3.103  24.771  0.00  0.00    +0.025 A 
ATOM     15  C   UNL     1       8.088  -3.810  25.715  0.00  0.00    +0.060 A 
ATOM     16  C   UNL     1       7.575  -4.947  26.330  0.00  0.00    +0.159 A 
ATOM     17  C   UNL     1       6.282  -5.384  26.068  0.00  0.00    +0.158 A 
ATOM     18  C   UNL     1       5.493  -4.695  25.157  0.00  0.00    +0.050 A 
BRANCH  16  19
ATOM     19  O   UNL     1       8.355  -5.633  27.220  0.00  0.00    -0.503 OA
ATOM     20  H   UNL     1       9.229  -5.202  27.157  0.00  0.00    +0.292 HD
ENDBRANCH  16  19
BRANCH  17  21
ATOM     21  O   UNL     1       5.826  -6.478  26.747  0.00  0.00    -0.503 OA
ATOM     22  H   UNL     1       5.392  -7.061  26.101  0.00  0.00    +0.292 HD
ENDBRANCH  17  21
ENDBRANCH   1  14
BRANCH   6  23
ATOM     23  O   UNL     1       8.182   3.917  25.732  0.00  0.00    -0.507 OA
ATOM     24  H   UNL     1       7.202   4.010  25.628  0.00  0.00    +0.292 HD
ENDBRANCH   6  23
BRANCH   8  25
ATOM     25  O   UNL     1       9.681   2.166  21.592  0.00  0.00    -0.506 OA
ATOM     26  H   UNL     1      10.448   1.583  21.488  0.00  0.00    +0.292 HD
ENDBRANCH   8  25
BRANCH  12  27
ATOM     27  O   UNL     1       8.234  -2.840  21.941  0.00  0.00    -0.501 OA
ATOM     28  H   UNL     1       7.397  -3.310  22.079  0.00  0.00    +0.292 HD
ENDBRANCH  12  27
TORSDOF 6
ENDMDL
MODEL 7
REMARK VINA RESULT:      -6.7      2.501      4.078
REMARK  Name = 
REMARK  6 active torsions:
REMARK  status: ('A' for Active; 'I' for Inactive)
REMARK    1  A    between atoms: C_3  and  O_23
REMARK    2  A    between atoms: C_4  and  O_22
REMARK    3  A    between atoms: C_6  and  C_7
REMARK    4  A    between atoms: C_8  and  O_21
REMARK    5  A    between atoms: C_15  and  O_19
REMARK    6  A    between atoms: C_17  and  O_18
REMARK                            x       y       z     vdW  Elec       q    Type
REMARK                         _______ _______ _______ _____ _____    ______ ____
ROOT
ATOM      1  C   UNL     1       8.195  -1.121  23.051  0.00  0.00    +0.181 A 
ATOM      2  O   UNL     1       7.328  -1.915  22.319  0.00  0.00    -0.451 OA
ATOM      3  C   UNL     1       7.303  -3.287  22.508  0.00  0.00    +0.139 A 
ATOM      4  C   UNL     1       6.275  -3.996  21.825  0.00  0.00    -0.021 A 
ATOM      5  O   UNL     1       5.364  -3.468  21.091  0.00  0.00    -0.869 OA
ATOM      6  C   UNL     1       6.320  -5.397  22.018  0.00  0.00    +0.116 A 
ATOM      7  C   UNL     1       7.250  -6.069  22.798  0.00  0.00    +0.091 A 
ATOM      8  C   UNL     1       8.221  -5.328  23.456  0.00  0.00    +0.135 A 
ATOM      9  C   UNL     1       8.253  -3.932  23.319  0.00  0.00    +0.109 A 
ATOM     10  C   UNL     1       9.251  -3.100  24.023  0.00  0.00    +0.238 A 
ATOM     11  O   UNL     1      10.169  -3.567  24.692  0.00  0.00    -0.283 OA
ATOM     12  C   UNL     1       9.098  -1.620  23.917  0.00  0.00    +0.208 A 
ENDROOT
BRANCH   1  14
ATOM     13  C   UNL     1       9.071   1.053  22.137  0.00  0.00    +0.015 A 
ATOM     14  C   UNL     1       8.027   0.333  22.752  0.00  0.00    +0.025 A 
ATOM     15  C   UNL     1       6.878   1.049  23.137  0.00  0.00    +0.060 A 
ATOM     16  C   UNL     1       6.774   2.410  22.873  0.00  0.00    +0.159 A 
ATOM     17  C   UNL     1       7.816   3.106  22.271  0.00  0.00    +0.158 A 
ATOM     18  C   UNL     1       8.972   2.432  21.900  0.00  0.00    +0.050 A 
BRANCH  16  19
ATOM     19  O   UNL     1       5.633   3.074  23.229  0.00  0.00    -0.503 OA
ATOM     20  H   UNL     1       5.504   2.844  24.170  0.00  0.00    +0.292 HD
ENDBRANCH  16  19
BRANCH  17  21
ATOM     21  O   UNL     1       7.666   4.451  22.089  0.00  0.00    -0.503 OA
ATOM     22  H   UNL     1       6.719   4.622  21.951  0.00  0.00    +0.292 HD
ENDBRANCH  17  21
ENDBRANCH   1  14
BRANCH   6  23
ATOM     23  O   UNL     1       5.352  -6.140  21.376  0.00  0.00    -0.507 OA
ATOM     24  H   UNL     1       4.557  -5.650  21.707  0.00  0.00    +0.292 HD
ENDBRANCH   6  23
BRANCH   8  25
ATOM     25  O   UNL     1       9.125  -5.993  24.239  0.00  0.00    -0.506 OA
ATOM     26  H   UNL     1       9.993  -5.965  23.810  0.00  0.00    +0.292 HD
ENDBRANCH   8  25
BRANCH  12  27
ATOM     27  O   UNL     1       9.909  -0.854  24.742  0.00  0.00    -0.501 OA
ATOM     28  H   UNL     1      10.452  -1.467  25.263  0.00  0.00    +0.292 HD
ENDBRANCH  12  27
TORSDOF 6
ENDMDL
MODEL 8
REMARK VINA RESULT:      -6.7      1.861      7.110
REMARK  Name = 
REMARK  6 active torsions:
REMARK  status: ('A' for Active; 'I' for Inactive)
REMARK    1  A    between atoms: C_3  and  O_23
REMARK    2  A    between atoms: C_4  and  O_22
REMARK    3  A    between atoms: C_6  and  C_7
REMARK    4  A    between atoms: C_8  and  O_21
REMARK    5  A    between atoms: C_15  and  O_19
REMARK    6  A    between atoms: C_17  and  O_18
REMARK                            x       y       z     vdW  Elec       q    Type
REMARK                         _______ _______ _______ _____ _____    ______ ____
ROOT
ATOM      1  C   UNL     1       7.601  -1.996  23.850  0.00  0.00    +0.181 A 
ATOM      2  O   UNL     1       6.827  -0.898  24.186  0.00  0.00    -0.451 OA
ATOM      3  C   UNL     1       7.047   0.328  23.582  0.00  0.00    +0.139 A 
ATOM      4  C   UNL     1       6.105   1.353  23.878  0.00  0.00    -0.021 A 
ATOM      5  O   UNL     1       5.065   1.219  24.619  0.00  0.00    -0.869 OA
ATOM      6  C   UNL     1       6.399   2.595  23.270  0.00  0.00    +0.116 A 
ATOM      7  C   UNL     1       7.486   2.847  22.445  0.00  0.00    +0.091 A 
ATOM      8  C   UNL     1       8.365   1.808  22.175  0.00  0.00    +0.135 A 
ATOM      9  C   UNL     1       8.152   0.542  22.738  0.00  0.00    +0.109 A 
ATOM     10  C   UNL     1       9.046  -0.601  22.456  0.00  0.00    +0.238 A 
ATOM     11  O   UNL     1      10.077  -0.504  21.796  0.00  0.00    -0.283 OA
ATOM     12  C   UNL     1       8.638  -1.932  22.992  0.00  0.00    +0.208 A 
ENDROOT
BRANCH   1  14
ATOM     13  C   UNL     1       5.907  -3.805  24.284  0.00  0.00    +0.015 A 
ATOM     14  C   UNL     1       7.169  -3.238  24.558  0.00  0.00    +0.025 A 
ATOM     15  C   UNL     1       7.950  -3.838  25.564  0.00  0.00    +0.060 A 
ATOM     16  C   UNL     1       7.496  -4.974  26.225  0.00  0.00    +0.159 A 
ATOM     17  C   UNL     1       6.247  -5.515  25.947  0.00  0.00    +0.158 A 
ATOM     18  C   UNL     1       5.444  -4.934  24.976  0.00  0.00    +0.050 A 
BRANCH  16  19
ATOM     19  O   UNL     1       8.290  -5.553  27.175  0.00  0.00    -0.503 OA
ATOM     20  H   UNL     1       8.932  -6.082  26.664  0.00  0.00    +0.292 HD
ENDBRANCH  16  19
BRANCH  17  21
ATOM     21  O   UNL     1       5.844  -6.600  26.672  0.00  0.00    -0.503 OA
ATOM     22  H   UNL     1       5.886  -6.355  27.612  0.00  0.00    +0.292 HD
ENDBRANCH  17  21
ENDBRANCH   1  14
BRANCH   6  23
ATOM     23  O   UNL     1       5.524   3.630  23.526  0.00  0.00    -0.507 OA
ATOM     24  H   UNL     1       5.326   3.416  24.473  0.00  0.00    +0.292 HD
ENDBRANCH   6  23
BRANCH   8  25
ATOM     25  O   UNL     1       9.425   2.056  21.345  0.00  0.00    -0.506 OA
ATOM     26  H   UNL     1       9.203   1.749  20.453  0.00  0.00    +0.292 HD
ENDBRANCH   8  25
BRANCH  12  27
ATOM     27  O   UNL     1       9.370  -3.025  22.552  0.00  0.00    -0.501 OA
ATOM     28  H   UNL     1       9.453  -3.638  23.299  0.00  0.00    +0.292 HD
ENDBRANCH  12  27
TORSDOF 6
ENDMDL
MODEL 9
REMARK VINA RESULT:      -6.6      2.512      3.177
REMARK  Name = 
REMARK  6 active torsions:
REMARK  status: ('A' for Active; 'I' for Inactive)
REMARK    1  A    between atoms: C_3  and  O_23
REMARK    2  A    between atoms: C_4  and  O_22
REMARK    3  A    between atoms: C_6  and  C_7
REMARK    4  A    between atoms: C_8  and  O_21
REMARK    5  A    between atoms: C_15  and  O_19
REMARK    6  A    between atoms: C_17  and  O_18
REMARK                            x       y       z     vdW  Elec       q    Type
REMARK                         _______ _______ _______ _____ _____    ______ ____
ROOT
ATOM      1  C   UNL     1       8.525  -1.874  24.674  0.00  0.00    +0.181 A 
ATOM      2  O   UNL     1       7.378  -1.532  25.371  0.00  0.00    -0.451 OA
ATOM      3  C   UNL     1       6.747  -2.459  26.183  0.00  0.00    +0.139 A 
ATOM      4  C   UNL     1       5.669  -1.971  26.974  0.00  0.00    -0.021 A 
ATOM      5  O   UNL     1       5.269  -0.752  27.020  0.00  0.00    -0.869 OA
ATOM      6  C   UNL     1       5.033  -2.965  27.752  0.00  0.00    +0.116 A 
ATOM      7  C   UNL     1       5.389  -4.306  27.787  0.00  0.00    +0.091 A 
ATOM      8  C   UNL     1       6.458  -4.727  27.009  0.00  0.00    +0.135 A 
ATOM      9  C   UNL     1       7.146  -3.808  26.204  0.00  0.00    +0.109 A 
ATOM     10  C   UNL     1       8.307  -4.205  25.380  0.00  0.00    +0.238 A 
ATOM     11  O   UNL     1       8.689  -5.366  25.268  0.00  0.00    -0.283 OA
ATOM     12  C   UNL     1       9.048  -3.116  24.680  0.00  0.00    +0.208 A 
ENDROOT
BRANCH   1  14
ATOM     13  C   UNL     1      10.074   0.101  24.497  0.00  0.00    +0.015 A 
ATOM     14  C   UNL     1       9.093  -0.724  23.909  0.00  0.00    +0.025 A 
ATOM     15  C   UNL     1       8.626  -0.373  22.628  0.00  0.00    +0.060 A 
ATOM     16  C   UNL     1       9.156   0.727  21.962  0.00  0.00    +0.159 A 
ATOM     17  C   UNL     1      10.117   1.533  22.560  0.00  0.00    +0.158 A 
ATOM     18  C   UNL     1      10.582   1.226  23.831  0.00  0.00    +0.050 A 
BRANCH  16  19
ATOM     19  O   UNL     1       8.706   1.025  20.706  0.00  0.00    -0.503 OA
ATOM     20  H   UNL     1       8.904   1.976  20.599  0.00  0.00    +0.292 HD
ENDBRANCH  16  19
BRANCH  17  21
ATOM     21  O   UNL     1      10.555   2.626  21.868  0.00  0.00    -0.503 OA
ATOM     22  H   UNL     1      10.694   2.351  20.946  0.00  0.00    +0.292 HD
ENDBRANCH  17  21
ENDBRANCH   1  14
BRANCH   6  23
ATOM     23  O   UNL     1       3.976  -2.553  28.537  0.00  0.00    -0.507 OA
ATOM     24  H   UNL     1       4.461  -2.479  29.397  0.00  0.00    +0.292 HD
ENDBRANCH   6  23
BRANCH   8  25
ATOM     25  O   UNL     1       6.818  -6.046  27.062  0.00  0.00    -0.506 OA
ATOM     26  H   UNL     1       7.779  -6.113  26.957  0.00  0.00    +0.292 HD
ENDBRANCH   8  25
BRANCH  12  27
ATOM     27  O   UNL     1      10.248  -3.472  24.081  0.00  0.00    -0.501 OA
ATOM     28  H   UNL     1      10.936  -2.893  24.445  0.00  0.00    +0.292 HD
ENDBRANCH  12  27
TORSDOF 6
ENDMDL
