MODEL 1
REMARK VINA RESULT:      -7.0      0.000      0.000
REMARK  Name = 
REMARK  16 active torsions:
REMARK  status: ('A' for Active; 'I' for Inactive)
REMARK    1  A    between atoms: C_2  and  O_51
REMARK    2  A    between atoms: C_4  and  O_50
REMARK    3  A    between atoms: C_6  and  O_49
REMARK    4  A    between atoms: C_8  and  O_11
REMARK    5  A    between atoms: O_11  and  C_12
REMARK    6  A    between atoms: C_14  and  O_48
REMARK    7  A    between atoms: C_16  and  O_47
REMARK    8  A    between atoms: C_18  and  C_45
REMARK    9  A    between atoms: C_21  and  O_23
REMARK   10  A    between atoms: O_23  and  C_24
REMARK   11  A    between atoms: C_25  and  C_37
REMARK   12  A    between atoms: C_29  and  O_36
REMARK   13  A    between atoms: C_31  and  O_35
REMARK   14  A    between atoms: C_39  and  O_44
REMARK   15  A    between atoms: C_40  and  O_43
REMARK   16  A    between atoms: C_45  and  O_46
REMARK                            x       y       z     vdW  Elec       q    Type
REMARK                         _______ _______ _______ _____ _____    ______ ____
ROOT
ATOM      1  C   UNL     1       5.595   0.127  25.747  0.00  0.00    +0.221 C 
ATOM      2  C   UNL     1       5.927   1.514  25.105  0.00  0.00    +0.340 C 
ATOM      3  O   UNL     1       6.761   2.203  26.060  0.00  0.00    -0.331 OA
ATOM      4  C   UNL     1       6.041   2.537  27.272  0.00  0.00    +0.179 C 
ATOM      5  C   UNL     1       5.522   1.288  28.005  0.00  0.00    +0.177 C 
ATOM      6  C   UNL     1       4.773   0.419  27.017  0.00  0.00    +0.180 C 
ENDROOT
BRANCH   6   7
ATOM      7  O   UNL     1       4.318  -0.778  27.663  0.00  0.00    -0.386 OA
ATOM      8  H   UNL     1       3.762  -0.459  28.403  0.00  0.00    +0.210 HD
ENDBRANCH   6   7
BRANCH   5   9
ATOM      9  O   UNL     1       4.589   1.657  29.038  0.00  0.00    -0.386 OA
ATOM     10  H   UNL     1       3.791   1.117  28.858  0.00  0.00    +0.210 HD
ENDBRANCH   5   9
BRANCH   4  11
ATOM     11  C   UNL     1       6.954   3.345  28.209  0.00  0.00    +0.190 C 
BRANCH  11  12
ATOM     12  O   UNL     1       7.646   2.490  29.110  0.00  0.00    -0.392 OA
ATOM     13  H   UNL     1       6.999   1.834  29.418  0.00  0.00    +0.210 HD
ENDBRANCH  11  12
ENDBRANCH   4  11
BRANCH   2  14
ATOM     14  O   UNL     1       6.573   1.339  23.828  0.00  0.00    -0.453 OA
BRANCH  14  15
ATOM     15  C   UNL     1       7.778   1.981  23.558  0.00  0.00    +0.214 A 
ATOM     16  C   UNL     1       7.840   3.420  23.060  0.00  0.00    +0.238 A 
ATOM     17  O   UNL     1       6.956   3.910  22.367  0.00  0.00    -0.283 OA
ATOM     18  C   UNL     1       9.088   4.156  23.340  0.00  0.00    +0.109 A 
ATOM     19  C   UNL     1      10.232   3.391  23.493  0.00  0.00    +0.147 A 
ATOM     20  C   UNL     1      11.484   3.975  23.713  0.00  0.00    +0.092 A 
ATOM     21  C   UNL     1      11.574   5.355  23.799  0.00  0.00    +0.124 A 
ATOM     22  C   UNL     1      10.442   6.149  23.642  0.00  0.00    +0.091 A 
ATOM     23  O   UNL     1      10.195   2.033  23.410  0.00  0.00    -0.451 OA
ATOM     24  C   UNL     1       9.197   5.547  23.417  0.00  0.00    +0.135 A 
ATOM     25  C   UNL     1       8.992   1.363  23.651  0.00  0.00    +0.181 A 
BRANCH  25  26
ATOM     26  C   UNL     1       9.276  -0.086  23.953  0.00  0.00    +0.025 A 
ATOM     27  C   UNL     1       9.890  -0.884  22.947  0.00  0.00    +0.015 A 
ATOM     28  C   UNL     1      10.138  -2.253  23.117  0.00  0.00    +0.050 A 
ATOM     29  C   UNL     1       9.766  -2.854  24.299  0.00  0.00    +0.158 A 
ATOM     30  C   UNL     1       9.177  -2.102  25.310  0.00  0.00    +0.159 A 
ATOM     31  C   UNL     1       8.951  -0.730  25.153  0.00  0.00    +0.060 A 
BRANCH  30  32
ATOM     32  O   UNL     1       8.809  -2.769  26.451  0.00  0.00    -0.503 OA
ATOM     33  H   UNL     1       9.591  -3.247  26.791  0.00  0.00    +0.292 HD
ENDBRANCH  30  32
BRANCH  29  34
ATOM     34  O   UNL     1       9.959  -4.191  24.457  0.00  0.00    -0.503 OA
ATOM     35  H   UNL     1      10.821  -4.366  24.029  0.00  0.00    +0.292 HD
ENDBRANCH  29  34
ENDBRANCH  25  26
BRANCH  24  36
ATOM     36  O   UNL     1       8.090   6.340  23.314  0.00  0.00    -0.506 OA
ATOM     37  H   UNL     1       8.320   7.252  23.554  0.00  0.00    +0.292 HD
ENDBRANCH  24  36
BRANCH  21  38
ATOM     38  O   UNL     1      12.758   5.981  24.052  0.00  0.00    -0.507 OA
ATOM     39  H   UNL     1      12.707   6.903  23.743  0.00  0.00    +0.292 HD
ENDBRANCH  21  38
ENDBRANCH  14  15
ENDBRANCH   2  14
BRANCH   1  40
ATOM     40  O   UNL     1       4.948  -0.866  24.925  0.00  0.00    -0.337 OA
BRANCH  40  43
ATOM     41  C   UNL     1       6.715  -2.998  22.659  0.00  0.00    +0.197 C 
ATOM     42  O   UNL     1       5.708  -2.128  23.125  0.00  0.00    -0.346 OA
ATOM     43  C   UNL     1       5.754  -1.965  24.535  0.00  0.00    +0.282 C 
ATOM     44  C   UNL     1       5.248  -3.284  25.143  0.00  0.00    +0.201 C 
ATOM     45  C   UNL     1       6.257  -4.375  24.709  0.00  0.00    +0.178 C 
ATOM     46  C   UNL     1       6.455  -4.407  23.175  0.00  0.00    +0.171 C 
BRANCH  46  47
ATOM     47  O   UNL     1       7.562  -5.241  22.834  0.00  0.00    -0.387 OA
ATOM     48  H   UNL     1       8.012  -4.826  22.074  0.00  0.00    +0.210 HD
ENDBRANCH  46  47
BRANCH  45  49
ATOM     49  O   UNL     1       5.828  -5.645  25.205  0.00  0.00    -0.386 OA
ATOM     50  H   UNL     1       6.386  -5.841  25.982  0.00  0.00    +0.210 HD
ENDBRANCH  45  49
BRANCH  44  51
ATOM     51  O   UNL     1       5.145  -3.170  26.572  0.00  0.00    -0.384 OA
ATOM     52  H   UNL     1       4.228  -2.924  26.790  0.00  0.00    +0.210 HD
ENDBRANCH  44  51
ENDBRANCH  40  43
ENDBRANCH   1  40
TORSDOF 16
ENDMDL
MODEL 2
REMARK VINA RESULT:      -6.7      1.886      7.266
REMARK  Name = 
REMARK  16 active torsions:
REMARK  status: ('A' for Active; 'I' for Inactive)
REMARK    1  A    between atoms: C_2  and  O_51
REMARK    2  A    between atoms: C_4  and  O_50
REMARK    3  A    between atoms: C_6  and  O_49
REMARK    4  A    between atoms: C_8  and  O_11
REMARK    5  A    between atoms: O_11  and  C_12
REMARK    6  A    between atoms: C_14  and  O_48
REMARK    7  A    between atoms: C_16  and  O_47
REMARK    8  A    between atoms: C_18  and  C_45
REMARK    9  A    between atoms: C_21  and  O_23
REMARK   10  A    between atoms: O_23  and  C_24
REMARK   11  A    between atoms: C_25  and  C_37
REMARK   12  A    between atoms: C_29  and  O_36
REMARK   13  A    between atoms: C_31  and  O_35
REMARK   14  A    between atoms: C_39  and  O_44
REMARK   15  A    between atoms: C_40  and  O_43
REMARK   16  A    between atoms: C_45  and  O_46
REMARK                            x       y       z     vdW  Elec       q    Type
REMARK                         _______ _______ _______ _____ _____    ______ ____
ROOT
ATOM      1  C   UNL     1       6.336   2.156  26.304  0.00  0.00    +0.221 C 
ATOM      2  C   UNL     1       5.819   0.680  26.349  0.00  0.00    +0.340 C 
ATOM      3  O   UNL     1       4.647   0.698  27.191  0.00  0.00    -0.331 OA
ATOM      4  C   UNL     1       4.971   1.002  28.571  0.00  0.00    +0.179 C 
ATOM      5  C   UNL     1       5.610   2.392  28.727  0.00  0.00    +0.177 C 
ATOM      6  C   UNL     1       6.754   2.515  27.743  0.00  0.00    +0.180 C 
ENDROOT
BRANCH   6   7
ATOM      7  O   UNL     1       7.340   3.821  27.833  0.00  0.00    -0.386 OA
ATOM      8  H   UNL     1       6.885   4.341  27.139  0.00  0.00    +0.210 HD
ENDBRANCH   6   7
BRANCH   5   9
ATOM      9  O   UNL     1       6.166   2.549  30.046  0.00  0.00    -0.386 OA
ATOM     10  H   UNL     1       5.538   3.141  30.512  0.00  0.00    +0.210 HD
ENDBRANCH   5   9
BRANCH   4  11
ATOM     11  C   UNL     1       3.700   0.916  29.430  0.00  0.00    +0.190 C 
BRANCH  11  12
ATOM     12  O   UNL     1       3.245   2.212  29.800  0.00  0.00    -0.392 OA
ATOM     13  H   UNL     1       2.513   2.427  29.199  0.00  0.00    +0.210 HD
ENDBRANCH  11  12
ENDBRANCH   4  11
BRANCH   2  14
ATOM     14  O   UNL     1       5.539   0.201  25.019  0.00  0.00    -0.453 OA
BRANCH  14  15
ATOM     15  C   UNL     1       5.926  -1.080  24.638  0.00  0.00    +0.214 A 
ATOM     16  C   UNL     1       5.042  -2.300  24.868  0.00  0.00    +0.238 A 
ATOM     17  O   UNL     1       4.266  -2.376  25.814  0.00  0.00    -0.283 OA
ATOM     18  C   UNL     1       5.265  -3.449  23.969  0.00  0.00    +0.109 A 
ATOM     19  C   UNL     1       6.531  -3.564  23.420  0.00  0.00    +0.147 A 
ATOM     20  C   UNL     1       6.880  -4.636  22.592  0.00  0.00    +0.092 A 
ATOM     21  C   UNL     1       5.924  -5.596  22.299  0.00  0.00    +0.124 A 
ATOM     22  C   UNL     1       4.645  -5.509  22.843  0.00  0.00    +0.091 A 
ATOM     23  O   UNL     1       7.505  -2.650  23.684  0.00  0.00    -0.451 OA
ATOM     24  C   UNL     1       4.315  -4.431  23.675  0.00  0.00    +0.135 A 
ATOM     25  C   UNL     1       7.146  -1.362  24.093  0.00  0.00    +0.181 A 
BRANCH  25  26
ATOM     26  C   UNL     1       8.309  -0.427  23.883  0.00  0.00    +0.025 A 
ATOM     27  C   UNL     1       9.266  -0.285  24.927  0.00  0.00    +0.015 A 
ATOM     28  C   UNL     1      10.346   0.604  24.844  0.00  0.00    +0.050 A 
ATOM     29  C   UNL     1      10.484   1.380  23.714  0.00  0.00    +0.158 A 
ATOM     30  C   UNL     1       9.575   1.258  22.669  0.00  0.00    +0.159 A 
ATOM     31  C   UNL     1       8.510   0.352  22.738  0.00  0.00    +0.060 A 
BRANCH  30  32
ATOM     32  O   UNL     1       9.757   2.078  21.584  0.00  0.00    -0.503 OA
ATOM     33  H   UNL     1       9.912   1.516  20.799  0.00  0.00    +0.292 HD
ENDBRANCH  30  32
BRANCH  29  34
ATOM     34  O   UNL     1      11.500   2.280  23.643  0.00  0.00    -0.503 OA
ATOM     35  H   UNL     1      11.323   2.907  24.372  0.00  0.00    +0.292 HD
ENDBRANCH  29  34
ENDBRANCH  25  26
BRANCH  24  36
ATOM     36  O   UNL     1       3.042  -4.337  24.159  0.00  0.00    -0.506 OA
ATOM     37  H   UNL     1       2.969  -3.558  24.733  0.00  0.00    +0.292 HD
ENDBRANCH  24  36
BRANCH  21  38
ATOM     38  O   UNL     1       6.190  -6.641  21.468  0.00  0.00    -0.507 OA
ATOM     39  H   UNL     1       6.731  -6.330  20.721  0.00  0.00    +0.292 HD
ENDBRANCH  21  38
ENDBRANCH  14  15
ENDBRANCH   2  14
BRANCH   1  40
ATOM     40  O   UNL     1       7.379   2.483  25.362  0.00  0.00    -0.337 OA
BRANCH  40  43
ATOM     41  C   UNL     1       6.046   4.161  22.497  0.00  0.00    +0.197 C 
ATOM     42  O   UNL     1       6.606   3.117  23.263  0.00  0.00    -0.346 OA
ATOM     43  C   UNL     1       7.114   3.580  24.506  0.00  0.00    +0.282 C 
ATOM     44  C   UNL     1       8.393   4.372  24.186  0.00  0.00    +0.201 C 
ATOM     45  C   UNL     1       7.950   5.577  23.320  0.00  0.00    +0.178 C 
ATOM     46  C   UNL     1       7.139   5.134  22.079  0.00  0.00    +0.171 C 
BRANCH  46  47
ATOM     47  O   UNL     1       6.541   6.266  21.447  0.00  0.00    -0.387 OA
ATOM     48  H   UNL     1       5.706   6.450  21.918  0.00  0.00    +0.210 HD
ENDBRANCH  46  47
BRANCH  45  49
ATOM     49  O   UNL     1       9.097   6.342  22.946  0.00  0.00    -0.386 OA
ATOM     50  H   UNL     1       9.692   5.733  22.468  0.00  0.00    +0.210 HD
ENDBRANCH  45  49
BRANCH  44  51
ATOM     51  O   UNL     1       9.046   4.779  25.399  0.00  0.00    -0.384 OA
ATOM     52  H   UNL     1       9.962   4.449  25.375  0.00  0.00    +0.210 HD
ENDBRANCH  44  51
ENDBRANCH  40  43
ENDBRANCH   1  40
TORSDOF 16
ENDMDL
MODEL 3
REMARK VINA RESULT:      -6.6      1.636      2.226
REMARK  Name = 
REMARK  16 active torsions:
REMARK  status: ('A' for Active; 'I' for Inactive)
REMARK    1  A    between atoms: C_2  and  O_51
REMARK    2  A    between atoms: C_4  and  O_50
REMARK    3  A    between atoms: C_6  and  O_49
REMARK    4  A    between atoms: C_8  and  O_11
REMARK    5  A    between atoms: O_11  and  C_12
REMARK    6  A    between atoms: C_14  and  O_48
REMARK    7  A    between atoms: C_16  and  O_47
REMARK    8  A    between atoms: C_18  and  C_45
REMARK    9  A    between atoms: C_21  and  O_23
REMARK   10  A    between atoms: O_23  and  C_24
REMARK   11  A    between atoms: C_25  and  C_37
REMARK   12  A    between atoms: C_29  and  O_36
REMARK   13  A    between atoms: C_31  and  O_35
REMARK   14  A    between atoms: C_39  and  O_44
REMARK   15  A    between atoms: C_40  and  O_43
REMARK   16  A    between atoms: C_45  and  O_46
REMARK                            x       y       z     vdW  Elec       q    Type
REMARK                         _______ _______ _______ _____ _____    ______ ____
ROOT
ATOM      1  C   UNL     1       4.810  -1.126  26.929  0.00  0.00    +0.221 C 
ATOM      2  C   UNL     1       5.098   0.206  26.160  0.00  0.00    +0.340 C 
ATOM      3  O   UNL     1       6.171   0.852  26.877  0.00  0.00    -0.331 OA
ATOM      4  C   UNL     1       5.761   1.286  28.197  0.00  0.00    +0.179 C 
ATOM      5  C   UNL     1       5.321   0.112  29.088  0.00  0.00    +0.177 C 
ATOM      6  C   UNL     1       4.310  -0.721  28.329  0.00  0.00    +0.180 C 
ENDROOT
BRANCH   6   7
ATOM      7  O   UNL     1       3.917  -1.853  29.118  0.00  0.00    -0.386 OA
ATOM      8  H   UNL     1       3.109  -2.188  28.677  0.00  0.00    +0.210 HD
ENDBRANCH   6   7
BRANCH   5   9
ATOM      9  O   UNL     1       4.668   0.594  30.277  0.00  0.00    -0.386 OA
ATOM     10  H   UNL     1       4.495  -0.210  30.810  0.00  0.00    +0.210 HD
ENDBRANCH   5   9
BRANCH   4  11
ATOM     11  C   UNL     1       6.916   2.044  28.873  0.00  0.00    +0.190 C 
BRANCH  11  12
ATOM     12  O   UNL     1       7.782   1.149  29.559  0.00  0.00    -0.392 OA
ATOM     13  H   UNL     1       7.591   1.255  30.505  0.00  0.00    +0.210 HD
ENDBRANCH  11  12
ENDBRANCH   4  11
BRANCH   2  14
ATOM     14  O   UNL     1       5.434  -0.066  24.785  0.00  0.00    -0.453 OA
BRANCH  14  15
ATOM     15  C   UNL     1       6.621   0.419  24.244  0.00  0.00    +0.214 A 
ATOM     16  C   UNL     1       6.711   1.782  23.569  0.00  0.00    +0.238 A 
ATOM     17  O   UNL     1       5.762   2.281  22.975  0.00  0.00    -0.283 OA
ATOM     18  C   UNL     1       8.044   2.415  23.547  0.00  0.00    +0.109 A 
ATOM     19  C   UNL     1       9.132   1.561  23.604  0.00  0.00    +0.147 A 
ATOM     20  C   UNL     1      10.446   2.037  23.542  0.00  0.00    +0.092 A 
ATOM     21  C   UNL     1      10.660   3.402  23.441  0.00  0.00    +0.124 A 
ATOM     22  C   UNL     1       9.585   4.284  23.375  0.00  0.00    +0.091 A 
ATOM     23  O   UNL     1       8.972   0.212  23.696  0.00  0.00    -0.451 OA
ATOM     24  C   UNL     1       8.275   3.789  23.433  0.00  0.00    +0.135 A 
ATOM     25  C   UNL     1       7.779  -0.304  24.212  0.00  0.00    +0.181 A 
BRANCH  25  26
ATOM     26  C   UNL     1       7.995  -1.733  24.640  0.00  0.00    +0.025 A 
ATOM     27  C   UNL     1       8.265  -2.000  26.012  0.00  0.00    +0.015 A 
ATOM     28  C   UNL     1       8.536  -3.288  26.491  0.00  0.00    +0.050 A 
ATOM     29  C   UNL     1       8.552  -4.339  25.600  0.00  0.00    +0.158 A 
ATOM     30  C   UNL     1       8.279  -4.118  24.254  0.00  0.00    +0.159 A 
ATOM     31  C   UNL     1       7.982  -2.835  23.778  0.00  0.00    +0.060 A 
BRANCH  30  32
ATOM     32  O   UNL     1       8.335  -5.203  23.418  0.00  0.00    -0.503 OA
ATOM     33  H   UNL     1       8.432  -4.879  22.501  0.00  0.00    +0.292 HD
ENDBRANCH  30  32
BRANCH  29  34
ATOM     34  O   UNL     1       8.860  -5.586  26.045  0.00  0.00    -0.503 OA
ATOM     35  H   UNL     1       8.908  -5.494  27.017  0.00  0.00    +0.292 HD
ENDBRANCH  29  34
ENDBRANCH  25  26
BRANCH  24  36
ATOM     36  O   UNL     1       7.235   4.673  23.416  0.00  0.00    -0.506 OA
ATOM     37  H   UNL     1       6.395   4.186  23.418  0.00  0.00    +0.292 HD
ENDBRANCH  24  36
BRANCH  21  38
ATOM     38  O   UNL     1      11.916   3.931  23.417  0.00  0.00    -0.507 OA
ATOM     39  H   UNL     1      11.869   4.860  23.132  0.00  0.00    +0.292 HD
ENDBRANCH  21  38
ENDBRANCH  14  15
ENDBRANCH   2  14
BRANCH   1  40
ATOM     40  O   UNL     1       3.924  -2.086  26.317  0.00  0.00    -0.337 OA
BRANCH  40  43
ATOM     41  C   UNL     1       4.596  -4.269  23.563  0.00  0.00    +0.197 C 
ATOM     42  O   UNL     1       3.852  -3.437  24.426  0.00  0.00    -0.346 OA
ATOM     43  C   UNL     1       4.553  -3.153  25.628  0.00  0.00    +0.282 C 
ATOM     44  C   UNL     1       4.543  -4.449  26.456  0.00  0.00    +0.201 C 
ATOM     45  C   UNL     1       5.326  -5.497  25.629  0.00  0.00    +0.178 C 
ATOM     46  C   UNL     1       4.764  -5.644  24.195  0.00  0.00    +0.171 C 
BRANCH  46  47
ATOM     47  O   UNL     1       5.652  -6.422  23.391  0.00  0.00    -0.387 OA
ATOM     48  H   UNL     1       5.185  -6.619  22.556  0.00  0.00    +0.210 HD
ENDBRANCH  46  47
BRANCH  45  49
ATOM     49  O   UNL     1       5.324  -6.748  26.320  0.00  0.00    -0.386 OA
ATOM     50  H   UNL     1       4.422  -6.867  26.672  0.00  0.00    +0.210 HD
ENDBRANCH  45  49
BRANCH  44  51
ATOM     51  O   UNL     1       5.128  -4.222  27.749  0.00  0.00    -0.384 OA
ATOM     52  H   UNL     1       4.839  -3.346  28.061  0.00  0.00    +0.210 HD
ENDBRANCH  44  51
ENDBRANCH  40  43
ENDBRANCH   1  40
TORSDOF 16
ENDMDL
MODEL 4
REMARK VINA RESULT:      -6.4      2.140      8.752
REMARK  Name = 
REMARK  16 active torsions:
REMARK  status: ('A' for Active; 'I' for Inactive)
REMARK    1  A    between atoms: C_2  and  O_51
REMARK    2  A    between atoms: C_4  and  O_50
REMARK    3  A    between atoms: C_6  and  O_49
REMARK    4  A    between atoms: C_8  and  O_11
REMARK    5  A    between atoms: O_11  and  C_12
REMARK    6  A    between atoms: C_14  and  O_48
REMARK    7  A    between atoms: C_16  and  O_47
REMARK    8  A    between atoms: C_18  and  C_45
REMARK    9  A    between atoms: C_21  and  O_23
REMARK   10  A    between atoms: O_23  and  C_24
REMARK   11  A    between atoms: C_25  and  C_37
REMARK   12  A    between atoms: C_29  and  O_36
REMARK   13  A    between atoms: C_31  and  O_35
REMARK   14  A    between atoms: C_39  and  O_44
REMARK   15  A    between atoms: C_40  and  O_43
REMARK   16  A    between atoms: C_45  and  O_46
REMARK                            x       y       z     vdW  Elec       q    Type
REMARK                         _______ _______ _______ _____ _____    ______ ____
ROOT
ATOM      1  C   UNL     1       7.739  -0.669  23.165  0.00  0.00    +0.221 C 
ATOM      2  C   UNL     1       6.995  -2.039  23.303  0.00  0.00    +0.340 C 
ATOM      3  O   UNL     1       7.726  -2.788  24.295  0.00  0.00    -0.331 OA
ATOM      4  C   UNL     1       9.052  -3.151  23.838  0.00  0.00    +0.179 C 
ATOM      5  C   UNL     1       9.921  -1.919  23.531  0.00  0.00    +0.177 C 
ATOM      6  C   UNL     1       9.145  -0.991  22.621  0.00  0.00    +0.180 C 
ENDROOT
BRANCH   6   7
ATOM      7  O   UNL     1       9.913   0.192  22.357  0.00  0.00    -0.386 OA
ATOM      8  H   UNL     1       9.325   0.928  22.622  0.00  0.00    +0.210 HD
ENDBRANCH   6   7
BRANCH   5   9
ATOM      9  O   UNL     1      11.116  -2.303  22.827  0.00  0.00    -0.386 OA
ATOM     10  H   UNL     1      10.828  -2.430  21.898  0.00  0.00    +0.210 HD
ENDBRANCH   5   9
BRANCH   4  11
ATOM     11  C   UNL     1       9.744  -4.021  24.899  0.00  0.00    +0.190 C 
BRANCH  11  12
ATOM     12  O   UNL     1       9.681  -5.398  24.550  0.00  0.00    -0.392 OA
ATOM     13  H   UNL     1       8.740  -5.611  24.440  0.00  0.00    +0.210 HD
ENDBRANCH  11  12
ENDBRANCH   4  11
BRANCH   2  14
ATOM     14  O   UNL     1       5.616  -1.830  23.669  0.00  0.00    -0.453 OA
BRANCH  14  15
ATOM     15  C   UNL     1       5.004  -2.662  24.602  0.00  0.00    +0.214 A 
ATOM     16  C   UNL     1       4.475  -4.044  24.237  0.00  0.00    +0.238 A 
ATOM     17  O   UNL     1       4.045  -4.305  23.119  0.00  0.00    -0.283 OA
ATOM     18  C   UNL     1       4.377  -5.020  25.340  0.00  0.00    +0.109 A 
ATOM     19  C   UNL     1       4.223  -4.497  26.612  0.00  0.00    +0.147 A 
ATOM     20  C   UNL     1       4.070  -5.319  27.733  0.00  0.00    +0.092 A 
ATOM     21  C   UNL     1       4.094  -6.694  27.564  0.00  0.00    +0.124 A 
ATOM     22  C   UNL     1       4.241  -7.248  26.295  0.00  0.00    +0.091 A 
ATOM     23  O   UNL     1       4.185  -3.153  26.828  0.00  0.00    -0.451 OA
ATOM     24  C   UNL     1       4.387  -6.408  25.183  0.00  0.00    +0.135 A 
ATOM     25  C   UNL     1       4.769  -2.291  25.895  0.00  0.00    +0.181 A 
BRANCH  25  26
ATOM     26  C   UNL     1       5.014  -0.949  26.536  0.00  0.00    +0.025 A 
ATOM     27  C   UNL     1       3.896  -0.206  27.007  0.00  0.00    +0.015 A 
ATOM     28  C   UNL     1       4.022   1.075  27.563  0.00  0.00    +0.050 A 
ATOM     29  C   UNL     1       5.274   1.643  27.648  0.00  0.00    +0.158 A 
ATOM     30  C   UNL     1       6.391   0.939  27.209  0.00  0.00    +0.159 A 
ATOM     31  C   UNL     1       6.271  -0.350  26.678  0.00  0.00    +0.060 A 
BRANCH  30  32
ATOM     32  O   UNL     1       7.604   1.573  27.301  0.00  0.00    -0.503 OA
ATOM     33  H   UNL     1       7.993   1.364  28.173  0.00  0.00    +0.292 HD
ENDBRANCH  30  32
BRANCH  29  34
ATOM     34  O   UNL     1       5.403   2.903  28.141  0.00  0.00    -0.503 OA
ATOM     35  H   UNL     1       5.080   2.839  29.062  0.00  0.00    +0.292 HD
ENDBRANCH  29  34
ENDBRANCH  25  26
BRANCH  24  36
ATOM     36  O   UNL     1       4.579  -6.970  23.953  0.00  0.00    -0.506 OA
ATOM     37  H   UNL     1       4.387  -7.921  23.996  0.00  0.00    +0.292 HD
ENDBRANCH  24  36
BRANCH  21  38
ATOM     38  O   UNL     1       3.991  -7.549  28.620  0.00  0.00    -0.507 OA
ATOM     39  H   UNL     1       4.346  -8.419  28.367  0.00  0.00    +0.292 HD
ENDBRANCH  21  38
ENDBRANCH  14  15
ENDBRANCH   2  14
BRANCH   1  40
ATOM     40  O   UNL     1       7.108   0.374  22.394  0.00  0.00    -0.337 OA
BRANCH  40  43
ATOM     41  C   UNL     1       5.689   3.056  24.290  0.00  0.00    +0.197 C 
ATOM     42  O   UNL     1       5.737   1.950  23.416  0.00  0.00    -0.346 OA
ATOM     43  C   UNL     1       7.064   1.651  23.005  0.00  0.00    +0.282 C 
ATOM     44  C   UNL     1       7.478   2.764  22.027  0.00  0.00    +0.201 C 
ATOM     45  C   UNL     1       7.465   4.081  22.839  0.00  0.00    +0.178 C 
ATOM     46  C   UNL     1       6.109   4.316  23.546  0.00  0.00    +0.171 C 
BRANCH  46  47
ATOM     47  O   UNL     1       6.213   5.395  24.475  0.00  0.00    -0.387 OA
ATOM     48  H   UNL     1       6.441   5.006  25.341  0.00  0.00    +0.210 HD
ENDBRANCH  46  47
BRANCH  45  49
ATOM     49  O   UNL     1       7.802   5.173  21.981  0.00  0.00    -0.386 OA
ATOM     50  H   UNL     1       7.220   5.914  22.237  0.00  0.00    +0.210 HD
ENDBRANCH  45  49
BRANCH  44  51
ATOM     51  O   UNL     1       8.768   2.479  21.462  0.00  0.00    -0.384 OA
ATOM     52  H   UNL     1       9.042   1.595  21.765  0.00  0.00    +0.210 HD
ENDBRANCH  44  51
ENDBRANCH  40  43
ENDBRANCH   1  40
TORSDOF 16
ENDMDL
MODEL 5
REMARK VINA RESULT:      -6.4      1.982      7.211
REMARK  Name = 
REMARK  16 active torsions:
REMARK  status: ('A' for Active; 'I' for Inactive)
REMARK    1  A    between atoms: C_2  and  O_51
REMARK    2  A    between atoms: C_4  and  O_50
REMARK    3  A    between atoms: C_6  and  O_49
REMARK    4  A    between atoms: C_8  and  O_11
REMARK    5  A    between atoms: O_11  and  C_12
REMARK    6  A    between atoms: C_14  and  O_48
REMARK    7  A    between atoms: C_16  and  O_47
REMARK    8  A    between atoms: C_18  and  C_45
REMARK    9  A    between atoms: C_21  and  O_23
REMARK   10  A    between atoms: O_23  and  C_24
REMARK   11  A    between atoms: C_25  and  C_37
REMARK   12  A    between atoms: C_29  and  O_36
REMARK   13  A    between atoms: C_31  and  O_35
REMARK   14  A    between atoms: C_39  and  O_44
REMARK   15  A    between atoms: C_40  and  O_43
REMARK   16  A    between atoms: C_45  and  O_46
REMARK                            x       y       z     vdW  Elec       q    Type
REMARK                         _______ _______ _______ _____ _____    ______ ____
ROOT
ATOM      1  C   UNL     1       6.225   0.472  26.537  0.00  0.00    +0.221 C 
ATOM      2  C   UNL     1       6.781  -0.822  27.218  0.00  0.00    +0.340 C 
ATOM      3  O   UNL     1       5.736  -1.810  27.099  0.00  0.00    -0.331 OA
ATOM      4  C   UNL     1       4.569  -1.468  27.887  0.00  0.00    +0.179 C 
ATOM      5  C   UNL     1       3.932  -0.142  27.441  0.00  0.00    +0.177 C 
ATOM      6  C   UNL     1       5.011   0.918  27.374  0.00  0.00    +0.180 C 
ENDROOT
BRANCH   6   7
ATOM      7  O   UNL     1       4.454   2.157  26.913  0.00  0.00    -0.386 OA
ATOM      8  H   UNL     1       3.879   2.453  27.648  0.00  0.00    +0.210 HD
ENDBRANCH   6   7
BRANCH   5   9
ATOM      9  O   UNL     1       2.959   0.303  28.404  0.00  0.00    -0.386 OA
ATOM     10  H   UNL     1       3.386   1.060  28.858  0.00  0.00    +0.210 HD
ENDBRANCH   5   9
BRANCH   4  11
ATOM     11  C   UNL     1       3.532  -2.599  27.792  0.00  0.00    +0.190 C 
BRANCH  11  12
ATOM     12  O   UNL     1       4.036  -3.691  27.034  0.00  0.00    -0.392 OA
ATOM     13  H   UNL     1       3.782  -4.498  27.512  0.00  0.00    +0.210 HD
ENDBRANCH  11  12
ENDBRANCH   4  11
BRANCH   2  14
ATOM     14  O   UNL     1       8.011  -1.237  26.590  0.00  0.00    -0.453 OA
BRANCH  14  15
ATOM     15  C   UNL     1       7.992  -2.170  25.558  0.00  0.00    +0.214 A 
ATOM     16  C   UNL     1       7.550  -3.612  25.773  0.00  0.00    +0.238 A 
ATOM     17  O   UNL     1       7.710  -4.193  26.841  0.00  0.00    -0.283 OA
ATOM     18  C   UNL     1       7.041  -4.325  24.585  0.00  0.00    +0.109 A 
ATOM     19  C   UNL     1       7.504  -3.884  23.358  0.00  0.00    +0.147 A 
ATOM     20  C   UNL     1       7.134  -4.509  22.163  0.00  0.00    +0.092 A 
ATOM     21  C   UNL     1       6.263  -5.585  22.211  0.00  0.00    +0.124 A 
ATOM     22  C   UNL     1       5.786  -6.055  23.432  0.00  0.00    +0.091 A 
ATOM     23  O   UNL     1       8.367  -2.835  23.259  0.00  0.00    -0.451 OA
ATOM     24  C   UNL     1       6.173  -5.420  24.620  0.00  0.00    +0.135 A 
ATOM     25  C   UNL     1       8.426  -1.895  24.293  0.00  0.00    +0.181 A 
BRANCH  25  26
ATOM     26  C   UNL     1       9.071  -0.631  23.786  0.00  0.00    +0.025 A 
ATOM     27  C   UNL     1      10.079  -0.015  24.580  0.00  0.00    +0.015 A 
ATOM     28  C   UNL     1      10.692   1.192  24.218  0.00  0.00    +0.050 A 
ATOM     29  C   UNL     1      10.299   1.814  23.053  0.00  0.00    +0.158 A 
ATOM     30  C   UNL     1       9.327   1.233  22.245  0.00  0.00    +0.159 A 
ATOM     31  C   UNL     1       8.732   0.015  22.591  0.00  0.00    +0.060 A 
BRANCH  30  32
ATOM     32  O   UNL     1       8.966   1.917  21.112  0.00  0.00    -0.503 OA
ATOM     33  H   UNL     1       9.570   2.679  21.009  0.00  0.00    +0.292 HD
ENDBRANCH  30  32
BRANCH  29  34
ATOM     34  O   UNL     1      10.853   3.009  22.715  0.00  0.00    -0.503 OA
ATOM     35  H   UNL     1      11.226   2.862  21.823  0.00  0.00    +0.292 HD
ENDBRANCH  29  34
ENDBRANCH  25  26
BRANCH  24  36
ATOM     36  O   UNL     1       5.657  -5.864  25.803  0.00  0.00    -0.506 OA
ATOM     37  H   UNL     1       5.461  -6.812  25.737  0.00  0.00    +0.292 HD
ENDBRANCH  24  36
BRANCH  21  38
ATOM     38  O   UNL     1       5.832  -6.211  21.080  0.00  0.00    -0.507 OA
ATOM     39  H   UNL     1       6.554  -6.231  20.428  0.00  0.00    +0.292 HD
ENDBRANCH  21  38
ENDBRANCH  14  15
ENDBRANCH   2  14
BRANCH   1  40
ATOM     40  O   UNL     1       7.136   1.569  26.316  0.00  0.00    -0.337 OA
BRANCH  40  43
ATOM     41  C   UNL     1       5.476   2.723  23.364  0.00  0.00    +0.197 C 
ATOM     42  O   UNL     1       6.151   1.834  24.226  0.00  0.00    -0.346 OA
ATOM     43  C   UNL     1       6.744   2.506  25.328  0.00  0.00    +0.282 C 
ATOM     44  C   UNL     1       7.950   3.280  24.768  0.00  0.00    +0.201 C 
ATOM     45  C   UNL     1       7.375   4.315  23.772  0.00  0.00    +0.178 C 
ATOM     46  C   UNL     1       6.480   3.653  22.697  0.00  0.00    +0.171 C 
BRANCH  46  47
ATOM     47  O   UNL     1       5.774   4.650  21.957  0.00  0.00    -0.387 OA
ATOM     48  H   UNL     1       6.262   5.488  22.066  0.00  0.00    +0.210 HD
ENDBRANCH  46  47
BRANCH  45  49
ATOM     49  O   UNL     1       8.447   5.049  23.176  0.00  0.00    -0.386 OA
ATOM     50  H   UNL     1       8.135   5.327  22.294  0.00  0.00    +0.210 HD
ENDBRANCH  45  49
BRANCH  44  51
ATOM     51  O   UNL     1       8.688   3.896  25.836  0.00  0.00    -0.384 OA
ATOM     52  H   UNL     1       8.434   4.835  25.876  0.00  0.00    +0.210 HD
ENDBRANCH  44  51
ENDBRANCH  40  43
ENDBRANCH   1  40
TORSDOF 16
ENDMDL
MODEL 6
REMARK VINA RESULT:      -6.4      2.231      4.445
REMARK  Name = 
REMARK  16 active torsions:
REMARK  status: ('A' for Active; 'I' for Inactive)
REMARK    1  A    between atoms: C_2  and  O_51
REMARK    2  A    between atoms: C_4  and  O_50
REMARK    3  A    between atoms: C_6  and  O_49
REMARK    4  A    between atoms: C_8  and  O_11
REMARK    5  A    between atoms: O_11  and  C_12
REMARK    6  A    between atoms: C_14  and  O_48
REMARK    7  A    between atoms: C_16  and  O_47
REMARK    8  A    between atoms: C_18  and  C_45
REMARK    9  A    between atoms: C_21  and  O_23
REMARK   10  A    between atoms: O_23  and  C_24
REMARK   11  A    between atoms: C_25  and  C_37
REMARK   12  A    between atoms: C_29  and  O_36
REMARK   13  A    between atoms: C_31  and  O_35
REMARK   14  A    between atoms: C_39  and  O_44
REMARK   15  A    between atoms: C_40  and  O_43
REMARK   16  A    between atoms: C_45  and  O_46
REMARK                            x       y       z     vdW  Elec       q    Type
REMARK                         _______ _______ _______ _____ _____    ______ ____
ROOT
ATOM      1  C   UNL     1       4.799   1.743  26.402  0.00  0.00    +0.221 C 
ATOM      2  C   UNL     1       6.271   2.205  26.146  0.00  0.00    +0.340 C 
ATOM      3  O   UNL     1       7.036   1.733  27.275  0.00  0.00    -0.331 OA
ATOM      4  C   UNL     1       6.664   2.403  28.504  0.00  0.00    +0.179 C 
ATOM      5  C   UNL     1       5.191   2.163  28.877  0.00  0.00    +0.177 C 
ATOM      6  C   UNL     1       4.328   2.476  27.673  0.00  0.00    +0.180 C 
ENDROOT
BRANCH   6   7
ATOM      7  O   UNL     1       2.950   2.215  27.977  0.00  0.00    -0.386 OA
ATOM      8  H   UNL     1       2.647   3.021  28.443  0.00  0.00    +0.210 HD
ENDBRANCH   6   7
BRANCH   5   9
ATOM      9  O   UNL     1       4.784   3.052  29.934  0.00  0.00    -0.386 OA
ATOM     10  H   UNL     1       5.550   3.649  30.067  0.00  0.00    +0.210 HD
ENDBRANCH   5   9
BRANCH   4  11
ATOM     11  C   UNL     1       7.572   1.924  29.648  0.00  0.00    +0.190 C 
BRANCH  11  12
ATOM     12  O   UNL     1       8.369   0.819  29.240  0.00  0.00    -0.392 OA
ATOM     13  H   UNL     1       7.769   0.196  28.799  0.00  0.00    +0.210 HD
ENDBRANCH  11  12
ENDBRANCH   4  11
BRANCH   2  14
ATOM     14  O   UNL     1       6.754   1.684  24.891  0.00  0.00    -0.453 OA
BRANCH  14  15
ATOM     15  C   UNL     1       7.909   2.202  24.314  0.00  0.00    +0.214 A 
ATOM     16  C   UNL     1       8.008   3.649  23.849  0.00  0.00    +0.238 A 
ATOM     17  O   UNL     1       7.036   4.270  23.435  0.00  0.00    -0.283 OA
ATOM     18  C   UNL     1       9.365   4.227  23.791  0.00  0.00    +0.109 A 
ATOM     19  C   UNL     1      10.407   3.334  23.608  0.00  0.00    +0.147 A 
ATOM     20  C   UNL     1      11.733   3.763  23.489  0.00  0.00    +0.092 A 
ATOM     21  C   UNL     1      12.009   5.119  23.575  0.00  0.00    +0.124 A 
ATOM     22  C   UNL     1      10.980   6.040  23.751  0.00  0.00    +0.091 A 
ATOM     23  O   UNL     1      10.185   1.994  23.510  0.00  0.00    -0.451 OA
ATOM     24  C   UNL     1       9.657   5.592  23.864  0.00  0.00    +0.135 A 
ATOM     25  C   UNL     1       9.020   1.449  24.058  0.00  0.00    +0.181 A 
BRANCH  25  26
ATOM     26  C   UNL     1       9.198  -0.036  24.240  0.00  0.00    +0.025 A 
ATOM     27  C   UNL     1       9.869  -0.771  23.223  0.00  0.00    +0.015 A 
ATOM     28  C   UNL     1      10.029  -2.163  23.279  0.00  0.00    +0.050 A 
ATOM     29  C   UNL     1       9.510  -2.849  24.354  0.00  0.00    +0.158 A 
ATOM     30  C   UNL     1       8.860  -2.162  25.374  0.00  0.00    +0.159 A 
ATOM     31  C   UNL     1       8.722  -0.769  25.333  0.00  0.00    +0.060 A 
BRANCH  30  32
ATOM     32  O   UNL     1       8.346  -2.909  26.403  0.00  0.00    -0.503 OA
ATOM     33  H   UNL     1       8.234  -2.325  27.179  0.00  0.00    +0.292 HD
ENDBRANCH  30  32
BRANCH  29  34
ATOM     34  O   UNL     1       9.618  -4.204  24.396  0.00  0.00    -0.503 OA
ATOM     35  H   UNL     1       9.026  -4.474  25.127  0.00  0.00    +0.292 HD
ENDBRANCH  29  34
ENDBRANCH  25  26
BRANCH  24  36
ATOM     36  O   UNL     1       8.668   6.506  24.085  0.00  0.00    -0.506 OA
ATOM     37  H   UNL     1       8.063   6.172  24.767  0.00  0.00    +0.292 HD
ENDBRANCH  24  36
BRANCH  21  38
ATOM     38  O   UNL     1      13.283   5.596  23.507  0.00  0.00    -0.507 OA
ATOM     39  H   UNL     1      13.899   4.919  23.836  0.00  0.00    +0.292 HD
ENDBRANCH  21  38
ENDBRANCH  14  15
ENDBRANCH   2  14
BRANCH   1  40
ATOM     40  O   UNL     1       3.843   1.891  25.332  0.00  0.00    -0.337 OA
BRANCH  40  43
ATOM     41  C   UNL     1       2.398   5.153  25.057  0.00  0.00    +0.197 C 
ATOM     42  O   UNL     1       2.462   3.761  25.278  0.00  0.00    -0.346 OA
ATOM     43  C   UNL     1       3.687   3.204  24.822  0.00  0.00    +0.282 C 
ATOM     44  C   UNL     1       3.625   3.213  23.285  0.00  0.00    +0.201 C 
ATOM     45  C   UNL     1       3.538   4.701  22.866  0.00  0.00    +0.178 C 
ATOM     46  C   UNL     1       2.367   5.434  23.562  0.00  0.00    +0.171 C 
BRANCH  46  47
ATOM     47  O   UNL     1       2.467   6.843  23.349  0.00  0.00    -0.387 OA
ATOM     48  H   UNL     1       2.010   7.278  24.094  0.00  0.00    +0.210 HD
ENDBRANCH  46  47
BRANCH  45  49
ATOM     49  O   UNL     1       3.436   4.789  21.443  0.00  0.00    -0.386 OA
ATOM     50  H   UNL     1       4.154   5.381  21.150  0.00  0.00    +0.210 HD
ENDBRANCH  45  49
BRANCH  44  51
ATOM     51  O   UNL     1       4.777   2.554  22.735  0.00  0.00    -0.384 OA
ATOM     52  H   UNL     1       5.570   3.043  23.019  0.00  0.00    +0.210 HD
ENDBRANCH  44  51
ENDBRANCH  40  43
ENDBRANCH   1  40
TORSDOF 16
ENDMDL
MODEL 7
REMARK VINA RESULT:      -6.4      2.221      7.955
REMARK  Name = 
REMARK  16 active torsions:
REMARK  status: ('A' for Active; 'I' for Inactive)
REMARK    1  A    between atoms: C_2  and  O_51
REMARK    2  A    between atoms: C_4  and  O_50
REMARK    3  A    between atoms: C_6  and  O_49
REMARK    4  A    between atoms: C_8  and  O_11
REMARK    5  A    between atoms: O_11  and  C_12
REMARK    6  A    between atoms: C_14  and  O_48
REMARK    7  A    between atoms: C_16  and  O_47
REMARK    8  A    between atoms: C_18  and  C_45
REMARK    9  A    between atoms: C_21  and  O_23
REMARK   10  A    between atoms: O_23  and  C_24
REMARK   11  A    between atoms: C_25  and  C_37
REMARK   12  A    between atoms: C_29  and  O_36
REMARK   13  A    between atoms: C_31  and  O_35
REMARK   14  A    between atoms: C_39  and  O_44
REMARK   15  A    between atoms: C_40  and  O_43
REMARK   16  A    between atoms: C_45  and  O_46
REMARK                            x       y       z     vdW  Elec       q    Type
REMARK                         _______ _______ _______ _____ _____    ______ ____
ROOT
ATOM      1  C   UNL     1       7.635   2.193  23.970  0.00  0.00    +0.221 C 
ATOM      2  C   UNL     1       7.039   1.051  23.081  0.00  0.00    +0.340 C 
ATOM      3  O   UNL     1       8.111   0.106  22.881  0.00  0.00    -0.331 OA
ATOM      4  C   UNL     1       9.182   0.658  22.076  0.00  0.00    +0.179 C 
ATOM      5  C   UNL     1       9.834   1.885  22.736  0.00  0.00    +0.177 C 
ATOM      6  C   UNL     1       8.747   2.858  23.135  0.00  0.00    +0.180 C 
ENDROOT
BRANCH   6   7
ATOM      7  O   UNL     1       9.323   3.993  23.798  0.00  0.00    -0.386 OA
ATOM      8  H   UNL     1      10.131   3.641  24.224  0.00  0.00    +0.210 HD
ENDBRANCH   6   7
BRANCH   5   9
ATOM      9  O   UNL     1      10.693   2.566  21.802  0.00  0.00    -0.386 OA
ATOM     10  H   UNL     1      11.413   1.929  21.615  0.00  0.00    +0.210 HD
ENDBRANCH   5   9
BRANCH   4  11
ATOM     11  C   UNL     1      10.246  -0.422  21.823  0.00  0.00    +0.190 C 
BRANCH  11  12
ATOM     12  O   UNL     1       9.644  -1.657  21.457  0.00  0.00    -0.392 OA
ATOM     13  H   UNL     1       9.903  -1.827  20.537  0.00  0.00    +0.210 HD
ENDBRANCH  11  12
ENDBRANCH   4  11
BRANCH   2  14
ATOM     14  O   UNL     1       5.890   0.460  23.720  0.00  0.00    -0.453 OA
BRANCH  14  15
ATOM     15  C   UNL     1       6.024  -0.708  24.465  0.00  0.00    +0.214 A 
ATOM     16  C   UNL     1       6.090  -2.084  23.815  0.00  0.00    +0.238 A 
ATOM     17  O   UNL     1       5.512  -2.339  22.764  0.00  0.00    -0.283 OA
ATOM     18  C   UNL     1       6.772  -3.141  24.587  0.00  0.00    +0.109 A 
ATOM     19  C   UNL     1       6.785  -2.987  25.962  0.00  0.00    +0.147 A 
ATOM     20  C   UNL     1       7.358  -3.945  26.805  0.00  0.00    +0.092 A 
ATOM     21  C   UNL     1       7.945  -5.067  26.243  0.00  0.00    +0.124 A 
ATOM     22  C   UNL     1       7.940  -5.252  24.863  0.00  0.00    +0.091 A 
ATOM     23  O   UNL     1       6.215  -1.906  26.562  0.00  0.00    -0.451 OA
ATOM     24  C   UNL     1       7.357  -4.284  24.035  0.00  0.00    +0.135 A 
ATOM     25  C   UNL     1       6.043  -0.727  25.830  0.00  0.00    +0.181 A 
BRANCH  25  26
ATOM     26  C   UNL     1       5.838   0.427  26.779  0.00  0.00    +0.025 A 
ATOM     27  C   UNL     1       4.530   0.970  26.916  0.00  0.00    +0.015 A 
ATOM     28  C   UNL     1       4.255   2.079  27.728  0.00  0.00    +0.050 A 
ATOM     29  C   UNL     1       5.292   2.674  28.414  0.00  0.00    +0.158 A 
ATOM     30  C   UNL     1       6.581   2.161  28.314  0.00  0.00    +0.159 A 
ATOM     31  C   UNL     1       6.853   1.038  27.524  0.00  0.00    +0.060 A 
BRANCH  30  32
ATOM     32  O   UNL     1       7.569   2.815  29.003  0.00  0.00    -0.503 OA
ATOM     33  H   UNL     1       8.400   2.739  28.493  0.00  0.00    +0.292 HD
ENDBRANCH  30  32
BRANCH  29  34
ATOM     34  O   UNL     1       5.046   3.778  29.168  0.00  0.00    -0.503 OA
ATOM     35  H   UNL     1       5.729   4.421  28.890  0.00  0.00    +0.292 HD
ENDBRANCH  29  34
ENDBRANCH  25  26
BRANCH  24  36
ATOM     36  O   UNL     1       7.406  -4.459  22.681  0.00  0.00    -0.506 OA
ATOM     37  H   UNL     1       8.049  -3.840  22.297  0.00  0.00    +0.292 HD
ENDBRANCH  24  36
BRANCH  21  38
ATOM     38  O   UNL     1       8.555  -6.016  27.007  0.00  0.00    -0.507 OA
ATOM     39  H   UNL     1       8.036  -6.159  27.819  0.00  0.00    +0.292 HD
ENDBRANCH  21  38
ENDBRANCH  14  15
ENDBRANCH   2  14
BRANCH   1  40
ATOM     40  O   UNL     1       6.730   3.177  24.511  0.00  0.00    -0.337 OA
BRANCH  40  43
ATOM     41  C   UNL     1       6.004   6.103  22.583  0.00  0.00    +0.197 C 
ATOM     42  O   UNL     1       6.421   5.330  23.687  0.00  0.00    -0.346 OA
ATOM     43  C   UNL     1       6.039   3.967  23.559  0.00  0.00    +0.282 C 
ATOM     44  C   UNL     1       4.517   3.919  23.778  0.00  0.00    +0.201 C 
ATOM     45  C   UNL     1       3.889   4.749  22.632  0.00  0.00    +0.178 C 
ATOM     46  C   UNL     1       4.484   6.175  22.552  0.00  0.00    +0.171 C 
BRANCH  46  47
ATOM     47  O   UNL     1       4.071   6.820  21.347  0.00  0.00    -0.387 OA
ATOM     48  H   UNL     1       4.322   7.760  21.424  0.00  0.00    +0.210 HD
ENDBRANCH  46  47
BRANCH  45  49
ATOM     49  O   UNL     1       2.469   4.785  22.793  0.00  0.00    -0.386 OA
ATOM     50  H   UNL     1       2.297   5.281  23.615  0.00  0.00    +0.210 HD
ENDBRANCH  45  49
BRANCH  44  51
ATOM     51  O   UNL     1       4.056   2.559  23.787  0.00  0.00    -0.384 OA
ATOM     52  H   UNL     1       3.767   2.344  24.692  0.00  0.00    +0.210 HD
ENDBRANCH  44  51
ENDBRANCH  40  43
ENDBRANCH   1  40
TORSDOF 16
ENDMDL
MODEL 8
REMARK VINA RESULT:      -6.3      2.090      5.899
REMARK  Name = 
REMARK  16 active torsions:
REMARK  status: ('A' for Active; 'I' for Inactive)
REMARK    1  A    between atoms: C_2  and  O_51
REMARK    2  A    between atoms: C_4  and  O_50
REMARK    3  A    between atoms: C_6  and  O_49
REMARK    4  A    between atoms: C_8  and  O_11
REMARK    5  A    between atoms: O_11  and  C_12
REMARK    6  A    between atoms: C_14  and  O_48
REMARK    7  A    between atoms: C_16  and  O_47
REMARK    8  A    between atoms: C_18  and  C_45
REMARK    9  A    between atoms: C_21  and  O_23
REMARK   10  A    between atoms: O_23  and  C_24
REMARK   11  A    between atoms: C_25  and  C_37
REMARK   12  A    between atoms: C_29  and  O_36
REMARK   13  A    between atoms: C_31  and  O_35
REMARK   14  A    between atoms: C_39  and  O_44
REMARK   15  A    between atoms: C_40  and  O_43
REMARK   16  A    between atoms: C_45  and  O_46
REMARK                            x       y       z     vdW  Elec       q    Type
REMARK                         _______ _______ _______ _____ _____    ______ ____
ROOT
ATOM      1  C   UNL     1       8.874   0.019  24.376  0.00  0.00    +0.221 C 
ATOM      2  C   UNL     1       8.231   1.191  25.189  0.00  0.00    +0.340 C 
ATOM      3  O   UNL     1       7.417   1.923  24.250  0.00  0.00    -0.331 OA
ATOM      4  C   UNL     1       8.215   2.589  23.240  0.00  0.00    +0.179 C 
ATOM      5  C   UNL     1       9.028   1.597  22.391  0.00  0.00    +0.177 C 
ATOM      6  C   UNL     1       9.786   0.671  23.319  0.00  0.00    +0.180 C 
ENDROOT
BRANCH   6   7
ATOM      7  O   UNL     1      10.517  -0.298  22.555  0.00  0.00    -0.386 OA
ATOM      8  H   UNL     1      11.297   0.193  22.223  0.00  0.00    +0.210 HD
ENDBRANCH   6   7
BRANCH   5   9
ATOM      9  O   UNL     1      10.005   2.292  21.595  0.00  0.00    -0.386 OA
ATOM     10  H   UNL     1      10.226   3.093  22.115  0.00  0.00    +0.210 HD
ENDBRANCH   5   9
BRANCH   4  11
ATOM     11  C   UNL     1       7.300   3.423  22.327  0.00  0.00    +0.190 C 
BRANCH  11  12
ATOM     12  O   UNL     1       7.925   4.646  21.959  0.00  0.00    -0.392 OA
ATOM     13  H   UNL     1       7.453   4.969  21.174  0.00  0.00    +0.210 HD
ENDBRANCH  11  12
ENDBRANCH   4  11
BRANCH   2  14
ATOM     14  O   UNL     1       7.471   0.678  26.302  0.00  0.00    -0.453 OA
BRANCH  14  15
ATOM     15  C   UNL     1       6.165   1.109  26.517  0.00  0.00    +0.214 A 
ATOM     16  C   UNL     1       5.846   2.413  27.237  0.00  0.00    +0.238 A 
ATOM     17  O   UNL     1       6.572   2.870  28.112  0.00  0.00    -0.283 OA
ATOM     18  C   UNL     1       4.543   3.032  26.925  0.00  0.00    +0.109 A 
ATOM     19  C   UNL     1       3.542   2.176  26.497  0.00  0.00    +0.147 A 
ATOM     20  C   UNL     1       2.251   2.635  26.217  0.00  0.00    +0.092 A 
ATOM     21  C   UNL     1       1.976   3.986  26.354  0.00  0.00    +0.124 A 
ATOM     22  C   UNL     1       2.961   4.868  26.789  0.00  0.00    +0.091 A 
ATOM     23  O   UNL     1       3.763   0.840  26.354  0.00  0.00    -0.451 OA
ATOM     24  C   UNL     1       4.247   4.390  27.070  0.00  0.00    +0.135 A 
ATOM     25  C   UNL     1       5.068   0.376  26.163  0.00  0.00    +0.181 A 
BRANCH  25  26
ATOM     26  C   UNL     1       5.026  -1.016  25.586  0.00  0.00    +0.025 A 
ATOM     27  C   UNL     1       4.341  -2.032  26.310  0.00  0.00    +0.015 A 
ATOM     28  C   UNL     1       4.300  -3.366  25.881  0.00  0.00    +0.050 A 
ATOM     29  C   UNL     1       4.955  -3.711  24.720  0.00  0.00    +0.158 A 
ATOM     30  C   UNL     1       5.623  -2.741  23.980  0.00  0.00    +0.159 A 
ATOM     31  C   UNL     1       5.644  -1.404  24.392  0.00  0.00    +0.060 A 
BRANCH  30  32
ATOM     32  O   UNL     1       6.274  -3.158  22.847  0.00  0.00    -0.503 OA
ATOM     33  H   UNL     1       7.177  -3.437  23.098  0.00  0.00    +0.292 HD
ENDBRANCH  30  32
BRANCH  29  34
ATOM     34  O   UNL     1       4.962  -5.010  24.319  0.00  0.00    -0.503 OA
ATOM     35  H   UNL     1       5.889  -5.299  24.440  0.00  0.00    +0.292 HD
ENDBRANCH  29  34
ENDBRANCH  25  26
BRANCH  24  36
ATOM     36  O   UNL     1       5.213   5.278  27.448  0.00  0.00    -0.506 OA
ATOM     37  H   UNL     1       6.089   4.886  27.305  0.00  0.00    +0.292 HD
ENDBRANCH  24  36
BRANCH  21  38
ATOM     38  O   UNL     1       0.749   4.501  26.058  0.00  0.00    -0.507 OA
ATOM     39  H   UNL     1       0.265   4.674  26.884  0.00  0.00    +0.292 HD
ENDBRANCH  21  38
ENDBRANCH  14  15
ENDBRANCH   2  14
BRANCH   1  40
ATOM     40  O   UNL     1       9.575  -1.010  25.105  0.00  0.00    -0.337 OA
BRANCH  40  43
ATOM     41  C   UNL     1       7.745  -3.565  26.815  0.00  0.00    +0.197 C 
ATOM     42  O   UNL     1       8.678  -2.524  26.625  0.00  0.00    -0.346 OA
ATOM     43  C   UNL     1       8.888  -2.241  25.249  0.00  0.00    +0.282 C 
ATOM     44  C   UNL     1       9.702  -3.416  24.681  0.00  0.00    +0.201 C 
ATOM     45  C   UNL     1       8.808  -4.671  24.826  0.00  0.00    +0.178 C 
ATOM     46  C   UNL     1       8.317  -4.871  26.279  0.00  0.00    +0.171 C 
BRANCH  46  47
ATOM     47  O   UNL     1       7.306  -5.879  26.328  0.00  0.00    -0.387 OA
ATOM     48  H   UNL     1       7.718  -6.712  26.031  0.00  0.00    +0.210 HD
ENDBRANCH  46  47
BRANCH  45  49
ATOM     49  O   UNL     1       9.517  -5.818  24.354  0.00  0.00    -0.386 OA
ATOM     50  H   UNL     1       9.544  -5.745  23.381  0.00  0.00    +0.210 HD
ENDBRANCH  45  49
BRANCH  44  51
ATOM     51  O   UNL     1      10.067  -3.157  23.316  0.00  0.00    -0.384 OA
ATOM     52  H   UNL     1       9.262  -3.208  22.772  0.00  0.00    +0.210 HD
ENDBRANCH  44  51
ENDBRANCH  40  43
ENDBRANCH   1  40
TORSDOF 16
ENDMDL
MODEL 9
REMARK VINA RESULT:      -6.2      2.328      6.229
REMARK  Name = 
REMARK  16 active torsions:
REMARK  status: ('A' for Active; 'I' for Inactive)
REMARK    1  A    between atoms: C_2  and  O_51
REMARK    2  A    between atoms: C_4  and  O_50
REMARK    3  A    between atoms: C_6  and  O_49
REMARK    4  A    between atoms: C_8  and  O_11
REMARK    5  A    between atoms: O_11  and  C_12
REMARK    6  A    between atoms: C_14  and  O_48
REMARK    7  A    between atoms: C_16  and  O_47
REMARK    8  A    between atoms: C_18  and  C_45
REMARK    9  A    between atoms: C_21  and  O_23
REMARK   10  A    between atoms: O_23  and  C_24
REMARK   11  A    between atoms: C_25  and  C_37
REMARK   12  A    between atoms: C_29  and  O_36
REMARK   13  A    between atoms: C_31  and  O_35
REMARK   14  A    between atoms: C_39  and  O_44
REMARK   15  A    between atoms: C_40  and  O_43
REMARK   16  A    between atoms: C_45  and  O_46
REMARK                            x       y       z     vdW  Elec       q    Type
REMARK                         _______ _______ _______ _____ _____    ______ ____
ROOT
ATOM      1  C   UNL     1       8.260  -0.081  25.464  0.00  0.00    +0.221 C 
ATOM      2  C   UNL     1       8.847   1.261  24.914  0.00  0.00    +0.340 C 
ATOM      3  O   UNL     1       8.852   1.131  23.477  0.00  0.00    -0.331 OA
ATOM      4  C   UNL     1       9.788   0.123  23.023  0.00  0.00    +0.179 C 
ATOM      5  C   UNL     1       9.445  -1.277  23.561  0.00  0.00    +0.177 C 
ATOM      6  C   UNL     1       9.253  -1.188  25.060  0.00  0.00    +0.180 C 
ENDROOT
BRANCH   6   7
ATOM      7  O   UNL     1       8.884  -2.471  25.584  0.00  0.00    -0.386 OA
ATOM      8  H   UNL     1       8.966  -2.371  26.554  0.00  0.00    +0.210 HD
ENDBRANCH   6   7
BRANCH   5   9
ATOM      9  O   UNL     1      10.532  -2.191  23.326  0.00  0.00    -0.386 OA
ATOM     10  H   UNL     1      10.768  -2.061  22.383  0.00  0.00    +0.210 HD
ENDBRANCH   5   9
BRANCH   4  11
ATOM     11  C   UNL     1       9.813   0.096  21.486  0.00  0.00    +0.190 C 
BRANCH  11  12
ATOM     12  O   UNL     1       9.430  -1.181  20.992  0.00  0.00    -0.392 OA
ATOM     13  H   UNL     1       9.141  -1.698  21.762  0.00  0.00    +0.210 HD
ENDBRANCH  11  12
ENDBRANCH   4  11
BRANCH   2  14
ATOM     14  O   UNL     1       8.060   2.381  25.367  0.00  0.00    -0.453 OA
BRANCH  14  15
ATOM     15  C   UNL     1       7.383   3.180  24.451  0.00  0.00    +0.214 A 
ATOM     16  C   UNL     1       6.036   2.780  23.861  0.00  0.00    +0.238 A 
ATOM     17  O   UNL     1       5.721   1.607  23.687  0.00  0.00    -0.283 OA
ATOM     18  C   UNL     1       5.179   3.880  23.381  0.00  0.00    +0.109 A 
ATOM     19  C   UNL     1       5.827   5.038  22.986  0.00  0.00    +0.147 A 
ATOM     20  C   UNL     1       5.129   6.133  22.467  0.00  0.00    +0.092 A 
ATOM     21  C   UNL     1       3.749   6.060  22.364  0.00  0.00    +0.124 A 
ATOM     22  C   UNL     1       3.071   4.906  22.746  0.00  0.00    +0.091 A 
ATOM     23  O   UNL     1       7.182   5.154  23.062  0.00  0.00    -0.451 OA
ATOM     24  C   UNL     1       3.788   3.817  23.259  0.00  0.00    +0.135 A 
ATOM     25  C   UNL     1       7.891   4.346  23.956  0.00  0.00    +0.181 A 
BRANCH  25  26
ATOM     26  C   UNL     1       9.253   4.944  24.200  0.00  0.00    +0.025 A 
ATOM     27  C   UNL     1       9.360   6.058  25.078  0.00  0.00    +0.015 A 
ATOM     28  C   UNL     1      10.574   6.716  25.319  0.00  0.00    +0.050 A 
ATOM     29  C   UNL     1      11.709   6.273  24.674  0.00  0.00    +0.158 A 
ATOM     30  C   UNL     1      11.644   5.178  23.819  0.00  0.00    +0.159 A 
ATOM     31  C   UNL     1      10.438   4.505  23.597  0.00  0.00    +0.060 A 
BRANCH  30  32
ATOM     32  O   UNL     1      12.805   4.806  23.191  0.00  0.00    -0.503 OA
ATOM     33  H   UNL     1      13.556   5.039  23.773  0.00  0.00    +0.292 HD
ENDBRANCH  30  32
BRANCH  29  34
ATOM     34  O   UNL     1      12.883   6.932  24.864  0.00  0.00    -0.503 OA
ATOM     35  H   UNL     1      13.352   6.846  24.010  0.00  0.00    +0.292 HD
ENDBRANCH  29  34
ENDBRANCH  25  26
BRANCH  24  36
ATOM     36  O   UNL     1       3.101   2.712  23.674  0.00  0.00    -0.506 OA
ATOM     37  H   UNL     1       2.615   2.918  24.489  0.00  0.00    +0.292 HD
ENDBRANCH  24  36
BRANCH  21  38
ATOM     38  O   UNL     1       3.009   7.107  21.904  0.00  0.00    -0.507 OA
ATOM     39  H   UNL     1       2.281   7.286  22.526  0.00  0.00    +0.292 HD
ENDBRANCH  21  38
ENDBRANCH  14  15
ENDBRANCH   2  14
BRANCH   1  40
ATOM     40  O   UNL     1       7.937  -0.157  26.868  0.00  0.00    -0.337 OA
BRANCH  40  43
ATOM     41  C   UNL     1       5.226  -2.488  27.009  0.00  0.00    +0.197 C 
ATOM     42  O   UNL     1       6.374  -1.841  26.506  0.00  0.00    -0.346 OA
ATOM     43  C   UNL     1       6.632  -0.615  27.176  0.00  0.00    +0.282 C 
ATOM     44  C   UNL     1       5.556   0.376  26.701  0.00  0.00    +0.201 C 
ATOM     45  C   UNL     1       4.199  -0.201  27.170  0.00  0.00    +0.178 C 
ATOM     46  C   UNL     1       3.989  -1.658  26.692  0.00  0.00    +0.171 C 
BRANCH  46  47
ATOM     47  O   UNL     1       2.858  -2.237  27.343  0.00  0.00    -0.387 OA
ATOM     48  H   UNL     1       2.947  -2.046  28.296  0.00  0.00    +0.210 HD
ENDBRANCH  46  47
BRANCH  45  49
ATOM     49  O   UNL     1       3.140   0.650  26.726  0.00  0.00    -0.386 OA
ATOM     50  H   UNL     1       3.156   1.435  27.305  0.00  0.00    +0.210 HD
ENDBRANCH  45  49
BRANCH  44  51
ATOM     51  O   UNL     1       5.810   1.685  27.235  0.00  0.00    -0.384 OA
ATOM     52  H   UNL     1       5.181   1.843  27.962  0.00  0.00    +0.210 HD
ENDBRANCH  44  51
ENDBRANCH  40  43
ENDBRANCH   1  40
TORSDOF 16
ENDMDL
