MODEL 1
REMARK VINA RESULT:      -7.2      0.000      0.000
REMARK  Name = 
REMARK  22 active torsions:
REMARK  status: ('A' for Active; 'I' for Inactive)
REMARK    1  A    between atoms: C_3  and  O_60
REMARK    2  A    between atoms: C_4  and  O_59
REMARK    3  A    between atoms: C_6  and  C_7
REMARK    4  A    between atoms: C_8  and  O_20
REMARK    5  A    between atoms: C_12  and  O_19
REMARK    6  A    between atoms: C_14  and  O_18
REMARK    7  A    between atoms: O_20  and  C_21
REMARK    8  A    between atoms: C_23  and  O_47
REMARK    9  A    between atoms: C_25  and  O_35
REMARK   10  A    between atoms: C_27  and  O_34
REMARK   11  A    between atoms: C_29  and  C_32
REMARK   12  A    between atoms: C_32  and  O_33
REMARK   13  A    between atoms: O_35  and  C_36
REMARK   14  A    between atoms: C_36  and  C_38
REMARK   15  A    between atoms: C_40  and  O_46
REMARK   16  A    between atoms: C_41  and  O_45
REMARK   17  A    between atoms: C_42  and  O_44
REMARK   18  A    between atoms: O_47  and  C_48
REMARK   19  A    between atoms: C_48  and  C_50
REMARK   20  A    between atoms: C_52  and  O_58
REMARK   21  A    between atoms: C_53  and  O_57
REMARK   22  A    between atoms: C_54  and  O_56
REMARK                            x       y       z     vdW  Elec       q    Type
REMARK                         _______ _______ _______ _____ _____    ______ ____
ROOT
ATOM      1  C   UNL     1       5.586  -3.146  23.523  0.00  0.00    +0.353 C 
ATOM      2  O   UNL     1       4.653  -4.001  22.810  0.00  0.00    -0.330 OA
ATOM      3  C   UNL     1       4.830  -5.429  22.610  0.00  0.00    +0.180 C 
ATOM      4  C   UNL     1       6.291  -5.954  22.735  0.00  0.00    +0.190 C 
ATOM      5  C   UNL     1       7.024  -5.168  23.817  0.00  0.00    +0.254 C 
ATOM      6  C   UNL     1       7.057  -3.615  23.416  0.00  0.00    +0.288 C 
ENDROOT
BRANCH   4   7
ATOM      7  O   UNL     1       6.976  -5.890  21.488  0.00  0.00    -0.385 OA
ATOM      8  H   UNL     1       7.916  -5.715  21.675  0.00  0.00    +0.210 HD
ENDBRANCH   4   7
BRANCH   1   9
ATOM      9  O   UNL     1       5.399  -3.083  24.963  0.00  0.00    -0.452 OA
BRANCH   9  20
ATOM     10  C   UNL     1       5.100  -1.103  26.331  0.00  0.00    +0.181 A 
ATOM     11  O   UNL     1       4.344  -0.448  27.304  0.00  0.00    -0.451 OA
ATOM     12  C   UNL     1       3.153  -0.935  27.725  0.00  0.00    +0.147 A 
ATOM     13  C   UNL     1       2.519  -1.988  27.098  0.00  0.00    +0.109 A 
ATOM     14  C   UNL     1       1.262  -2.392  27.558  0.00  0.00    +0.135 A 
ATOM     15  C   UNL     1       0.641  -1.721  28.616  0.00  0.00    +0.091 A 
ATOM     16  C   UNL     1       1.302  -0.668  29.235  0.00  0.00    +0.124 A 
ATOM     17  C   UNL     1       3.220  -2.642  25.985  0.00  0.00    +0.238 A 
ATOM     18  O   UNL     1       2.659  -3.572  25.415  0.00  0.00    -0.283 OA
ATOM     19  C   UNL     1       2.567  -0.286  28.814  0.00  0.00    +0.092 A 
ATOM     20  C   UNL     1       4.614  -2.188  25.649  0.00  0.00    +0.214 A 
BRANCH  10  22
ATOM     21  C   UNL     1       6.420   1.070  26.225  0.00  0.00    +0.015 A 
ATOM     22  C   UNL     1       6.422  -0.355  26.241  0.00  0.00    +0.025 A 
ATOM     23  C   UNL     1       7.648  -0.950  25.954  0.00  0.00    +0.060 A 
ATOM     24  C   UNL     1       8.773  -0.190  25.610  0.00  0.00    +0.159 A 
ATOM     25  C   UNL     1       8.706   1.192  25.502  0.00  0.00    +0.158 A 
ATOM     26  C   UNL     1       7.533   1.838  25.836  0.00  0.00    +0.050 A 
BRANCH  25  27
ATOM     27  O   UNL     1       9.804   1.858  25.036  0.00  0.00    -0.503 OA
ATOM     28  H   UNL     1       9.799   1.811  24.064  0.00  0.00    +0.292 HD
ENDBRANCH  25  27
BRANCH  24  29
ATOM     29  O   UNL     1       9.954  -0.819  25.320  0.00  0.00    -0.503 OA
ATOM     30  H   UNL     1      10.620  -0.345  25.856  0.00  0.00    +0.292 HD
ENDBRANCH  24  29
ENDBRANCH  10  22
BRANCH  14  31
ATOM     31  O   UNL     1       0.578  -3.447  27.021  0.00  0.00    -0.506 OA
ATOM     32  H   UNL     1      -0.284  -3.117  26.675  0.00  0.00    +0.292 HD
ENDBRANCH  14  31
BRANCH  16  33
ATOM     33  O   UNL     1       0.739   0.033  30.259  0.00  0.00    -0.507 OA
ATOM     34  H   UNL     1       1.312   0.787  30.479  0.00  0.00    +0.292 HD
ENDBRANCH  16  33
ENDBRANCH   9  20
ENDBRANCH   1   9
BRANCH   6  35
ATOM     35  O   UNL     1       7.806  -3.110  22.149  0.00  0.00    -0.448 OA
BRANCH  35  36
ATOM     36  C   UNL     1       8.788  -2.104  22.312  0.00  0.00    +0.340 C 
ATOM     37  O   UNL     1       9.934  -2.407  22.638  0.00  0.00    -0.245 OA
BRANCH  36  38
ATOM     38  C   UNL     1       8.534  -0.560  22.138  0.00  0.00    +0.066 A 
ATOM     39  C   UNL     1       7.292   0.075  22.296  0.00  0.00    +0.064 A 
ATOM     40  C   UNL     1       7.182   1.491  22.235  0.00  0.00    +0.163 A 
ATOM     41  C   UNL     1       8.283   2.316  22.022  0.00  0.00    +0.201 A 
ATOM     42  C   UNL     1       9.525   1.734  21.849  0.00  0.00    +0.163 A 
ATOM     43  C   UNL     1       9.656   0.323  21.890  0.00  0.00    +0.064 A 
BRANCH  42  44
ATOM     44  O   UNL     1      10.568   2.608  21.664  0.00  0.00    -0.503 OA
ATOM     45  H   UNL     1      11.407   2.119  21.639  0.00  0.00    +0.292 HD
ENDBRANCH  42  44
BRANCH  41  46
ATOM     46  O   UNL     1       8.122   3.680  22.016  0.00  0.00    -0.501 OA
ATOM     47  H   UNL     1       8.671   4.018  22.754  0.00  0.00    +0.292 HD
ENDBRANCH  41  46
BRANCH  40  48
ATOM     48  O   UNL     1       5.966   2.081  22.412  0.00  0.00    -0.503 OA
ATOM     49  H   UNL     1       5.436   1.817  21.619  0.00  0.00    +0.292 HD
ENDBRANCH  40  48
ENDBRANCH  36  38
ENDBRANCH  35  36
ENDBRANCH   6  35
BRANCH   5  50
ATOM     50  O   UNL     1       6.184  -5.634  25.000  0.00  0.00    -0.451 OA
BRANCH  50  51
ATOM     51  C   UNL     1       6.458  -5.880  26.305  0.00  0.00    +0.340 C 
ATOM     52  O   UNL     1       7.568  -6.017  26.775  0.00  0.00    -0.245 OA
BRANCH  51  53
ATOM     53  C   UNL     1       5.185  -5.824  27.138  0.00  0.00    +0.066 A 
ATOM     54  C   UNL     1       4.106  -6.683  26.871  0.00  0.00    +0.064 A 
ATOM     55  C   UNL     1       2.925  -6.559  27.606  0.00  0.00    +0.163 A 
ATOM     56  C   UNL     1       2.792  -5.599  28.604  0.00  0.00    +0.201 A 
ATOM     57  C   UNL     1       3.850  -4.758  28.886  0.00  0.00    +0.163 A 
ATOM     58  C   UNL     1       5.052  -4.887  28.195  0.00  0.00    +0.064 A 
BRANCH  57  59
ATOM     59  O   UNL     1       3.626  -3.826  29.867  0.00  0.00    -0.503 OA
ATOM     60  H   UNL     1       3.217  -3.038  29.475  0.00  0.00    +0.292 HD
ENDBRANCH  57  59
BRANCH  56  61
ATOM     61  O   UNL     1       1.571  -5.493  29.261  0.00  0.00    -0.501 OA
ATOM     62  H   UNL     1       1.465  -6.366  29.684  0.00  0.00    +0.292 HD
ENDBRANCH  56  61
BRANCH  55  63
ATOM     63  O   UNL     1       1.875  -7.396  27.336  0.00  0.00    -0.503 OA
ATOM     64  H   UNL     1       2.061  -8.201  27.865  0.00  0.00    +0.292 HD
ENDBRANCH  55  63
ENDBRANCH  51  53
ENDBRANCH  50  51
ENDBRANCH   5  50
BRANCH   3  65
ATOM     65  C   UNL     1       3.820  -6.263  23.466  0.00  0.00    +0.190 C 
BRANCH  65  66
ATOM     66  O   UNL     1       4.318  -7.550  23.836  0.00  0.00    -0.392 OA
ATOM     67  H   UNL     1       5.106  -7.740  23.302  0.00  0.00    +0.210 HD
ENDBRANCH  65  66
ENDBRANCH   3  65
TORSDOF 22
ENDMDL
MODEL 2
REMARK VINA RESULT:      -7.2      1.825      5.942
REMARK  Name = 
REMARK  22 active torsions:
REMARK  status: ('A' for Active; 'I' for Inactive)
REMARK    1  A    between atoms: C_3  and  O_60
REMARK    2  A    between atoms: C_4  and  O_59
REMARK    3  A    between atoms: C_6  and  C_7
REMARK    4  A    between atoms: C_8  and  O_20
REMARK    5  A    between atoms: C_12  and  O_19
REMARK    6  A    between atoms: C_14  and  O_18
REMARK    7  A    between atoms: O_20  and  C_21
REMARK    8  A    between atoms: C_23  and  O_47
REMARK    9  A    between atoms: C_25  and  O_35
REMARK   10  A    between atoms: C_27  and  O_34
REMARK   11  A    between atoms: C_29  and  C_32
REMARK   12  A    between atoms: C_32  and  O_33
REMARK   13  A    between atoms: O_35  and  C_36
REMARK   14  A    between atoms: C_36  and  C_38
REMARK   15  A    between atoms: C_40  and  O_46
REMARK   16  A    between atoms: C_41  and  O_45
REMARK   17  A    between atoms: C_42  and  O_44
REMARK   18  A    between atoms: O_47  and  C_48
REMARK   19  A    between atoms: C_48  and  C_50
REMARK   20  A    between atoms: C_52  and  O_58
REMARK   21  A    between atoms: C_53  and  O_57
REMARK   22  A    between atoms: C_54  and  O_56
REMARK                            x       y       z     vdW  Elec       q    Type
REMARK                         _______ _______ _______ _____ _____    ______ ____
ROOT
ATOM      1  C   UNL     1       7.414  -2.595  26.052  0.00  0.00    +0.353 C 
ATOM      2  O   UNL     1       8.715  -2.401  25.436  0.00  0.00    -0.330 OA
ATOM      3  C   UNL     1       9.304  -3.292  24.451  0.00  0.00    +0.180 C 
ATOM      4  C   UNL     1       8.740  -4.744  24.431  0.00  0.00    +0.190 C 
ATOM      5  C   UNL     1       7.247  -4.715  24.741  0.00  0.00    +0.254 C 
ATOM      6  C   UNL     1       7.019  -4.085  26.198  0.00  0.00    +0.288 C 
ENDROOT
BRANCH   4   7
ATOM      7  O   UNL     1       9.445  -5.589  25.334  0.00  0.00    -0.385 OA
ATOM      8  H   UNL     1       8.785  -6.082  25.855  0.00  0.00    +0.210 HD
ENDBRANCH   4   7
BRANCH   1   9
ATOM      9  O   UNL     1       6.286  -2.060  25.310  0.00  0.00    -0.452 OA
BRANCH   9  20
ATOM     10  C   UNL     1       6.349   0.360  25.150  0.00  0.00    +0.181 A 
ATOM     11  O   UNL     1       5.911   1.584  25.656  0.00  0.00    -0.451 OA
ATOM     12  C   UNL     1       4.934   1.658  26.592  0.00  0.00    +0.147 A 
ATOM     13  C   UNL     1       4.181   0.564  26.964  0.00  0.00    +0.109 A 
ATOM     14  C   UNL     1       3.151   0.736  27.895  0.00  0.00    +0.135 A 
ATOM     15  C   UNL     1       2.866   2.002  28.416  0.00  0.00    +0.091 A 
ATOM     16  C   UNL     1       3.644   3.087  28.029  0.00  0.00    +0.124 A 
ATOM     17  C   UNL     1       4.523  -0.735  26.371  0.00  0.00    +0.238 A 
ATOM     18  O   UNL     1       3.851  -1.712  26.689  0.00  0.00    -0.283 OA
ATOM     19  C   UNL     1       4.693   2.920  27.139  0.00  0.00    +0.092 A 
ATOM     20  C   UNL     1       5.720  -0.817  25.464  0.00  0.00    +0.214 A 
BRANCH  10  22
ATOM     21  C   UNL     1       8.720   1.226  24.834  0.00  0.00    +0.015 A 
ATOM     22  C   UNL     1       7.542   0.668  24.258  0.00  0.00    +0.025 A 
ATOM     23  C   UNL     1       7.514   0.649  22.866  0.00  0.00    +0.060 A 
ATOM     24  C   UNL     1       8.546   1.205  22.100  0.00  0.00    +0.159 A 
ATOM     25  C   UNL     1       9.629   1.835  22.697  0.00  0.00    +0.158 A 
ATOM     26  C   UNL     1       9.740   1.827  24.073  0.00  0.00    +0.050 A 
BRANCH  25  27
ATOM     27  O   UNL     1      10.533   2.469  21.892  0.00  0.00    -0.503 OA
ATOM     28  H   UNL     1      11.179   2.924  22.459  0.00  0.00    +0.292 HD
ENDBRANCH  25  27
BRANCH  24  29
ATOM     29  O   UNL     1       8.468   1.179  20.734  0.00  0.00    -0.503 OA
ATOM     30  H   UNL     1       8.778   2.063  20.455  0.00  0.00    +0.292 HD
ENDBRANCH  24  29
ENDBRANCH  10  22
BRANCH  14  31
ATOM     31  O   UNL     1       2.378  -0.297  28.349  0.00  0.00    -0.506 OA
ATOM     32  H   UNL     1       2.894  -0.799  29.024  0.00  0.00    +0.292 HD
ENDBRANCH  14  31
BRANCH  16  33
ATOM     33  O   UNL     1       3.401   4.346  28.491  0.00  0.00    -0.507 OA
ATOM     34  H   UNL     1       4.177   4.904  28.311  0.00  0.00    +0.292 HD
ENDBRANCH  16  33
ENDBRANCH   9  20
ENDBRANCH   1   9
BRANCH   6  35
ATOM     35  O   UNL     1       7.557  -4.774  27.485  0.00  0.00    -0.448 OA
BRANCH  35  36
ATOM     36  C   UNL     1       6.715  -5.696  28.150  0.00  0.00    +0.340 C 
ATOM     37  O   UNL     1       7.196  -6.678  28.713  0.00  0.00    -0.245 OA
BRANCH  36  38
ATOM     38  C   UNL     1       5.145  -5.598  28.215  0.00  0.00    +0.066 A 
ATOM     39  C   UNL     1       4.424  -4.444  28.561  0.00  0.00    +0.064 A 
ATOM     40  C   UNL     1       3.005  -4.417  28.477  0.00  0.00    +0.163 A 
ATOM     41  C   UNL     1       2.261  -5.513  28.049  0.00  0.00    +0.201 A 
ATOM     42  C   UNL     1       2.928  -6.675  27.709  0.00  0.00    +0.163 A 
ATOM     43  C   UNL     1       4.342  -6.731  27.800  0.00  0.00    +0.064 A 
BRANCH  42  44
ATOM     44  O   UNL     1       2.134  -7.708  27.276  0.00  0.00    -0.503 OA
ATOM     45  H   UNL     1       1.209  -7.414  27.225  0.00  0.00    +0.292 HD
ENDBRANCH  42  44
BRANCH  41  46
ATOM     46  O   UNL     1       0.895  -5.413  27.948  0.00  0.00    -0.501 OA
ATOM     47  H   UNL     1       0.672  -4.501  28.233  0.00  0.00    +0.292 HD
ENDBRANCH  41  46
BRANCH  40  48
ATOM     48  O   UNL     1       2.333  -3.276  28.802  0.00  0.00    -0.503 OA
ATOM     49  H   UNL     1       1.375  -3.511  28.717  0.00  0.00    +0.292 HD
ENDBRANCH  40  48
ENDBRANCH  36  38
ENDBRANCH  35  36
ENDBRANCH   6  35
BRANCH   5  50
ATOM     50  O   UNL     1       6.804  -3.950  23.499  0.00  0.00    -0.451 OA
BRANCH  50  51
ATOM     51  C   UNL     1       5.812  -4.130  22.592  0.00  0.00    +0.340 C 
ATOM     52  O   UNL     1       5.915  -3.959  21.396  0.00  0.00    -0.245 OA
BRANCH  51  53
ATOM     53  C   UNL     1       4.577  -4.718  23.261  0.00  0.00    +0.066 A 
ATOM     54  C   UNL     1       4.235  -6.069  23.090  0.00  0.00    +0.064 A 
ATOM     55  C   UNL     1       3.057  -6.562  23.657  0.00  0.00    +0.163 A 
ATOM     56  C   UNL     1       2.210  -5.740  24.393  0.00  0.00    +0.201 A 
ATOM     57  C   UNL     1       2.542  -4.413  24.580  0.00  0.00    +0.163 A 
ATOM     58  C   UNL     1       3.730  -3.907  24.059  0.00  0.00    +0.064 A 
BRANCH  57  59
ATOM     59  O   UNL     1       1.641  -3.668  25.297  0.00  0.00    -0.503 OA
ATOM     60  H   UNL     1       1.933  -2.742  25.319  0.00  0.00    +0.292 HD
ENDBRANCH  57  59
BRANCH  56  61
ATOM     61  O   UNL     1       1.027  -6.280  24.884  0.00  0.00    -0.501 OA
ATOM     62  H   UNL     1       1.034  -7.193  24.537  0.00  0.00    +0.292 HD
ENDBRANCH  56  61
BRANCH  55  63
ATOM     63  O   UNL     1       2.727  -7.880  23.481  0.00  0.00    -0.503 OA
ATOM     64  H   UNL     1       3.531  -8.372  23.753  0.00  0.00    +0.292 HD
ENDBRANCH  55  63
ENDBRANCH  51  53
ENDBRANCH  50  51
ENDBRANCH   5  50
BRANCH   3  65
ATOM     65  C   UNL     1       9.334  -2.643  23.029  0.00  0.00    +0.190 C 
BRANCH  65  66
ATOM     66  O   UNL     1      10.449  -1.770  22.827  0.00  0.00    -0.392 OA
ATOM     67  H   UNL     1      11.228  -2.311  22.624  0.00  0.00    +0.210 HD
ENDBRANCH  65  66
ENDBRANCH   3  65
TORSDOF 22
ENDMDL
MODEL 3
REMARK VINA RESULT:      -7.1      2.185      4.787
REMARK  Name = 
REMARK  22 active torsions:
REMARK  status: ('A' for Active; 'I' for Inactive)
REMARK    1  A    between atoms: C_3  and  O_60
REMARK    2  A    between atoms: C_4  and  O_59
REMARK    3  A    between atoms: C_6  and  C_7
REMARK    4  A    between atoms: C_8  and  O_20
REMARK    5  A    between atoms: C_12  and  O_19
REMARK    6  A    between atoms: C_14  and  O_18
REMARK    7  A    between atoms: O_20  and  C_21
REMARK    8  A    between atoms: C_23  and  O_47
REMARK    9  A    between atoms: C_25  and  O_35
REMARK   10  A    between atoms: C_27  and  O_34
REMARK   11  A    between atoms: C_29  and  C_32
REMARK   12  A    between atoms: C_32  and  O_33
REMARK   13  A    between atoms: O_35  and  C_36
REMARK   14  A    between atoms: C_36  and  C_38
REMARK   15  A    between atoms: C_40  and  O_46
REMARK   16  A    between atoms: C_41  and  O_45
REMARK   17  A    between atoms: C_42  and  O_44
REMARK   18  A    between atoms: O_47  and  C_48
REMARK   19  A    between atoms: C_48  and  C_50
REMARK   20  A    between atoms: C_52  and  O_58
REMARK   21  A    between atoms: C_53  and  O_57
REMARK   22  A    between atoms: C_54  and  O_56
REMARK                            x       y       z     vdW  Elec       q    Type
REMARK                         _______ _______ _______ _____ _____    ______ ____
ROOT
ATOM      1  C   UNL     1       7.613  -0.816  24.281  0.00  0.00    +0.353 C 
ATOM      2  O   UNL     1       7.131  -1.224  22.973  0.00  0.00    -0.330 OA
ATOM      3  C   UNL     1       7.766  -2.227  22.135  0.00  0.00    +0.180 C 
ATOM      4  C   UNL     1       9.268  -2.507  22.436  0.00  0.00    +0.190 C 
ATOM      5  C   UNL     1       9.517  -2.397  23.937  0.00  0.00    +0.254 C 
ATOM      6  C   UNL     1       9.151  -0.915  24.429  0.00  0.00    +0.288 C 
ENDROOT
BRANCH   4   7
ATOM      7  O   UNL     1      10.118  -1.633  21.700  0.00  0.00    -0.385 OA
ATOM      8  H   UNL     1      10.541  -2.156  20.995  0.00  0.00    +0.210 HD
ENDBRANCH   4   7
BRANCH   1   9
ATOM      9  O   UNL     1       7.155  -1.627  25.396  0.00  0.00    -0.452 OA
BRANCH   9  20
ATOM     10  C   UNL     1       5.031  -1.389  26.543  0.00  0.00    +0.181 A 
ATOM     11  O   UNL     1       4.245  -0.640  27.419  0.00  0.00    -0.451 OA
ATOM     12  C   UNL     1       4.756   0.399  28.122  0.00  0.00    +0.147 A 
ATOM     13  C   UNL     1       6.108   0.668  28.168  0.00  0.00    +0.109 A 
ATOM     14  C   UNL     1       6.561   1.725  28.965  0.00  0.00    +0.135 A 
ATOM     15  C   UNL     1       5.663   2.478  29.727  0.00  0.00    +0.091 A 
ATOM     16  C   UNL     1       4.305   2.192  29.658  0.00  0.00    +0.124 A 
ATOM     17  C   UNL     1       7.000  -0.168  27.354  0.00  0.00    +0.238 A 
ATOM     18  O   UNL     1       8.205   0.057  27.398  0.00  0.00    -0.283 OA
ATOM     19  C   UNL     1       3.841   1.173  28.839  0.00  0.00    +0.092 A 
ATOM     20  C   UNL     1       6.387  -1.206  26.455  0.00  0.00    +0.214 A 
BRANCH  10  22
ATOM     21  C   UNL     1       2.915  -2.800  26.505  0.00  0.00    +0.015 A 
ATOM     22  C   UNL     1       4.087  -2.347  25.833  0.00  0.00    +0.025 A 
ATOM     23  C   UNL     1       4.376  -3.001  24.638  0.00  0.00    +0.060 A 
ATOM     24  C   UNL     1       3.600  -4.072  24.177  0.00  0.00    +0.159 A 
ATOM     25  C   UNL     1       2.527  -4.555  24.913  0.00  0.00    +0.158 A 
ATOM     26  C   UNL     1       2.157  -3.905  26.073  0.00  0.00    +0.050 A 
BRANCH  25  27
ATOM     27  O   UNL     1       1.895  -5.682  24.470  0.00  0.00    -0.503 OA
ATOM     28  H   UNL     1       1.205  -5.917  25.115  0.00  0.00    +0.292 HD
ENDBRANCH  25  27
BRANCH  24  29
ATOM     29  O   UNL     1       3.932  -4.696  23.005  0.00  0.00    -0.503 OA
ATOM     30  H   UNL     1       4.496  -5.445  23.279  0.00  0.00    +0.292 HD
ENDBRANCH  24  29
ENDBRANCH  10  22
BRANCH  14  31
ATOM     31  O   UNL     1       7.878   2.085  29.044  0.00  0.00    -0.506 OA
ATOM     32  H   UNL     1       8.135   2.516  28.194  0.00  0.00    +0.292 HD
ENDBRANCH  14  31
BRANCH  16  33
ATOM     33  O   UNL     1       3.386   2.880  30.391  0.00  0.00    -0.507 OA
ATOM     34  H   UNL     1       2.496   2.674  30.058  0.00  0.00    +0.292 HD
ENDBRANCH  16  33
ENDBRANCH   9  20
ENDBRANCH   1   9
BRANCH   6  35
ATOM     35  O   UNL     1       9.931   0.334  23.925  0.00  0.00    -0.448 OA
BRANCH  35  36
ATOM     36  C   UNL     1       9.260   1.240  23.071  0.00  0.00    +0.340 C 
ATOM     37  O   UNL     1       9.250   1.052  21.856  0.00  0.00    -0.245 OA
BRANCH  36  38
ATOM     38  C   UNL     1       8.516   2.544  23.547  0.00  0.00    +0.066 A 
ATOM     39  C   UNL     1       7.781   3.402  22.713  0.00  0.00    +0.064 A 
ATOM     40  C   UNL     1       7.045   4.492  23.252  0.00  0.00    +0.163 A 
ATOM     41  C   UNL     1       7.007   4.763  24.617  0.00  0.00    +0.201 A 
ATOM     42  C   UNL     1       7.725   3.952  25.475  0.00  0.00    +0.163 A 
ATOM     43  C   UNL     1       8.480   2.869  24.959  0.00  0.00    +0.064 A 
BRANCH  42  44
ATOM     44  O   UNL     1       7.625   4.265  26.809  0.00  0.00    -0.503 OA
ATOM     45  H   UNL     1       7.840   5.204  26.944  0.00  0.00    +0.292 HD
ENDBRANCH  42  44
BRANCH  41  46
ATOM     46  O   UNL     1       6.243   5.805  25.084  0.00  0.00    -0.501 OA
ATOM     47  H   UNL     1       5.337   5.646  24.743  0.00  0.00    +0.292 HD
ENDBRANCH  41  46
BRANCH  40  48
ATOM     48  O   UNL     1       6.325   5.296  22.420  0.00  0.00    -0.503 OA
ATOM     49  H   UNL     1       6.499   6.217  22.741  0.00  0.00    +0.292 HD
ENDBRANCH  40  48
ENDBRANCH  36  38
ENDBRANCH  35  36
ENDBRANCH   6  35
BRANCH   5  50
ATOM     50  O   UNL     1       8.655  -3.579  24.364  0.00  0.00    -0.451 OA
BRANCH  50  51
ATOM     51  C   UNL     1       8.896  -4.701  25.087  0.00  0.00    +0.340 C 
ATOM     52  O   UNL     1       9.984  -5.209  25.253  0.00  0.00    -0.245 OA
BRANCH  51  53
ATOM     53  C   UNL     1       7.627  -5.167  25.788  0.00  0.00    +0.066 A 
ATOM     54  C   UNL     1       7.428  -4.932  27.159  0.00  0.00    +0.064 A 
ATOM     55  C   UNL     1       6.288  -5.435  27.789  0.00  0.00    +0.163 A 
ATOM     56  C   UNL     1       5.338  -6.167  27.086  0.00  0.00    +0.201 A 
ATOM     57  C   UNL     1       5.513  -6.393  25.736  0.00  0.00    +0.163 A 
ATOM     58  C   UNL     1       6.622  -5.870  25.076  0.00  0.00    +0.064 A 
BRANCH  57  59
ATOM     59  O   UNL     1       4.542  -7.145  25.125  0.00  0.00    -0.503 OA
ATOM     60  H   UNL     1       4.739  -7.218  24.177  0.00  0.00    +0.292 HD
ENDBRANCH  57  59
BRANCH  56  61
ATOM     61  O   UNL     1       4.253  -6.685  27.785  0.00  0.00    -0.501 OA
ATOM     62  H   UNL     1       3.720  -7.116  27.089  0.00  0.00    +0.292 HD
ENDBRANCH  56  61
BRANCH  55  63
ATOM     63  O   UNL     1       6.104  -5.205  29.127  0.00  0.00    -0.503 OA
ATOM     64  H   UNL     1       5.131  -5.238  29.250  0.00  0.00    +0.292 HD
ENDBRANCH  55  63
ENDBRANCH  51  53
ENDBRANCH  50  51
ENDBRANCH   5  50
BRANCH   3  65
ATOM     65  C   UNL     1       6.916  -3.539  22.060  0.00  0.00    +0.190 C 
BRANCH  65  66
ATOM     66  O   UNL     1       5.706  -3.388  21.316  0.00  0.00    -0.392 OA
ATOM     67  H   UNL     1       5.185  -2.675  21.718  0.00  0.00    +0.210 HD
ENDBRANCH  65  66
ENDBRANCH   3  65
TORSDOF 22
ENDMDL
MODEL 4
REMARK VINA RESULT:      -7.0      2.101      7.387
REMARK  Name = 
REMARK  22 active torsions:
REMARK  status: ('A' for Active; 'I' for Inactive)
REMARK    1  A    between atoms: C_3  and  O_60
REMARK    2  A    between atoms: C_4  and  O_59
REMARK    3  A    between atoms: C_6  and  C_7
REMARK    4  A    between atoms: C_8  and  O_20
REMARK    5  A    between atoms: C_12  and  O_19
REMARK    6  A    between atoms: C_14  and  O_18
REMARK    7  A    between atoms: O_20  and  C_21
REMARK    8  A    between atoms: C_23  and  O_47
REMARK    9  A    between atoms: C_25  and  O_35
REMARK   10  A    between atoms: C_27  and  O_34
REMARK   11  A    between atoms: C_29  and  C_32
REMARK   12  A    between atoms: C_32  and  O_33
REMARK   13  A    between atoms: O_35  and  C_36
REMARK   14  A    between atoms: C_36  and  C_38
REMARK   15  A    between atoms: C_40  and  O_46
REMARK   16  A    between atoms: C_41  and  O_45
REMARK   17  A    between atoms: C_42  and  O_44
REMARK   18  A    between atoms: O_47  and  C_48
REMARK   19  A    between atoms: C_48  and  C_50
REMARK   20  A    between atoms: C_52  and  O_58
REMARK   21  A    between atoms: C_53  and  O_57
REMARK   22  A    between atoms: C_54  and  O_56
REMARK                            x       y       z     vdW  Elec       q    Type
REMARK                         _______ _______ _______ _____ _____    ______ ____
ROOT
ATOM      1  C   UNL     1       8.537  -1.692  25.209  0.00  0.00    +0.353 C 
ATOM      2  O   UNL     1       9.790  -0.969  25.344  0.00  0.00    -0.330 OA
ATOM      3  C   UNL     1      10.486  -0.313  24.250  0.00  0.00    +0.180 C 
ATOM      4  C   UNL     1      10.133  -0.824  22.822  0.00  0.00    +0.190 C 
ATOM      5  C   UNL     1       8.655  -1.196  22.764  0.00  0.00    +0.254 C 
ATOM      6  C   UNL     1       8.358  -2.361  23.825  0.00  0.00    +0.288 C 
ENDROOT
BRANCH   4   7
ATOM      7  O   UNL     1      10.962  -1.917  22.439  0.00  0.00    -0.385 OA
ATOM      8  H   UNL     1      11.876  -1.700  22.699  0.00  0.00    +0.210 HD
ENDBRANCH   4   7
BRANCH   1   9
ATOM      9  O   UNL     1       7.336  -0.882  25.305  0.00  0.00    -0.452 OA
BRANCH   9  20
ATOM     10  C   UNL     1       5.122  -1.473  26.103  0.00  0.00    +0.181 A 
ATOM     11  O   UNL     1       4.074  -1.192  26.980  0.00  0.00    -0.451 OA
ATOM     12  C   UNL     1       4.204  -0.282  27.974  0.00  0.00    +0.147 A 
ATOM     13  C   UNL     1       5.417   0.283  28.307  0.00  0.00    +0.109 A 
ATOM     14  C   UNL     1       5.477   1.172  29.386  0.00  0.00    +0.135 A 
ATOM     15  C   UNL     1       4.333   1.459  30.136  0.00  0.00    +0.091 A 
ATOM     16  C   UNL     1       3.121   0.882  29.776  0.00  0.00    +0.124 A 
ATOM     17  C   UNL     1       6.583  -0.069  27.487  0.00  0.00    +0.238 A 
ATOM     18  O   UNL     1       7.669   0.421  27.783  0.00  0.00    -0.283 OA
ATOM     19  C   UNL     1       3.043   0.032  28.683  0.00  0.00    +0.092 A 
ATOM     20  C   UNL     1       6.376  -0.952  26.287  0.00  0.00    +0.214 A 
BRANCH  10  22
ATOM     21  C   UNL     1       3.414  -3.203  25.354  0.00  0.00    +0.015 A 
ATOM     22  C   UNL     1       4.556  -2.410  25.046  0.00  0.00    +0.025 A 
ATOM     23  C   UNL     1       5.193  -2.727  23.848  0.00  0.00    +0.060 A 
ATOM     24  C   UNL     1       4.769  -3.795  23.049  0.00  0.00    +0.159 A 
ATOM     25  C   UNL     1       3.716  -4.612  23.435  0.00  0.00    +0.158 A 
ATOM     26  C   UNL     1       3.010  -4.307  24.580  0.00  0.00    +0.050 A 
BRANCH  25  27
ATOM     27  O   UNL     1       3.440  -5.713  22.674  0.00  0.00    -0.503 OA
ATOM     28  H   UNL     1       4.240  -6.264  22.635  0.00  0.00    +0.292 HD
ENDBRANCH  25  27
BRANCH  24  29
ATOM     29  O   UNL     1       5.435  -4.080  21.887  0.00  0.00    -0.503 OA
ATOM     30  H   UNL     1       6.365  -4.202  22.164  0.00  0.00    +0.292 HD
ENDBRANCH  24  29
ENDBRANCH  10  22
BRANCH  14  31
ATOM     31  O   UNL     1       6.628   1.806  29.764  0.00  0.00    -0.506 OA
ATOM     32  H   UNL     1       6.652   2.692  29.332  0.00  0.00    +0.292 HD
ENDBRANCH  14  31
BRANCH  16  33
ATOM     33  O   UNL     1       1.977   1.112  30.481  0.00  0.00    -0.507 OA
ATOM     34  H   UNL     1       2.164   1.753  31.187  0.00  0.00    +0.292 HD
ENDBRANCH  16  33
ENDBRANCH   9  20
ENDBRANCH   1   9
BRANCH   6  35
ATOM     35  O   UNL     1       9.005  -3.771  23.699  0.00  0.00    -0.448 OA
BRANCH  35  36
ATOM     36  C   UNL     1       8.953  -4.631  24.821  0.00  0.00    +0.340 C 
ATOM     37  O   UNL     1       9.989  -5.110  25.280  0.00  0.00    -0.245 OA
BRANCH  36  38
ATOM     38  C   UNL     1       7.633  -5.079  25.553  0.00  0.00    +0.066 A 
ATOM     39  C   UNL     1       6.657  -5.927  25.005  0.00  0.00    +0.064 A 
ATOM     40  C   UNL     1       5.555  -6.372  25.786  0.00  0.00    +0.163 A 
ATOM     41  C   UNL     1       5.387  -6.002  27.117  0.00  0.00    +0.201 A 
ATOM     42  C   UNL     1       6.317  -5.159  27.694  0.00  0.00    +0.163 A 
ATOM     43  C   UNL     1       7.415  -4.690  26.931  0.00  0.00    +0.064 A 
BRANCH  42  44
ATOM     44  O   UNL     1       6.100  -4.853  29.016  0.00  0.00    -0.503 OA
ATOM     45  H   UNL     1       6.946  -4.659  29.453  0.00  0.00    +0.292 HD
ENDBRANCH  42  44
BRANCH  41  46
ATOM     46  O   UNL     1       4.324  -6.498  27.833  0.00  0.00    -0.501 OA
ATOM     47  H   UNL     1       4.704  -7.157  28.454  0.00  0.00    +0.292 HD
ENDBRANCH  41  46
BRANCH  40  48
ATOM     48  O   UNL     1       4.633  -7.210  25.234  0.00  0.00    -0.503 OA
ATOM     49  H   UNL     1       3.758  -6.789  25.426  0.00  0.00    +0.292 HD
ENDBRANCH  40  48
ENDBRANCH  36  38
ENDBRANCH  35  36
ENDBRANCH   6  35
BRANCH   5  50
ATOM     50  O   UNL     1       8.093   0.203  22.988  0.00  0.00    -0.451 OA
BRANCH  50  51
ATOM     51  C   UNL     1       7.814   1.243  22.164  0.00  0.00    +0.340 C 
ATOM     52  O   UNL     1       8.298   1.419  21.066  0.00  0.00    -0.245 OA
BRANCH  51  53
ATOM     53  C   UNL     1       6.695   2.099  22.744  0.00  0.00    +0.066 A 
ATOM     54  C   UNL     1       5.877   1.616  23.778  0.00  0.00    +0.064 A 
ATOM     55  C   UNL     1       4.813   2.396  24.240  0.00  0.00    +0.163 A 
ATOM     56  C   UNL     1       4.546   3.647  23.696  0.00  0.00    +0.201 A 
ATOM     57  C   UNL     1       5.351   4.139  22.688  0.00  0.00    +0.163 A 
ATOM     58  C   UNL     1       6.441   3.399  22.237  0.00  0.00    +0.064 A 
BRANCH  57  59
ATOM     59  O   UNL     1       5.002   5.369  22.192  0.00  0.00    -0.503 OA
ATOM     60  H   UNL     1       5.534   6.055  22.627  0.00  0.00    +0.292 HD
ENDBRANCH  57  59
BRANCH  56  61
ATOM     61  O   UNL     1       3.439   4.348  24.164  0.00  0.00    -0.501 OA
ATOM     62  H   UNL     1       3.713   5.282  24.084  0.00  0.00    +0.292 HD
ENDBRANCH  56  61
BRANCH  55  63
ATOM     63  O   UNL     1       4.016   1.916  25.246  0.00  0.00    -0.503 OA
ATOM     64  H   UNL     1       3.935   2.666  25.873  0.00  0.00    +0.292 HD
ENDBRANCH  55  63
ENDBRANCH  51  53
ENDBRANCH  50  51
ENDBRANCH   5  50
BRANCH   3  65
ATOM     65  C   UNL     1      10.407   1.244  24.365  0.00  0.00    +0.190 C 
BRANCH  65  66
ATOM     66  O   UNL     1       9.342   1.698  25.203  0.00  0.00    -0.392 OA
ATOM     67  H   UNL     1       8.885   0.922  25.566  0.00  0.00    +0.210 HD
ENDBRANCH  65  66
ENDBRANCH   3  65
TORSDOF 22
ENDMDL
MODEL 5
REMARK VINA RESULT:      -6.9      2.092      7.040
REMARK  Name = 
REMARK  22 active torsions:
REMARK  status: ('A' for Active; 'I' for Inactive)
REMARK    1  A    between atoms: C_3  and  O_60
REMARK    2  A    between atoms: C_4  and  O_59
REMARK    3  A    between atoms: C_6  and  C_7
REMARK    4  A    between atoms: C_8  and  O_20
REMARK    5  A    between atoms: C_12  and  O_19
REMARK    6  A    between atoms: C_14  and  O_18
REMARK    7  A    between atoms: O_20  and  C_21
REMARK    8  A    between atoms: C_23  and  O_47
REMARK    9  A    between atoms: C_25  and  O_35
REMARK   10  A    between atoms: C_27  and  O_34
REMARK   11  A    between atoms: C_29  and  C_32
REMARK   12  A    between atoms: C_32  and  O_33
REMARK   13  A    between atoms: O_35  and  C_36
REMARK   14  A    between atoms: C_36  and  C_38
REMARK   15  A    between atoms: C_40  and  O_46
REMARK   16  A    between atoms: C_41  and  O_45
REMARK   17  A    between atoms: C_42  and  O_44
REMARK   18  A    between atoms: O_47  and  C_48
REMARK   19  A    between atoms: C_48  and  C_50
REMARK   20  A    between atoms: C_52  and  O_58
REMARK   21  A    between atoms: C_53  and  O_57
REMARK   22  A    between atoms: C_54  and  O_56
REMARK                            x       y       z     vdW  Elec       q    Type
REMARK                         _______ _______ _______ _____ _____    ______ ____
ROOT
ATOM      1  C   UNL     1       7.873  -2.052  24.947  0.00  0.00    +0.353 C 
ATOM      2  O   UNL     1       9.071  -1.395  25.439  0.00  0.00    -0.330 OA
ATOM      3  C   UNL     1      10.055  -0.735  24.598  0.00  0.00    +0.180 C 
ATOM      4  C   UNL     1      10.071  -1.175  23.104  0.00  0.00    +0.190 C 
ATOM      5  C   UNL     1       8.648  -1.473  22.644  0.00  0.00    +0.254 C 
ATOM      6  C   UNL     1       8.040  -2.660  23.534  0.00  0.00    +0.288 C 
ENDROOT
BRANCH   4   7
ATOM      7  O   UNL     1      10.931  -2.292  22.899  0.00  0.00    -0.385 OA
ATOM      8  H   UNL     1      10.467  -3.085  23.223  0.00  0.00    +0.210 HD
ENDBRANCH   4   7
BRANCH   1   9
ATOM      9  O   UNL     1       6.719  -1.189  24.765  0.00  0.00    -0.452 OA
BRANCH   9  20
ATOM     10  C   UNL     1       5.056  -0.891  26.505  0.00  0.00    +0.181 A 
ATOM     11  O   UNL     1       3.937  -1.403  27.164  0.00  0.00    -0.451 OA
ATOM     12  C   UNL     1       3.282  -2.497  26.707  0.00  0.00    +0.147 A 
ATOM     13  C   UNL     1       3.550  -3.060  25.476  0.00  0.00    +0.109 A 
ATOM     14  C   UNL     1       2.788  -4.154  25.053  0.00  0.00    +0.135 A 
ATOM     15  C   UNL     1       1.750  -4.650  25.848  0.00  0.00    +0.091 A 
ATOM     16  C   UNL     1       1.505  -4.069  27.086  0.00  0.00    +0.124 A 
ATOM     17  C   UNL     1       4.644  -2.484  24.685  0.00  0.00    +0.238 A 
ATOM     18  O   UNL     1       4.882  -2.972  23.584  0.00  0.00    -0.283 OA
ATOM     19  C   UNL     1       2.282  -3.011  27.534  0.00  0.00    +0.092 A 
ATOM     20  C   UNL     1       5.463  -1.377  25.290  0.00  0.00    +0.214 A 
BRANCH  10  22
ATOM     21  C   UNL     1       5.121   1.552  27.215  0.00  0.00    +0.015 A 
ATOM     22  C   UNL     1       5.601   0.221  27.389  0.00  0.00    +0.025 A 
ATOM     23  C   UNL     1       6.704   0.094  28.229  0.00  0.00    +0.060 A 
ATOM     24  C   UNL     1       7.328   1.210  28.800  0.00  0.00    +0.159 A 
ATOM     25  C   UNL     1       6.896   2.499  28.523  0.00  0.00    +0.158 A 
ATOM     26  C   UNL     1       5.769   2.681  27.748  0.00  0.00    +0.050 A 
BRANCH  25  27
ATOM     27  O   UNL     1       7.629   3.545  29.009  0.00  0.00    -0.503 OA
ATOM     28  H   UNL     1       8.084   3.248  29.816  0.00  0.00    +0.292 HD
ENDBRANCH  25  27
BRANCH  24  29
ATOM     29  O   UNL     1       8.421   1.038  29.607  0.00  0.00    -0.503 OA
ATOM     30  H   UNL     1       8.189   1.506  30.434  0.00  0.00    +0.292 HD
ENDBRANCH  24  29
ENDBRANCH  10  22
BRANCH  14  31
ATOM     31  O   UNL     1       3.006  -4.797  23.866  0.00  0.00    -0.506 OA
ATOM     32  H   UNL     1       2.359  -5.538  23.789  0.00  0.00    +0.292 HD
ENDBRANCH  14  31
BRANCH  16  33
ATOM     33  O   UNL     1       0.497  -4.499  27.896  0.00  0.00    -0.507 OA
ATOM     34  H   UNL     1       0.465  -5.471  27.873  0.00  0.00    +0.292 HD
ENDBRANCH  16  33
ENDBRANCH   9  20
ENDBRANCH   1   9
BRANCH   6  35
ATOM     35  O   UNL     1       8.644  -4.094  23.513  0.00  0.00    -0.448 OA
BRANCH  35  36
ATOM     36  C   UNL     1       8.715  -4.806  24.734  0.00  0.00    +0.340 C 
ATOM     37  O   UNL     1       9.808  -5.098  25.215  0.00  0.00    -0.245 OA
BRANCH  36  38
ATOM     38  C   UNL     1       7.471  -5.309  25.557  0.00  0.00    +0.066 A 
ATOM     39  C   UNL     1       6.351  -5.955  25.010  0.00  0.00    +0.064 A 
ATOM     40  C   UNL     1       5.329  -6.480  25.848  0.00  0.00    +0.163 A 
ATOM     41  C   UNL     1       5.382  -6.389  27.236  0.00  0.00    +0.201 A 
ATOM     42  C   UNL     1       6.461  -5.750  27.818  0.00  0.00    +0.163 A 
ATOM     43  C   UNL     1       7.484  -5.205  27.003  0.00  0.00    +0.064 A 
BRANCH  42  44
ATOM     44  O   UNL     1       6.458  -5.716  29.191  0.00  0.00    -0.503 OA
ATOM     45  H   UNL     1       7.365  -5.817  29.525  0.00  0.00    +0.292 HD
ENDBRANCH  42  44
BRANCH  41  46
ATOM     46  O   UNL     1       4.385  -6.952  27.995  0.00  0.00    -0.501 OA
ATOM     47  H   UNL     1       4.687  -6.884  28.926  0.00  0.00    +0.292 HD
ENDBRANCH  41  46
BRANCH  40  48
ATOM     48  O   UNL     1       4.263  -7.119  25.290  0.00  0.00    -0.503 OA
ATOM     49  H   UNL     1       3.571  -6.419  25.185  0.00  0.00    +0.292 HD
ENDBRANCH  40  48
ENDBRANCH  36  38
ENDBRANCH  35  36
ENDBRANCH   6  35
BRANCH   5  50
ATOM     50  O   UNL     1       8.099  -0.057  22.781  0.00  0.00    -0.451 OA
BRANCH  50  51
ATOM     51  C   UNL     1       8.180   1.057  22.012  0.00  0.00    +0.340 C 
ATOM     52  O   UNL     1       8.890   1.187  21.037  0.00  0.00    -0.245 OA
BRANCH  51  53
ATOM     53  C   UNL     1       7.148   2.086  22.453  0.00  0.00    +0.066 A 
ATOM     54  C   UNL     1       5.995   1.700  23.156  0.00  0.00    +0.064 A 
ATOM     55  C   UNL     1       5.032   2.658  23.484  0.00  0.00    +0.163 A 
ATOM     56  C   UNL     1       5.190   3.993  23.128  0.00  0.00    +0.201 A 
ATOM     57  C   UNL     1       6.325   4.388  22.450  0.00  0.00    +0.163 A 
ATOM     58  C   UNL     1       7.318   3.460  22.145  0.00  0.00    +0.064 A 
BRANCH  57  59
ATOM     59  O   UNL     1       6.389   5.717  22.116  0.00  0.00    -0.503 OA
ATOM     60  H   UNL     1       5.677   6.197  22.569  0.00  0.00    +0.292 HD
ENDBRANCH  57  59
BRANCH  56  61
ATOM     61  O   UNL     1       4.168   4.884  23.437  0.00  0.00    -0.501 OA
ATOM     62  H   UNL     1       3.361   4.342  23.351  0.00  0.00    +0.292 HD
ENDBRANCH  56  61
BRANCH  55  63
ATOM     63  O   UNL     1       3.907   2.273  24.166  0.00  0.00    -0.503 OA
ATOM     64  H   UNL     1       3.228   2.933  23.910  0.00  0.00    +0.292 HD
ENDBRANCH  55  63
ENDBRANCH  51  53
ENDBRANCH  50  51
ENDBRANCH   5  50
BRANCH   3  65
ATOM     65  C   UNL     1      10.006   0.820  24.763  0.00  0.00    +0.190 C 
BRANCH  65  66
ATOM     66  O   UNL     1       8.841   1.281  25.451  0.00  0.00    -0.392 OA
ATOM     67  H   UNL     1       8.628   0.644  26.152  0.00  0.00    +0.210 HD
ENDBRANCH  65  66
ENDBRANCH   3  65
TORSDOF 22
ENDMDL
MODEL 6
REMARK VINA RESULT:      -6.9      2.819      7.526
REMARK  Name = 
REMARK  22 active torsions:
REMARK  status: ('A' for Active; 'I' for Inactive)
REMARK    1  A    between atoms: C_3  and  O_60
REMARK    2  A    between atoms: C_4  and  O_59
REMARK    3  A    between atoms: C_6  and  C_7
REMARK    4  A    between atoms: C_8  and  O_20
REMARK    5  A    between atoms: C_12  and  O_19
REMARK    6  A    between atoms: C_14  and  O_18
REMARK    7  A    between atoms: O_20  and  C_21
REMARK    8  A    between atoms: C_23  and  O_47
REMARK    9  A    between atoms: C_25  and  O_35
REMARK   10  A    between atoms: C_27  and  O_34
REMARK   11  A    between atoms: C_29  and  C_32
REMARK   12  A    between atoms: C_32  and  O_33
REMARK   13  A    between atoms: O_35  and  C_36
REMARK   14  A    between atoms: C_36  and  C_38
REMARK   15  A    between atoms: C_40  and  O_46
REMARK   16  A    between atoms: C_41  and  O_45
REMARK   17  A    between atoms: C_42  and  O_44
REMARK   18  A    between atoms: O_47  and  C_48
REMARK   19  A    between atoms: C_48  and  C_50
REMARK   20  A    between atoms: C_52  and  O_58
REMARK   21  A    between atoms: C_53  and  O_57
REMARK   22  A    between atoms: C_54  and  O_56
REMARK                            x       y       z     vdW  Elec       q    Type
REMARK                         _______ _______ _______ _____ _____    ______ ____
ROOT
ATOM      1  C   UNL     1       6.082   2.660  26.330  0.00  0.00    +0.353 C 
ATOM      2  O   UNL     1       5.880   2.831  27.758  0.00  0.00    -0.330 OA
ATOM      3  C   UNL     1       5.463   1.776  28.665  0.00  0.00    +0.180 C 
ATOM      4  C   UNL     1       4.741   0.564  28.006  0.00  0.00    +0.190 C 
ATOM      5  C   UNL     1       5.351   0.291  26.635  0.00  0.00    +0.254 C 
ATOM      6  C   UNL     1       5.165   1.583  25.703  0.00  0.00    +0.288 C 
ENDROOT
BRANCH   4   7
ATOM      7  O   UNL     1       3.335   0.780  27.918  0.00  0.00    -0.385 OA
ATOM      8  H   UNL     1       3.183   1.471  27.248  0.00  0.00    +0.210 HD
ENDBRANCH   4   7
BRANCH   1   9
ATOM      9  O   UNL     1       7.400   2.192  25.938  0.00  0.00    -0.452 OA
BRANCH   9  20
ATOM     10  C   UNL     1       8.938   2.059  24.067  0.00  0.00    +0.181 A 
ATOM     11  O   UNL     1      10.031   2.614  23.400  0.00  0.00    -0.451 OA
ATOM     12  C   UNL     1      10.534   3.824  23.745  0.00  0.00    +0.147 A 
ATOM     13  C   UNL     1       9.897   4.665  24.634  0.00  0.00    +0.109 A 
ATOM     14  C   UNL     1      10.452   5.922  24.892  0.00  0.00    +0.135 A 
ATOM     15  C   UNL     1      11.616   6.335  24.236  0.00  0.00    +0.091 A 
ATOM     16  C   UNL     1      12.242   5.467  23.350  0.00  0.00    +0.124 A 
ATOM     17  C   UNL     1       8.672   4.176  25.280  0.00  0.00    +0.238 A 
ATOM     18  O   UNL     1       8.094   4.922  26.063  0.00  0.00    -0.283 OA
ATOM     19  C   UNL     1      11.723   4.202  23.119  0.00  0.00    +0.092 A 
ATOM     20  C   UNL     1       8.230   2.765  25.004  0.00  0.00    +0.214 A 
BRANCH  10  22
ATOM     21  C   UNL     1       7.465   0.181  23.185  0.00  0.00    +0.015 A 
ATOM     22  C   UNL     1       8.769   0.652  23.514  0.00  0.00    +0.025 A 
ATOM     23  C   UNL     1       9.771  -0.316  23.496  0.00  0.00    +0.060 A 
ATOM     24  C   UNL     1       9.489  -1.663  23.238  0.00  0.00    +0.159 A 
ATOM     25  C   UNL     1       8.189  -2.101  23.026  0.00  0.00    +0.158 A 
ATOM     26  C   UNL     1       7.166  -1.177  22.971  0.00  0.00    +0.050 A 
BRANCH  25  27
ATOM     27  O   UNL     1       7.971  -3.446  22.911  0.00  0.00    -0.503 OA
ATOM     28  H   UNL     1       7.124  -3.577  22.451  0.00  0.00    +0.292 HD
ENDBRANCH  25  27
BRANCH  24  29
ATOM     29  O   UNL     1      10.503  -2.583  23.247  0.00  0.00    -0.503 OA
ATOM     30  H   UNL     1      10.048  -3.446  23.302  0.00  0.00    +0.292 HD
ENDBRANCH  24  29
ENDBRANCH  10  22
BRANCH  14  31
ATOM     31  O   UNL     1       9.910   6.805  25.784  0.00  0.00    -0.506 OA
ATOM     32  H   UNL     1      10.560   6.951  26.512  0.00  0.00    +0.292 HD
ENDBRANCH  14  31
BRANCH  16  33
ATOM     33  O   UNL     1      13.369   5.821  22.671  0.00  0.00    -0.507 OA
ATOM     34  H   UNL     1      13.746   6.620  23.077  0.00  0.00    +0.292 HD
ENDBRANCH  16  33
ENDBRANCH   9  20
ENDBRANCH   1   9
BRANCH   6  35
ATOM     35  O   UNL     1       3.757   2.096  25.283  0.00  0.00    -0.448 OA
BRANCH  35  36
ATOM     36  C   UNL     1       3.641   2.799  24.061  0.00  0.00    +0.340 C 
ATOM     37  O   UNL     1       2.615   2.703  23.389  0.00  0.00    -0.245 OA
BRANCH  36  38
ATOM     38  C   UNL     1       4.762   3.709  23.434  0.00  0.00    +0.066 A 
ATOM     39  C   UNL     1       4.968   5.063  23.745  0.00  0.00    +0.064 A 
ATOM     40  C   UNL     1       6.081   5.772  23.217  0.00  0.00    +0.163 A 
ATOM     41  C   UNL     1       7.018   5.174  22.380  0.00  0.00    +0.201 A 
ATOM     42  C   UNL     1       6.849   3.846  22.037  0.00  0.00    +0.163 A 
ATOM     43  C   UNL     1       5.738   3.123  22.538  0.00  0.00    +0.064 A 
BRANCH  42  44
ATOM     44  O   UNL     1       7.822   3.316  21.225  0.00  0.00    -0.503 OA
ATOM     45  H   UNL     1       8.403   4.025  20.901  0.00  0.00    +0.292 HD
ENDBRANCH  42  44
BRANCH  41  46
ATOM     46  O   UNL     1       8.096   5.900  21.935  0.00  0.00    -0.501 OA
ATOM     47  H   UNL     1       8.620   6.119  22.735  0.00  0.00    +0.292 HD
ENDBRANCH  41  46
BRANCH  40  48
ATOM     48  O   UNL     1       6.266   7.081  23.552  0.00  0.00    -0.503 OA
ATOM     49  H   UNL     1       5.357   7.430  23.732  0.00  0.00    +0.292 HD
ENDBRANCH  40  48
ENDBRANCH  36  38
ENDBRANCH  35  36
ENDBRANCH   6  35
BRANCH   5  50
ATOM     50  O   UNL     1       6.740  -0.110  27.117  0.00  0.00    -0.451 OA
BRANCH  50  51
ATOM     51  C   UNL     1       7.668  -0.993  26.671  0.00  0.00    +0.340 C 
ATOM     52  O   UNL     1       8.853  -0.765  26.549  0.00  0.00    -0.245 OA
BRANCH  51  53
ATOM     53  C   UNL     1       7.044  -2.368  26.473  0.00  0.00    +0.066 A 
ATOM     54  C   UNL     1       7.769  -3.539  26.749  0.00  0.00    +0.064 A 
ATOM     55  C   UNL     1       7.195  -4.786  26.490  0.00  0.00    +0.163 A 
ATOM     56  C   UNL     1       5.914  -4.895  25.962  0.00  0.00    +0.201 A 
ATOM     57  C   UNL     1       5.184  -3.752  25.700  0.00  0.00    +0.163 A 
ATOM     58  C   UNL     1       5.719  -2.499  25.986  0.00  0.00    +0.064 A 
BRANCH  57  59
ATOM     59  O   UNL     1       3.940  -3.950  25.157  0.00  0.00    -0.503 OA
ATOM     60  H   UNL     1       3.321  -3.300  25.526  0.00  0.00    +0.292 HD
ENDBRANCH  57  59
BRANCH  56  61
ATOM     61  O   UNL     1       5.423  -6.164  25.676  0.00  0.00    -0.501 OA
ATOM     62  H   UNL     1       5.970  -6.749  26.235  0.00  0.00    +0.292 HD
ENDBRANCH  56  61
BRANCH  55  63
ATOM     63  O   UNL     1       7.911  -5.923  26.757  0.00  0.00    -0.503 OA
ATOM     64  H   UNL     1       7.291  -6.656  26.554  0.00  0.00    +0.292 HD
ENDBRANCH  55  63
ENDBRANCH  51  53
ENDBRANCH  50  51
ENDBRANCH   5  50
BRANCH   3  65
ATOM     65  C   UNL     1       6.626   1.335  29.613  0.00  0.00    +0.190 C 
BRANCH  65  66
ATOM     66  O   UNL     1       7.925   1.599  29.078  0.00  0.00    -0.392 OA
ATOM     67  H   UNL     1       8.549   0.962  29.461  0.00  0.00    +0.210 HD
ENDBRANCH  65  66
ENDBRANCH   3  65
TORSDOF 22
ENDMDL
MODEL 7
REMARK VINA RESULT:      -6.8      1.396      4.134
REMARK  Name = 
REMARK  22 active torsions:
REMARK  status: ('A' for Active; 'I' for Inactive)
REMARK    1  A    between atoms: C_3  and  O_60
REMARK    2  A    between atoms: C_4  and  O_59
REMARK    3  A    between atoms: C_6  and  C_7
REMARK    4  A    between atoms: C_8  and  O_20
REMARK    5  A    between atoms: C_12  and  O_19
REMARK    6  A    between atoms: C_14  and  O_18
REMARK    7  A    between atoms: O_20  and  C_21
REMARK    8  A    between atoms: C_23  and  O_47
REMARK    9  A    between atoms: C_25  and  O_35
REMARK   10  A    between atoms: C_27  and  O_34
REMARK   11  A    between atoms: C_29  and  C_32
REMARK   12  A    between atoms: C_32  and  O_33
REMARK   13  A    between atoms: O_35  and  C_36
REMARK   14  A    between atoms: C_36  and  C_38
REMARK   15  A    between atoms: C_40  and  O_46
REMARK   16  A    between atoms: C_41  and  O_45
REMARK   17  A    between atoms: C_42  and  O_44
REMARK   18  A    between atoms: O_47  and  C_48
REMARK   19  A    between atoms: C_48  and  C_50
REMARK   20  A    between atoms: C_52  and  O_58
REMARK   21  A    between atoms: C_53  and  O_57
REMARK   22  A    between atoms: C_54  and  O_56
REMARK                            x       y       z     vdW  Elec       q    Type
REMARK                         _______ _______ _______ _____ _____    ______ ____
ROOT
ATOM      1  C   UNL     1       6.238  -2.859  23.589  0.00  0.00    +0.353 C 
ATOM      2  O   UNL     1       5.332  -3.792  22.942  0.00  0.00    -0.330 OA
ATOM      3  C   UNL     1       5.614  -5.201  22.727  0.00  0.00    +0.180 C 
ATOM      4  C   UNL     1       7.119  -5.601  22.747  0.00  0.00    +0.190 C 
ATOM      5  C   UNL     1       7.858  -4.752  23.776  0.00  0.00    +0.254 C 
ATOM      6  C   UNL     1       7.732  -3.204  23.377  0.00  0.00    +0.288 C 
ENDROOT
BRANCH   4   7
ATOM      7  O   UNL     1       7.706  -5.485  21.455  0.00  0.00    -0.385 OA
ATOM      8  H   UNL     1       7.128  -5.953  20.824  0.00  0.00    +0.210 HD
ENDBRANCH   4   7
BRANCH   1   9
ATOM      9  O   UNL     1       6.149  -2.807  25.038  0.00  0.00    -0.452 OA
BRANCH   9  20
ATOM     10  C   UNL     1       4.496  -1.483  26.221  0.00  0.00    +0.181 A 
ATOM     11  O   UNL     1       4.090  -0.219  26.652  0.00  0.00    -0.451 OA
ATOM     12  C   UNL     1       4.897   0.863  26.541  0.00  0.00    +0.147 A 
ATOM     13  C   UNL     1       6.224   0.763  26.179  0.00  0.00    +0.109 A 
ATOM     14  C   UNL     1       7.005   1.923  26.144  0.00  0.00    +0.135 A 
ATOM     15  C   UNL     1       6.460   3.160  26.502  0.00  0.00    +0.091 A 
ATOM     16  C   UNL     1       5.118   3.235  26.857  0.00  0.00    +0.124 A 
ATOM     17  C   UNL     1       6.739  -0.566  25.826  0.00  0.00    +0.238 A 
ATOM     18  O   UNL     1       7.921  -0.666  25.514  0.00  0.00    -0.283 OA
ATOM     19  C   UNL     1       4.325   2.098  26.854  0.00  0.00    +0.092 A 
ATOM     20  C   UNL     1       5.777  -1.723  25.797  0.00  0.00    +0.214 A 
BRANCH  10  22
ATOM     21  C   UNL     1       2.556  -2.405  27.585  0.00  0.00    +0.015 A 
ATOM     22  C   UNL     1       3.285  -2.392  26.360  0.00  0.00    +0.025 A 
ATOM     23  C   UNL     1       2.939  -3.392  25.454  0.00  0.00    +0.060 A 
ATOM     24  C   UNL     1       1.990  -4.373  25.766  0.00  0.00    +0.159 A 
ATOM     25  C   UNL     1       1.377  -4.415  27.011  0.00  0.00    +0.158 A 
ATOM     26  C   UNL     1       1.635  -3.413  27.924  0.00  0.00    +0.050 A 
BRANCH  25  27
ATOM     27  O   UNL     1       0.559  -5.473  27.293  0.00  0.00    -0.503 OA
ATOM     28  H   UNL     1       0.133  -5.306  28.152  0.00  0.00    +0.292 HD
ENDBRANCH  25  27
BRANCH  24  29
ATOM     29  O   UNL     1       1.693  -5.347  24.850  0.00  0.00    -0.503 OA
ATOM     30  H   UNL     1       0.867  -5.751  25.183  0.00  0.00    +0.292 HD
ENDBRANCH  24  29
ENDBRANCH  10  22
BRANCH  14  31
ATOM     31  O   UNL     1       8.318   1.924  25.762  0.00  0.00    -0.506 OA
ATOM     32  H   UNL     1       8.612   0.989  25.653  0.00  0.00    +0.292 HD
ENDBRANCH  14  31
BRANCH  16  33
ATOM     33  O   UNL     1       4.538   4.409  27.231  0.00  0.00    -0.507 OA
ATOM     34  H   UNL     1       3.602   4.398  26.967  0.00  0.00    +0.292 HD
ENDBRANCH  16  33
ENDBRANCH   9  20
ENDBRANCH   1   9
BRANCH   6  35
ATOM     35  O   UNL     1       8.346  -2.643  22.061  0.00  0.00    -0.448 OA
BRANCH  35  36
ATOM     36  C   UNL     1       9.310  -1.613  22.161  0.00  0.00    +0.340 C 
ATOM     37  O   UNL     1      10.504  -1.892  22.254  0.00  0.00    -0.245 OA
BRANCH  36  38
ATOM     38  C   UNL     1       8.984  -0.073  22.197  0.00  0.00    +0.066 A 
ATOM     39  C   UNL     1       7.692   0.476  22.235  0.00  0.00    +0.064 A 
ATOM     40  C   UNL     1       7.497   1.876  22.385  0.00  0.00    +0.163 A 
ATOM     41  C   UNL     1       8.559   2.768  22.507  0.00  0.00    +0.201 A 
ATOM     42  C   UNL     1       9.849   2.274  22.463  0.00  0.00    +0.163 A 
ATOM     43  C   UNL     1      10.068   0.883  22.297  0.00  0.00    +0.064 A 
BRANCH  42  44
ATOM     44  O   UNL     1      10.846   3.207  22.610  0.00  0.00    -0.503 OA
ATOM     45  H   UNL     1      10.940   3.444  23.548  0.00  0.00    +0.292 HD
ENDBRANCH  42  44
BRANCH  41  46
ATOM     46  O   UNL     1       8.308   4.106  22.693  0.00  0.00    -0.501 OA
ATOM     47  H   UNL     1       7.852   4.408  21.879  0.00  0.00    +0.292 HD
ENDBRANCH  41  46
BRANCH  40  48
ATOM     48  O   UNL     1       6.231   2.378  22.438  0.00  0.00    -0.503 OA
ATOM     49  H   UNL     1       5.663   1.612  22.705  0.00  0.00    +0.292 HD
ENDBRANCH  40  48
ENDBRANCH  36  38
ENDBRANCH  35  36
ENDBRANCH   6  35
BRANCH   5  50
ATOM     50  O   UNL     1       7.145  -5.282  25.014  0.00  0.00    -0.451 OA
BRANCH  50  51
ATOM     51  C   UNL     1       7.434  -5.269  26.339  0.00  0.00    +0.340 C 
ATOM     52  O   UNL     1       8.478  -4.888  26.826  0.00  0.00    -0.245 OA
BRANCH  51  53
ATOM     53  C   UNL     1       6.213  -5.668  27.157  0.00  0.00    +0.066 A 
ATOM     54  C   UNL     1       5.195  -6.458  26.598  0.00  0.00    +0.064 A 
ATOM     55  C   UNL     1       4.053  -6.748  27.350  0.00  0.00    +0.163 A 
ATOM     56  C   UNL     1       3.902  -6.270  28.647  0.00  0.00    +0.201 A 
ATOM     57  C   UNL     1       4.902  -5.505  29.212  0.00  0.00    +0.163 A 
ATOM     58  C   UNL     1       6.066  -5.234  28.499  0.00  0.00    +0.064 A 
BRANCH  57  59
ATOM     59  O   UNL     1       4.660  -5.054  30.485  0.00  0.00    -0.503 OA
ATOM     60  H   UNL     1       4.126  -4.244  30.444  0.00  0.00    +0.292 HD
ENDBRANCH  57  59
BRANCH  56  61
ATOM     61  O   UNL     1       2.717  -6.550  29.320  0.00  0.00    -0.501 OA
ATOM     62  H   UNL     1       2.356  -5.665  29.519  0.00  0.00    +0.292 HD
ENDBRANCH  56  61
BRANCH  55  63
ATOM     63  O   UNL     1       3.062  -7.515  26.796  0.00  0.00    -0.503 OA
ATOM     64  H   UNL     1       2.355  -6.874  26.567  0.00  0.00    +0.292 HD
ENDBRANCH  55  63
ENDBRANCH  51  53
ENDBRANCH  50  51
ENDBRANCH   5  50
BRANCH   3  65
ATOM     65  C   UNL     1       4.740  -6.112  23.650  0.00  0.00    +0.190 C 
BRANCH  65  66
ATOM     66  O   UNL     1       3.577  -6.630  23.000  0.00  0.00    -0.392 OA
ATOM     67  H   UNL     1       2.806  -6.122  23.301  0.00  0.00    +0.210 HD
ENDBRANCH  65  66
ENDBRANCH   3  65
TORSDOF 22
ENDMDL
MODEL 8
REMARK VINA RESULT:      -6.6      2.364      5.019
REMARK  Name = 
REMARK  22 active torsions:
REMARK  status: ('A' for Active; 'I' for Inactive)
REMARK    1  A    between atoms: C_3  and  O_60
REMARK    2  A    between atoms: C_4  and  O_59
REMARK    3  A    between atoms: C_6  and  C_7
REMARK    4  A    between atoms: C_8  and  O_20
REMARK    5  A    between atoms: C_12  and  O_19
REMARK    6  A    between atoms: C_14  and  O_18
REMARK    7  A    between atoms: O_20  and  C_21
REMARK    8  A    between atoms: C_23  and  O_47
REMARK    9  A    between atoms: C_25  and  O_35
REMARK   10  A    between atoms: C_27  and  O_34
REMARK   11  A    between atoms: C_29  and  C_32
REMARK   12  A    between atoms: C_32  and  O_33
REMARK   13  A    between atoms: O_35  and  C_36
REMARK   14  A    between atoms: C_36  and  C_38
REMARK   15  A    between atoms: C_40  and  O_46
REMARK   16  A    between atoms: C_41  and  O_45
REMARK   17  A    between atoms: C_42  and  O_44
REMARK   18  A    between atoms: O_47  and  C_48
REMARK   19  A    between atoms: C_48  and  C_50
REMARK   20  A    between atoms: C_52  and  O_58
REMARK   21  A    between atoms: C_53  and  O_57
REMARK   22  A    between atoms: C_54  and  O_56
REMARK                            x       y       z     vdW  Elec       q    Type
REMARK                         _______ _______ _______ _____ _____    ______ ____
ROOT
ATOM      1  C   UNL     1       7.994  -0.157  24.282  0.00  0.00    +0.353 C 
ATOM      2  O   UNL     1       7.215  -0.498  23.104  0.00  0.00    -0.330 OA
ATOM      3  C   UNL     1       7.373  -1.721  22.336  0.00  0.00    +0.180 C 
ATOM      4  C   UNL     1       8.743  -2.445  22.493  0.00  0.00    +0.190 C 
ATOM      5  C   UNL     1       9.240  -2.293  23.927  0.00  0.00    +0.254 C 
ATOM      6  C   UNL     1       9.429  -0.736  24.261  0.00  0.00    +0.288 C 
ENDROOT
BRANCH   4   7
ATOM      7  O   UNL     1       9.699  -1.961  21.555  0.00  0.00    -0.385 OA
ATOM      8  H   UNL     1       9.211  -1.516  20.837  0.00  0.00    +0.210 HD
ENDBRANCH   4   7
BRANCH   1   9
ATOM      9  O   UNL     1       7.483  -0.676  25.539  0.00  0.00    -0.452 OA
BRANCH   9  20
ATOM     10  C   UNL     1       5.491  -0.409  26.898  0.00  0.00    +0.181 A 
ATOM     11  O   UNL     1       4.602   0.465  27.523  0.00  0.00    -0.451 OA
ATOM     12  C   UNL     1       4.849   1.795  27.600  0.00  0.00    +0.147 A 
ATOM     13  C   UNL     1       6.063   2.344  27.245  0.00  0.00    +0.109 A 
ATOM     14  C   UNL     1       6.258   3.720  27.410  0.00  0.00    +0.135 A 
ATOM     15  C   UNL     1       5.251   4.521  27.956  0.00  0.00    +0.091 A 
ATOM     16  C   UNL     1       4.034   3.945  28.299  0.00  0.00    +0.124 A 
ATOM     17  C   UNL     1       7.084   1.446  26.689  0.00  0.00    +0.238 A 
ATOM     18  O   UNL     1       8.171   1.925  26.381  0.00  0.00    -0.283 OA
ATOM     19  C   UNL     1       3.816   2.590  28.101  0.00  0.00    +0.092 A 
ATOM     20  C   UNL     1       6.722   0.005  26.459  0.00  0.00    +0.214 A 
BRANCH  10  22
ATOM     21  C   UNL     1       4.300  -2.271  25.637  0.00  0.00    +0.015 A 
ATOM     22  C   UNL     1       4.807  -1.768  26.871  0.00  0.00    +0.025 A 
ATOM     23  C   UNL     1       4.435  -2.489  28.003  0.00  0.00    +0.060 A 
ATOM     24  C   UNL     1       3.569  -3.587  27.926  0.00  0.00    +0.159 A 
ATOM     25  C   UNL     1       3.011  -3.983  26.718  0.00  0.00    +0.158 A 
ATOM     26  C   UNL     1       3.394  -3.344  25.556  0.00  0.00    +0.050 A 
BRANCH  25  27
ATOM     27  O   UNL     1       2.075  -4.978  26.735  0.00  0.00    -0.503 OA
ATOM     28  H   UNL     1       2.394  -5.705  26.172  0.00  0.00    +0.292 HD
ENDBRANCH  25  27
BRANCH  24  29
ATOM     29  O   UNL     1       3.218  -4.256  29.067  0.00  0.00    -0.503 OA
ATOM     30  H   UNL     1       3.863  -4.988  29.129  0.00  0.00    +0.292 HD
ENDBRANCH  24  29
ENDBRANCH  10  22
BRANCH  14  31
ATOM     31  O   UNL     1       7.415   4.355  27.052  0.00  0.00    -0.506 OA
ATOM     32  H   UNL     1       7.186   5.254  26.717  0.00  0.00    +0.292 HD
ENDBRANCH  14  31
BRANCH  16  33
ATOM     33  O   UNL     1       3.023   4.673  28.850  0.00  0.00    -0.507 OA
ATOM     34  H   UNL     1       3.199   4.792  29.799  0.00  0.00    +0.292 HD
ENDBRANCH  16  33
ENDBRANCH   9  20
ENDBRANCH   1   9
BRANCH   6  35
ATOM     35  O   UNL     1      10.471   0.144  23.511  0.00  0.00    -0.448 OA
BRANCH  35  36
ATOM     36  C   UNL     1       9.991   1.182  22.678  0.00  0.00    +0.340 C 
ATOM     37  O   UNL     1       9.610   0.930  21.536  0.00  0.00    -0.245 OA
BRANCH  36  38
ATOM     38  C   UNL     1       9.924   2.702  23.080  0.00  0.00    +0.066 A 
ATOM     39  C   UNL     1       8.750   3.396  23.412  0.00  0.00    +0.064 A 
ATOM     40  C   UNL     1       8.801   4.739  23.877  0.00  0.00    +0.163 A 
ATOM     41  C   UNL     1      10.000   5.429  24.032  0.00  0.00    +0.201 A 
ATOM     42  C   UNL     1      11.181   4.789  23.706  0.00  0.00    +0.163 A 
ATOM     43  C   UNL     1      11.153   3.456  23.225  0.00  0.00    +0.064 A 
BRANCH  42  44
ATOM     44  O   UNL     1      12.325   5.522  23.904  0.00  0.00    -0.503 OA
ATOM     45  H   UNL     1      12.504   6.072  23.123  0.00  0.00    +0.292 HD
ENDBRANCH  42  44
BRANCH  41  46
ATOM     46  O   UNL     1       9.990   6.711  24.527  0.00  0.00    -0.501 OA
ATOM     47  H   UNL     1       9.503   6.665  25.377  0.00  0.00    +0.292 HD
ENDBRANCH  41  46
BRANCH  40  48
ATOM     48  O   UNL     1       7.646   5.381  24.210  0.00  0.00    -0.503 OA
ATOM     49  H   UNL     1       6.953   4.674  24.216  0.00  0.00    +0.292 HD
ENDBRANCH  40  48
ENDBRANCH  36  38
ENDBRANCH  35  36
ENDBRANCH   6  35
BRANCH   5  50
ATOM     50  O   UNL     1       8.130  -3.090  24.603  0.00  0.00    -0.451 OA
BRANCH  50  51
ATOM     51  C   UNL     1       8.113  -4.024  25.585  0.00  0.00    +0.340 C 
ATOM     52  O   UNL     1       8.865  -4.056  26.536  0.00  0.00    -0.245 OA
BRANCH  51  53
ATOM     53  C   UNL     1       6.924  -4.959  25.413  0.00  0.00    +0.066 A 
ATOM     54  C   UNL     1       6.381  -5.650  26.509  0.00  0.00    +0.064 A 
ATOM     55  C   UNL     1       5.337  -6.556  26.308  0.00  0.00    +0.163 A 
ATOM     56  C   UNL     1       4.818  -6.789  25.040  0.00  0.00    +0.201 A 
ATOM     57  C   UNL     1       5.332  -6.106  23.956  0.00  0.00    +0.163 A 
ATOM     58  C   UNL     1       6.347  -5.170  24.135  0.00  0.00    +0.064 A 
BRANCH  57  59
ATOM     59  O   UNL     1       4.779  -6.415  22.739  0.00  0.00    -0.503 OA
ATOM     60  H   UNL     1       5.259  -5.944  22.039  0.00  0.00    +0.292 HD
ENDBRANCH  57  59
BRANCH  56  61
ATOM     61  O   UNL     1       3.815  -7.744  24.901  0.00  0.00    -0.501 OA
ATOM     62  H   UNL     1       3.395  -7.509  24.052  0.00  0.00    +0.292 HD
ENDBRANCH  56  61
BRANCH  55  63
ATOM     63  O   UNL     1       4.817  -7.230  27.382  0.00  0.00    -0.503 OA
ATOM     64  H   UNL     1       5.558  -7.787  27.703  0.00  0.00    +0.292 HD
ENDBRANCH  55  63
ENDBRANCH  51  53
ENDBRANCH  50  51
ENDBRANCH   5  50
BRANCH   3  65
ATOM     65  C   UNL     1       6.159  -2.687  22.532  0.00  0.00    +0.190 C 
BRANCH  65  66
ATOM     66  O   UNL     1       5.636  -3.196  21.303  0.00  0.00    -0.392 OA
ATOM     67  H   UNL     1       5.977  -2.653  20.575  0.00  0.00    +0.210 HD
ENDBRANCH  65  66
ENDBRANCH   3  65
TORSDOF 22
ENDMDL
MODEL 9
REMARK VINA RESULT:      -6.6      2.213      7.484
REMARK  Name = 
REMARK  22 active torsions:
REMARK  status: ('A' for Active; 'I' for Inactive)
REMARK    1  A    between atoms: C_3  and  O_60
REMARK    2  A    between atoms: C_4  and  O_59
REMARK    3  A    between atoms: C_6  and  C_7
REMARK    4  A    between atoms: C_8  and  O_20
REMARK    5  A    between atoms: C_12  and  O_19
REMARK    6  A    between atoms: C_14  and  O_18
REMARK    7  A    between atoms: O_20  and  C_21
REMARK    8  A    between atoms: C_23  and  O_47
REMARK    9  A    between atoms: C_25  and  O_35
REMARK   10  A    between atoms: C_27  and  O_34
REMARK   11  A    between atoms: C_29  and  C_32
REMARK   12  A    between atoms: C_32  and  O_33
REMARK   13  A    between atoms: O_35  and  C_36
REMARK   14  A    between atoms: C_36  and  C_38
REMARK   15  A    between atoms: C_40  and  O_46
REMARK   16  A    between atoms: C_41  and  O_45
REMARK   17  A    between atoms: C_42  and  O_44
REMARK   18  A    between atoms: O_47  and  C_48
REMARK   19  A    between atoms: C_48  and  C_50
REMARK   20  A    between atoms: C_52  and  O_58
REMARK   21  A    between atoms: C_53  and  O_57
REMARK   22  A    between atoms: C_54  and  O_56
REMARK                            x       y       z     vdW  Elec       q    Type
REMARK                         _______ _______ _______ _____ _____    ______ ____
ROOT
ATOM      1  C   UNL     1       7.371  -1.962  24.773  0.00  0.00    +0.353 C 
ATOM      2  O   UNL     1       8.733  -1.773  25.242  0.00  0.00    -0.330 OA
ATOM      3  C   UNL     1       9.774  -1.085  24.499  0.00  0.00    +0.180 C 
ATOM      4  C   UNL     1       9.553  -0.986  22.960  0.00  0.00    +0.190 C 
ATOM      5  C   UNL     1       8.066  -0.809  22.669  0.00  0.00    +0.254 C 
ATOM      6  C   UNL     1       7.260  -2.075  23.234  0.00  0.00    +0.288 C 
ENDROOT
BRANCH   4   7
ATOM      7  O   UNL     1      10.087  -2.120  22.283  0.00  0.00    -0.385 OA
ATOM      8  H   UNL     1       9.776  -2.917  22.750  0.00  0.00    +0.210 HD
ENDBRANCH   4   7
BRANCH   1   9
ATOM      9  O   UNL     1       6.457  -0.869  25.057  0.00  0.00    -0.452 OA
BRANCH   9  20
ATOM     10  C   UNL     1       5.321  -0.228  27.102  0.00  0.00    +0.181 A 
ATOM     11  O   UNL     1       4.403  -0.571  28.095  0.00  0.00    -0.451 OA
ATOM     12  C   UNL     1       3.622  -1.673  27.991  0.00  0.00    +0.147 A 
ATOM     13  C   UNL     1       3.540  -2.415  26.832  0.00  0.00    +0.109 A 
ATOM     14  C   UNL     1       2.664  -3.505  26.787  0.00  0.00    +0.135 A 
ATOM     15  C   UNL     1       1.861  -3.820  27.887  0.00  0.00    +0.091 A 
ATOM     16  C   UNL     1       1.967  -3.060  29.046  0.00  0.00    +0.124 A 
ATOM     17  C   UNL     1       4.401  -2.026  25.708  0.00  0.00    +0.238 A 
ATOM     18  O   UNL     1       4.326  -2.675  24.669  0.00  0.00    -0.283 OA
ATOM     19  C   UNL     1       2.862  -2.003  29.115  0.00  0.00    +0.092 A 
ATOM     20  C   UNL     1       5.380  -0.902  25.910  0.00  0.00    +0.214 A 
BRANCH  10  22
ATOM     21  C   UNL     1       6.822   0.825  28.867  0.00  0.00    +0.015 A 
ATOM     22  C   UNL     1       6.110   0.957  27.639  0.00  0.00    +0.025 A 
ATOM     23  C   UNL     1       6.027   2.254  27.138  0.00  0.00    +0.060 A 
ATOM     24  C   UNL     1       6.553   3.348  27.836  0.00  0.00    +0.159 A 
ATOM     25  C   UNL     1       7.147   3.193  29.080  0.00  0.00    +0.158 A 
ATOM     26  C   UNL     1       7.311   1.924  29.596  0.00  0.00    +0.050 A 
BRANCH  25  27
ATOM     27  O   UNL     1       7.520   4.317  29.763  0.00  0.00    -0.503 OA
ATOM     28  H   UNL     1       7.781   4.994  29.114  0.00  0.00    +0.292 HD
ENDBRANCH  25  27
BRANCH  24  29
ATOM     29  O   UNL     1       6.434   4.608  27.312  0.00  0.00    -0.503 OA
ATOM     30  H   UNL     1       5.614   4.574  26.781  0.00  0.00    +0.292 HD
ENDBRANCH  24  29
ENDBRANCH  10  22
BRANCH  14  31
ATOM     31  O   UNL     1       2.544  -4.318  25.694  0.00  0.00    -0.506 OA
ATOM     32  H   UNL     1       2.119  -5.162  25.977  0.00  0.00    +0.292 HD
ENDBRANCH  14  31
BRANCH  16  33
ATOM     33  O   UNL     1       1.198  -3.309  30.142  0.00  0.00    -0.507 OA
ATOM     34  H   UNL     1       0.482  -2.652  30.183  0.00  0.00    +0.292 HD
ENDBRANCH  16  33
ENDBRANCH   9  20
ENDBRANCH   1   9
BRANCH   6  35
ATOM     35  O   UNL     1       7.485  -3.509  22.673  0.00  0.00    -0.448 OA
BRANCH  35  36
ATOM     36  C   UNL     1       7.642  -4.570  23.596  0.00  0.00    +0.340 C 
ATOM     37  O   UNL     1       8.766  -4.968  23.894  0.00  0.00    -0.245 OA
BRANCH  36  38
ATOM     38  C   UNL     1       6.458  -5.345  24.287  0.00  0.00    +0.066 A 
ATOM     39  C   UNL     1       5.479  -6.090  23.609  0.00  0.00    +0.064 A 
ATOM     40  C   UNL     1       4.518  -6.854  24.325  0.00  0.00    +0.163 A 
ATOM     41  C   UNL     1       4.495  -6.911  25.716  0.00  0.00    +0.201 A 
ATOM     42  C   UNL     1       5.433  -6.184  26.425  0.00  0.00    +0.163 A 
ATOM     43  C   UNL     1       6.391  -5.402  25.733  0.00  0.00    +0.064 A 
BRANCH  42  44
ATOM     44  O   UNL     1       5.365  -6.304  27.791  0.00  0.00    -0.503 OA
ATOM     45  H   UNL     1       5.515  -5.437  28.206  0.00  0.00    +0.292 HD
ENDBRANCH  42  44
BRANCH  41  46
ATOM     46  O   UNL     1       3.568  -7.701  26.351  0.00  0.00    -0.501 OA
ATOM     47  H   UNL     1       2.919  -7.960  25.661  0.00  0.00    +0.292 HD
ENDBRANCH  41  46
BRANCH  40  48
ATOM     48  O   UNL     1       3.591  -7.582  23.641  0.00  0.00    -0.503 OA
ATOM     49  H   UNL     1       2.730  -7.123  23.809  0.00  0.00    +0.292 HD
ENDBRANCH  40  48
ENDBRANCH  36  38
ENDBRANCH  35  36
ENDBRANCH   6  35
BRANCH   5  50
ATOM     50  O   UNL     1       7.901   0.557  23.324  0.00  0.00    -0.451 OA
BRANCH  50  51
ATOM     51  C   UNL     1       7.285   1.706  22.950  0.00  0.00    +0.340 C 
ATOM     52  O   UNL     1       6.168   1.785  22.484  0.00  0.00    -0.245 OA
BRANCH  51  53
ATOM     53  C   UNL     1       8.134   2.913  23.326  0.00  0.00    +0.066 A 
ATOM     54  C   UNL     1       9.505   2.957  23.021  0.00  0.00    +0.064 A 
ATOM     55  C   UNL     1      10.272   4.046  23.442  0.00  0.00    +0.163 A 
ATOM     56  C   UNL     1       9.706   5.094  24.160  0.00  0.00    +0.201 A 
ATOM     57  C   UNL     1       8.358   5.070  24.453  0.00  0.00    +0.163 A 
ATOM     58  C   UNL     1       7.563   4.015  24.011  0.00  0.00    +0.064 A 
BRANCH  57  59
ATOM     59  O   UNL     1       7.887   6.130  25.185  0.00  0.00    -0.503 OA
ATOM     60  H   UNL     1       7.939   6.939  24.650  0.00  0.00    +0.292 HD
ENDBRANCH  57  59
BRANCH  56  61
ATOM     61  O   UNL     1      10.537   6.121  24.596  0.00  0.00    -0.501 OA
ATOM     62  H   UNL     1       9.953   6.903  24.589  0.00  0.00    +0.292 HD
ENDBRANCH  56  61
BRANCH  55  63
ATOM     63  O   UNL     1      11.610   4.079  23.146  0.00  0.00    -0.503 OA
ATOM     64  H   UNL     1      11.643   4.312  22.194  0.00  0.00    +0.292 HD
ENDBRANCH  55  63
ENDBRANCH  51  53
ENDBRANCH  50  51
ENDBRANCH   5  50
BRANCH   3  65
ATOM     65  C   UNL     1      10.127   0.296  25.142  0.00  0.00    +0.190 C 
BRANCH  65  66
ATOM     66  O   UNL     1       9.061   0.852  25.915  0.00  0.00    -0.392 OA
ATOM     67  H   UNL     1       8.394   1.206  25.306  0.00  0.00    +0.210 HD
ENDBRANCH  65  66
ENDBRANCH   3  65
TORSDOF 22
ENDMDL
