MODEL 1
REMARK VINA RESULT:      -7.1      0.000      0.000
REMARK  Name = 
REMARK  22 active torsions:
REMARK  status: ('A' for Active; 'I' for Inactive)
REMARK    1  A    between atoms: C_1  and  C_2
REMARK    2  A    between atoms: C_4  and  O_68
REMARK    3  A    between atoms: C_6  and  O_67
REMARK    4  A    between atoms: C_8  and  O_66
REMARK    5  A    between atoms: C_10  and  O_13
REMARK    6  A    between atoms: O_13  and  C_14
REMARK    7  A    between atoms: C_16  and  O_65
REMARK    8  A    between atoms: C_18  and  O_64
REMARK    9  A    between atoms: C_20  and  C_62
REMARK   10  A    between atoms: C_23  and  O_25
REMARK   11  A    between atoms: O_25  and  C_26
REMARK   12  A    between atoms: C_27  and  C_54
REMARK   13  A    between atoms: C_31  and  O_38
REMARK   14  A    between atoms: C_33  and  O_37
REMARK   15  A    between atoms: O_38  and  C_39
REMARK   16  A    between atoms: C_41  and  O_53
REMARK   17  A    between atoms: C_43  and  O_52
REMARK   18  A    between atoms: C_45  and  O_51
REMARK   19  A    between atoms: C_47  and  C_50
REMARK   20  A    between atoms: C_56  and  O_61
REMARK   21  A    between atoms: C_57  and  O_60
REMARK   22  A    between atoms: C_62  and  O_63
REMARK                            x       y       z     vdW  Elec       q    Type
REMARK                         _______ _______ _______ _____ _____    ______ ____
ROOT
ATOM      1  C   UNL     1       7.907  -1.930  26.243  0.00  0.00    +0.214 A 
ATOM      2  C   UNL     1       7.947  -3.413  26.533  0.00  0.00    +0.238 A 
ATOM      3  O   UNL     1       8.947  -4.088  26.325  0.00  0.00    -0.283 OA
ATOM      4  C   UNL     1       6.728  -4.008  27.133  0.00  0.00    +0.109 A 
ATOM      5  C   UNL     1       5.551  -3.273  27.061  0.00  0.00    +0.147 A 
ATOM      6  C   UNL     1       4.356  -3.741  27.646  0.00  0.00    +0.093 A 
ATOM      7  C   UNL     1       4.337  -4.963  28.313  0.00  0.00    +0.131 A 
ATOM      8  C   UNL     1       5.518  -5.714  28.384  0.00  0.00    +0.092 A 
ATOM      9  O   UNL     1       5.490  -2.071  26.407  0.00  0.00    -0.451 OA
ATOM     10  C   UNL     1       6.702  -5.241  27.795  0.00  0.00    +0.135 A 
ATOM     11  C   UNL     1       6.672  -1.375  26.165  0.00  0.00    +0.181 A 
ENDROOT
BRANCH  11  12
ATOM     12  C   UNL     1       6.332   0.041  25.857  0.00  0.00    +0.025 A 
ATOM     13  C   UNL     1       6.008   0.394  24.534  0.00  0.00    +0.015 A 
ATOM     14  C   UNL     1       5.971   1.736  24.130  0.00  0.00    +0.050 A 
ATOM     15  C   UNL     1       6.253   2.734  25.047  0.00  0.00    +0.158 A 
ATOM     16  C   UNL     1       6.541   2.411  26.373  0.00  0.00    +0.159 A 
ATOM     17  C   UNL     1       6.592   1.074  26.784  0.00  0.00    +0.060 A 
BRANCH  16  18
ATOM     18  O   UNL     1       6.803   3.454  27.219  0.00  0.00    -0.503 OA
ATOM     19  H   UNL     1       7.766   3.574  27.272  0.00  0.00    +0.292 HD
ENDBRANCH  16  18
BRANCH  15  20
ATOM     20  O   UNL     1       6.278   4.036  24.634  0.00  0.00    -0.503 OA
ATOM     21  H   UNL     1       5.925   4.550  25.388  0.00  0.00    +0.292 HD
ENDBRANCH  15  20
ENDBRANCH  11  12
BRANCH  10  22
ATOM     22  O   UNL     1       7.832  -6.003  27.895  0.00  0.00    -0.506 OA
ATOM     23  H   UNL     1       8.580  -5.475  28.213  0.00  0.00    +0.292 HD
ENDBRANCH  10  22
BRANCH   7  24
ATOM     24  O   UNL     1       3.263  -5.514  28.960  0.00  0.00    -0.461 OA
BRANCH  24  25
ATOM     25  C   UNL     1       2.875  -6.863  28.653  0.00  0.00    +0.339 C 
ATOM     26  O   UNL     1       3.192  -7.283  27.322  0.00  0.00    -0.334 OA
ATOM     27  C   UNL     1       2.537  -6.525  26.294  0.00  0.00    +0.150 C 
ATOM     28  C   UNL     1       2.987  -7.136  24.966  0.00  0.00    +0.041 C 
ATOM     29  C   UNL     1       0.994  -6.520  26.423  0.00  0.00    +0.174 C 
ATOM     30  C   UNL     1       0.551  -6.185  27.855  0.00  0.00    +0.180 C 
ATOM     31  C   UNL     1       1.347  -7.015  28.883  0.00  0.00    +0.214 C 
BRANCH  31  32
ATOM     32  O   UNL     1       0.958  -8.392  28.798  0.00  0.00    -0.383 OA
ATOM     33  H   UNL     1       0.006  -8.406  28.550  0.00  0.00    +0.210 HD
ENDBRANCH  31  32
BRANCH  30  34
ATOM     34  O   UNL     1       0.661  -4.777  28.062  0.00  0.00    -0.386 OA
ATOM     35  H   UNL     1       0.073  -4.525  28.795  0.00  0.00    +0.210 HD
ENDBRANCH  30  34
BRANCH  29  36
ATOM     36  O   UNL     1       0.443  -7.809  26.079  0.00  0.00    -0.387 OA
ATOM     37  H   UNL     1       0.007  -8.163  26.873  0.00  0.00    +0.210 HD
ENDBRANCH  29  36
ENDBRANCH  24  25
ENDBRANCH   7  24
BRANCH   1  38
ATOM     38  O   UNL     1       9.070  -1.163  26.180  0.00  0.00    -0.453 OA
BRANCH  38  40
ATOM     39  C   UNL     1       8.932  -1.163  23.616  0.00  0.00    +0.221 C 
ATOM     40  C   UNL     1       9.526  -0.555  24.944  0.00  0.00    +0.340 C 
ATOM     41  O   UNL     1       9.476   0.879  25.000  0.00  0.00    -0.331 OA
ATOM     42  C   UNL     1      10.085   1.531  23.882  0.00  0.00    +0.179 C 
ATOM     43  C   UNL     1       9.476   1.082  22.546  0.00  0.00    +0.177 C 
ATOM     44  C   UNL     1       9.596  -0.428  22.435  0.00  0.00    +0.180 C 
BRANCH  44  45
ATOM     45  O   UNL     1       9.042  -0.849  21.173  0.00  0.00    -0.386 OA
ATOM     46  H   UNL     1       9.816  -0.963  20.585  0.00  0.00    +0.210 HD
ENDBRANCH  44  45
BRANCH  43  47
ATOM     47  O   UNL     1      10.178   1.683  21.441  0.00  0.00    -0.386 OA
ATOM     48  H   UNL     1      10.851   2.263  21.859  0.00  0.00    +0.210 HD
ENDBRANCH  43  47
BRANCH  42  49
ATOM     49  C   UNL     1       9.952   3.053  24.040  0.00  0.00    +0.190 C 
BRANCH  49  50
ATOM     50  O   UNL     1       9.047   3.612  23.089  0.00  0.00    -0.392 OA
ATOM     51  H   UNL     1       9.582   3.855  22.301  0.00  0.00    +0.210 HD
ENDBRANCH  49  50
ENDBRANCH  42  49
BRANCH  39  52
ATOM     52  O   UNL     1       9.234  -2.539  23.307  0.00  0.00    -0.337 OA
BRANCH  52  56
ATOM     53  C   UNL     1       5.952  -3.206  20.722  0.00  0.00    +0.041 C 
ATOM     54  C   UNL     1       5.850  -3.178  22.243  0.00  0.00    +0.149 C 
ATOM     55  O   UNL     1       7.016  -2.575  22.817  0.00  0.00    -0.343 OA
ATOM     56  C   UNL     1       8.197  -3.390  22.842  0.00  0.00    +0.282 C 
ATOM     57  C   UNL     1       7.914  -4.624  23.725  0.00  0.00    +0.201 C 
ATOM     58  C   UNL     1       6.752  -5.419  23.110  0.00  0.00    +0.179 C 
ATOM     59  C   UNL     1       5.522  -4.533  22.899  0.00  0.00    +0.174 C 
BRANCH  59  60
ATOM     60  O   UNL     1       4.934  -4.288  24.189  0.00  0.00    -0.387 OA
ATOM     61  H   UNL     1       3.963  -4.324  24.098  0.00  0.00    +0.210 HD
ENDBRANCH  59  60
BRANCH  58  62
ATOM     62  O   UNL     1       7.203  -6.071  21.905  0.00  0.00    -0.386 OA
ATOM     63  H   UNL     1       8.141  -5.881  21.745  0.00  0.00    +0.210 HD
ENDBRANCH  58  62
BRANCH  57  64
ATOM     64  O   UNL     1       9.023  -5.509  23.841  0.00  0.00    -0.384 OA
ATOM     65  H   UNL     1       9.364  -5.644  22.938  0.00  0.00    +0.210 HD
ENDBRANCH  57  64
ENDBRANCH  52  56
ENDBRANCH  39  52
ENDBRANCH  38  40
ENDBRANCH   1  38
TORSDOF 20
ENDMDL
MODEL 2
REMARK VINA RESULT:      -7.0      1.996      8.739
REMARK  Name = 
REMARK  22 active torsions:
REMARK  status: ('A' for Active; 'I' for Inactive)
REMARK    1  A    between atoms: C_1  and  C_2
REMARK    2  A    between atoms: C_4  and  O_68
REMARK    3  A    between atoms: C_6  and  O_67
REMARK    4  A    between atoms: C_8  and  O_66
REMARK    5  A    between atoms: C_10  and  O_13
REMARK    6  A    between atoms: O_13  and  C_14
REMARK    7  A    between atoms: C_16  and  O_65
REMARK    8  A    between atoms: C_18  and  O_64
REMARK    9  A    between atoms: C_20  and  C_62
REMARK   10  A    between atoms: C_23  and  O_25
REMARK   11  A    between atoms: O_25  and  C_26
REMARK   12  A    between atoms: C_27  and  C_54
REMARK   13  A    between atoms: C_31  and  O_38
REMARK   14  A    between atoms: C_33  and  O_37
REMARK   15  A    between atoms: O_38  and  C_39
REMARK   16  A    between atoms: C_41  and  O_53
REMARK   17  A    between atoms: C_43  and  O_52
REMARK   18  A    between atoms: C_45  and  O_51
REMARK   19  A    between atoms: C_47  and  C_50
REMARK   20  A    between atoms: C_56  and  O_61
REMARK   21  A    between atoms: C_57  and  O_60
REMARK   22  A    between atoms: C_62  and  O_63
REMARK                            x       y       z     vdW  Elec       q    Type
REMARK                         _______ _______ _______ _____ _____    ______ ____
ROOT
ATOM      1  C   UNL     1       5.884  -1.052  26.725  0.00  0.00    +0.214 A 
ATOM      2  C   UNL     1       5.988   0.219  27.536  0.00  0.00    +0.238 A 
ATOM      3  O   UNL     1       6.059   0.206  28.759  0.00  0.00    -0.283 OA
ATOM      4  C   UNL     1       6.053   1.492  26.775  0.00  0.00    +0.109 A 
ATOM      5  C   UNL     1       5.668   1.463  25.441  0.00  0.00    +0.147 A 
ATOM      6  C   UNL     1       5.742   2.616  24.631  0.00  0.00    +0.093 A 
ATOM      7  C   UNL     1       6.208   3.815  25.163  0.00  0.00    +0.131 A 
ATOM      8  C   UNL     1       6.591   3.853  26.510  0.00  0.00    +0.092 A 
ATOM      9  O   UNL     1       5.184   0.325  24.853  0.00  0.00    -0.451 OA
ATOM     10  C   UNL     1       6.510   2.702  27.310  0.00  0.00    +0.135 A 
ATOM     11  C   UNL     1       5.452  -0.906  25.449  0.00  0.00    +0.181 A 
ENDROOT
BRANCH  11  12
ATOM     12  C   UNL     1       5.220  -1.978  24.442  0.00  0.00    +0.025 A 
ATOM     13  C   UNL     1       4.234  -2.951  24.694  0.00  0.00    +0.015 A 
ATOM     14  C   UNL     1       4.174  -4.132  23.943  0.00  0.00    +0.050 A 
ATOM     15  C   UNL     1       5.094  -4.348  22.932  0.00  0.00    +0.158 A 
ATOM     16  C   UNL     1       6.057  -3.383  22.639  0.00  0.00    +0.159 A 
ATOM     17  C   UNL     1       6.134  -2.205  23.390  0.00  0.00    +0.060 A 
BRANCH  16  18
ATOM     18  O   UNL     1       6.927  -3.668  21.621  0.00  0.00    -0.503 OA
ATOM     19  H   UNL     1       7.537  -2.918  21.517  0.00  0.00    +0.292 HD
ENDBRANCH  16  18
BRANCH  15  20
ATOM     20  O   UNL     1       5.071  -5.529  22.244  0.00  0.00    -0.503 OA
ATOM     21  H   UNL     1       4.561  -5.341  21.431  0.00  0.00    +0.292 HD
ENDBRANCH  15  20
ENDBRANCH  11  12
BRANCH  10  22
ATOM     22  O   UNL     1       6.902   2.784  28.617  0.00  0.00    -0.506 OA
ATOM     23  H   UNL     1       7.513   2.066  28.843  0.00  0.00    +0.292 HD
ENDBRANCH  10  22
BRANCH   7  24
ATOM     24  O   UNL     1       6.371   4.991  24.482  0.00  0.00    -0.461 OA
BRANCH  24  25
ATOM     25  C   UNL     1       7.069   4.984  23.227  0.00  0.00    +0.339 C 
ATOM     26  O   UNL     1       8.192   4.098  23.177  0.00  0.00    -0.334 OA
ATOM     27  C   UNL     1       9.232   4.412  24.115  0.00  0.00    +0.150 C 
ATOM     28  C   UNL     1      10.332   3.373  23.891  0.00  0.00    +0.041 C 
ATOM     29  C   UNL     1       9.775   5.855  23.970  0.00  0.00    +0.174 C 
ATOM     30  C   UNL     1       8.634   6.881  23.902  0.00  0.00    +0.180 C 
ATOM     31  C   UNL     1       7.547   6.427  22.905  0.00  0.00    +0.214 C 
BRANCH  31  32
ATOM     32  O   UNL     1       8.056   6.504  21.567  0.00  0.00    -0.383 OA
ATOM     33  H   UNL     1       9.037   6.539  21.636  0.00  0.00    +0.210 HD
ENDBRANCH  31  32
BRANCH  30  34
ATOM     34  O   UNL     1       8.130   7.108  25.218  0.00  0.00    -0.386 OA
ATOM     35  H   UNL     1       8.799   6.815  25.861  0.00  0.00    +0.210 HD
ENDBRANCH  30  34
BRANCH  29  36
ATOM     36  O   UNL     1      10.564   5.991  22.770  0.00  0.00    -0.387 OA
ATOM     37  H   UNL     1       9.984   5.797  22.014  0.00  0.00    +0.210 HD
ENDBRANCH  29  36
ENDBRANCH  24  25
ENDBRANCH   7  24
BRANCH   1  38
ATOM     38  O   UNL     1       6.321  -2.278  27.225  0.00  0.00    -0.453 OA
BRANCH  38  40
ATOM     39  C   UNL     1       7.480  -4.480  26.587  0.00  0.00    +0.221 C 
ATOM     40  C   UNL     1       7.538  -2.913  26.754  0.00  0.00    +0.340 C 
ATOM     41  O   UNL     1       8.097  -2.228  25.621  0.00  0.00    -0.331 OA
ATOM     42  C   UNL     1       9.391  -2.699  25.231  0.00  0.00    +0.179 C 
ATOM     43  C   UNL     1       9.394  -4.205  24.931  0.00  0.00    +0.177 C 
ATOM     44  C   UNL     1       8.882  -4.950  26.151  0.00  0.00    +0.180 C 
BRANCH  44  45
ATOM     45  O   UNL     1       8.902  -6.365  25.877  0.00  0.00    -0.386 OA
ATOM     46  H   UNL     1       9.673  -6.494  25.288  0.00  0.00    +0.210 HD
ENDBRANCH  44  45
BRANCH  43  47
ATOM     47  O   UNL     1      10.728  -4.661  24.638  0.00  0.00    -0.386 OA
ATOM     48  H   UNL     1      11.315  -4.040  25.122  0.00  0.00    +0.210 HD
ENDBRANCH  43  47
BRANCH  42  49
ATOM     49  C   UNL     1       9.875  -1.912  24.004  0.00  0.00    +0.190 C 
BRANCH  49  50
ATOM     50  O   UNL     1       9.696  -2.647  22.794  0.00  0.00    -0.392 OA
ATOM     51  H   UNL     1      10.447  -2.406  22.206  0.00  0.00    +0.210 HD
ENDBRANCH  49  50
ENDBRANCH  42  49
BRANCH  39  52
ATOM     52  O   UNL     1       7.261  -5.279  27.768  0.00  0.00    -0.337 OA
BRANCH  52  56
ATOM     53  C   UNL     1       3.720  -7.079  26.315  0.00  0.00    +0.041 C 
ATOM     54  C   UNL     1       3.770  -5.710  26.983  0.00  0.00    +0.149 C 
ATOM     55  O   UNL     1       5.114  -5.217  27.026  0.00  0.00    -0.343 OA
ATOM     56  C   UNL     1       5.968  -5.810  28.017  0.00  0.00    +0.282 C 
ATOM     57  C   UNL     1       5.385  -5.492  29.411  0.00  0.00    +0.201 C 
ATOM     58  C   UNL     1       3.978  -6.102  29.511  0.00  0.00    +0.179 C 
ATOM     59  C   UNL     1       3.084  -5.633  28.361  0.00  0.00    +0.174 C 
BRANCH  59  60
ATOM     60  O   UNL     1       2.726  -4.263  28.618  0.00  0.00    -0.387 OA
ATOM     61  H   UNL     1       2.979  -3.726  27.844  0.00  0.00    +0.210 HD
ENDBRANCH  59  60
BRANCH  58  62
ATOM     62  O   UNL     1       4.085  -7.537  29.605  0.00  0.00    -0.386 OA
ATOM     63  H   UNL     1       3.444  -7.887  30.244  0.00  0.00    +0.210 HD
ENDBRANCH  58  62
BRANCH  57  64
ATOM     64  O   UNL     1       6.157  -6.017  30.485  0.00  0.00    -0.384 OA
ATOM     65  H   UNL     1       6.570  -5.253  30.928  0.00  0.00    +0.210 HD
ENDBRANCH  57  64
ENDBRANCH  52  56
ENDBRANCH  39  52
ENDBRANCH  38  40
ENDBRANCH   1  38
TORSDOF 20
ENDMDL
MODEL 3
REMARK VINA RESULT:      -6.9      1.899      8.911
REMARK  Name = 
REMARK  22 active torsions:
REMARK  status: ('A' for Active; 'I' for Inactive)
REMARK    1  A    between atoms: C_1  and  C_2
REMARK    2  A    between atoms: C_4  and  O_68
REMARK    3  A    between atoms: C_6  and  O_67
REMARK    4  A    between atoms: C_8  and  O_66
REMARK    5  A    between atoms: C_10  and  O_13
REMARK    6  A    between atoms: O_13  and  C_14
REMARK    7  A    between atoms: C_16  and  O_65
REMARK    8  A    between atoms: C_18  and  O_64
REMARK    9  A    between atoms: C_20  and  C_62
REMARK   10  A    between atoms: C_23  and  O_25
REMARK   11  A    between atoms: O_25  and  C_26
REMARK   12  A    between atoms: C_27  and  C_54
REMARK   13  A    between atoms: C_31  and  O_38
REMARK   14  A    between atoms: C_33  and  O_37
REMARK   15  A    between atoms: O_38  and  C_39
REMARK   16  A    between atoms: C_41  and  O_53
REMARK   17  A    between atoms: C_43  and  O_52
REMARK   18  A    between atoms: C_45  and  O_51
REMARK   19  A    between atoms: C_47  and  C_50
REMARK   20  A    between atoms: C_56  and  O_61
REMARK   21  A    between atoms: C_57  and  O_60
REMARK   22  A    between atoms: C_62  and  O_63
REMARK                            x       y       z     vdW  Elec       q    Type
REMARK                         _______ _______ _______ _____ _____    ______ ____
ROOT
ATOM      1  C   UNL     1       6.265  -2.966  26.959  0.00  0.00    +0.214 A 
ATOM      2  C   UNL     1       7.656  -2.571  26.517  0.00  0.00    +0.238 A 
ATOM      3  O   UNL     1       8.562  -3.389  26.416  0.00  0.00    -0.283 OA
ATOM      4  C   UNL     1       7.862  -1.146  26.159  0.00  0.00    +0.109 A 
ATOM      5  C   UNL     1       6.904  -0.232  26.578  0.00  0.00    +0.147 A 
ATOM      6  C   UNL     1       6.996   1.135  26.242  0.00  0.00    +0.093 A 
ATOM      7  C   UNL     1       8.063   1.595  25.475  0.00  0.00    +0.131 A 
ATOM      8  C   UNL     1       9.038   0.681  25.056  0.00  0.00    +0.092 A 
ATOM      9  O   UNL     1       5.835  -0.609  27.348  0.00  0.00    -0.451 OA
ATOM     10  C   UNL     1       8.940  -0.678  25.398  0.00  0.00    +0.135 A 
ATOM     11  C   UNL     1       5.468  -1.952  27.379  0.00  0.00    +0.181 A 
ENDROOT
BRANCH  11  12
ATOM     12  C   UNL     1       4.078  -2.050  27.901  0.00  0.00    +0.025 A 
ATOM     13  C   UNL     1       3.862  -1.973  29.289  0.00  0.00    +0.015 A 
ATOM     14  C   UNL     1       2.635  -2.350  29.854  0.00  0.00    +0.050 A 
ATOM     15  C   UNL     1       1.615  -2.801  29.035  0.00  0.00    +0.158 A 
ATOM     16  C   UNL     1       1.792  -2.851  27.652  0.00  0.00    +0.159 A 
ATOM     17  C   UNL     1       3.016  -2.489  27.079  0.00  0.00    +0.060 A 
BRANCH  16  18
ATOM     18  O   UNL     1       0.734  -3.303  26.911  0.00  0.00    -0.503 OA
ATOM     19  H   UNL     1       0.077  -3.689  27.515  0.00  0.00    +0.292 HD
ENDBRANCH  16  18
BRANCH  15  20
ATOM     20  O   UNL     1       0.443  -3.226  29.595  0.00  0.00    -0.503 OA
ATOM     21  H   UNL     1       0.338  -2.690  30.405  0.00  0.00    +0.292 HD
ENDBRANCH  15  20
ENDBRANCH  11  12
BRANCH  10  22
ATOM     22  O   UNL     1       9.910  -1.535  24.960  0.00  0.00    -0.506 OA
ATOM     23  H   UNL     1       9.805  -1.726  24.016  0.00  0.00    +0.292 HD
ENDBRANCH  10  22
BRANCH   7  24
ATOM     24  O   UNL     1       8.252   2.881  25.043  0.00  0.00    -0.461 OA
BRANCH  24  25
ATOM     25  C   UNL     1       8.502   3.123  23.650  0.00  0.00    +0.339 C 
ATOM     26  O   UNL     1       9.637   3.953  23.386  0.00  0.00    -0.334 OA
ATOM     27  C   UNL     1       9.535   5.279  23.923  0.00  0.00    +0.150 C 
ATOM     28  C   UNL     1      10.823   6.000  23.521  0.00  0.00    +0.041 C 
ATOM     29  C   UNL     1       8.280   6.044  23.435  0.00  0.00    +0.174 C 
ATOM     30  C   UNL     1       7.011   5.190  23.575  0.00  0.00    +0.180 C 
ATOM     31  C   UNL     1       7.242   3.771  23.015  0.00  0.00    +0.214 C 
BRANCH  31  32
ATOM     32  O   UNL     1       7.368   3.830  21.588  0.00  0.00    -0.383 OA
ATOM     33  H   UNL     1       6.921   4.656  21.295  0.00  0.00    +0.210 HD
ENDBRANCH  31  32
BRANCH  30  34
ATOM     34  O   UNL     1       6.593   5.194  24.940  0.00  0.00    -0.386 OA
ATOM     35  H   UNL     1       6.987   4.425  25.387  0.00  0.00    +0.210 HD
ENDBRANCH  30  34
BRANCH  29  36
ATOM     36  O   UNL     1       8.410   6.418  22.048  0.00  0.00    -0.387 OA
ATOM     37  H   UNL     1       8.003   5.715  21.515  0.00  0.00    +0.210 HD
ENDBRANCH  29  36
ENDBRANCH  24  25
ENDBRANCH   7  24
BRANCH   1  38
ATOM     38  O   UNL     1       5.797  -4.273  26.828  0.00  0.00    -0.453 OA
BRANCH  38  40
ATOM     39  C   UNL     1       4.438  -5.794  25.267  0.00  0.00    +0.221 C 
ATOM     40  C   UNL     1       5.738  -4.944  25.543  0.00  0.00    +0.340 C 
ATOM     41  O   UNL     1       6.101  -4.070  24.463  0.00  0.00    -0.331 OA
ATOM     42  C   UNL     1       6.238  -4.726  23.198  0.00  0.00    +0.179 C 
ATOM     43  C   UNL     1       4.964  -5.482  22.796  0.00  0.00    +0.177 C 
ATOM     44  C   UNL     1       4.612  -6.471  23.894  0.00  0.00    +0.180 C 
BRANCH  44  45
ATOM     45  O   UNL     1       3.427  -7.194  23.508  0.00  0.00    -0.386 OA
ATOM     46  H   UNL     1       2.706  -6.533  23.547  0.00  0.00    +0.210 HD
ENDBRANCH  44  45
BRANCH  43  47
ATOM     47  O   UNL     1       5.170  -6.208  21.570  0.00  0.00    -0.386 OA
ATOM     48  H   UNL     1       4.268  -6.464  21.277  0.00  0.00    +0.210 HD
ENDBRANCH  43  47
BRANCH  42  49
ATOM     49  C   UNL     1       6.605  -3.693  22.121  0.00  0.00    +0.190 C 
BRANCH  49  50
ATOM     50  O   UNL     1       5.491  -3.371  21.289  0.00  0.00    -0.392 OA
ATOM     51  H   UNL     1       4.690  -3.706  21.751  0.00  0.00    +0.210 HD
ENDBRANCH  49  50
ENDBRANCH  42  49
BRANCH  39  52
ATOM     52  O   UNL     1       4.177  -6.928  26.119  0.00  0.00    -0.337 OA
BRANCH  52  56
ATOM     53  C   UNL     1       3.169  -5.940  30.106  0.00  0.00    +0.041 C 
ATOM     54  C   UNL     1       3.031  -7.336  29.511  0.00  0.00    +0.149 C 
ATOM     55  O   UNL     1       3.781  -7.445  28.295  0.00  0.00    -0.343 OA
ATOM     56  C   UNL     1       3.198  -6.819  27.141  0.00  0.00    +0.282 C 
ATOM     57  C   UNL     1       1.854  -7.515  26.840  0.00  0.00    +0.201 C 
ATOM     58  C   UNL     1       0.921  -7.336  28.048  0.00  0.00    +0.179 C 
ATOM     59  C   UNL     1       1.581  -7.830  29.338  0.00  0.00    +0.174 C 
BRANCH  59  60
ATOM     60  O   UNL     1       1.588  -9.268  29.303  0.00  0.00    -0.387 OA
ATOM     61  H   UNL     1       1.761  -9.554  28.386  0.00  0.00    +0.210 HD
ENDBRANCH  59  60
BRANCH  58  62
ATOM     62  O   UNL     1       0.484  -5.964  28.116  0.00  0.00    -0.386 OA
ATOM     63  H   UNL     1       0.621  -5.606  29.008  0.00  0.00    +0.210 HD
ENDBRANCH  58  62
BRANCH  57  64
ATOM     64  O   UNL     1       1.183  -6.990  25.700  0.00  0.00    -0.384 OA
ATOM     65  H   UNL     1       1.849  -6.926  24.992  0.00  0.00    +0.210 HD
ENDBRANCH  57  64
ENDBRANCH  52  56
ENDBRANCH  39  52
ENDBRANCH  38  40
ENDBRANCH   1  38
TORSDOF 20
ENDMDL
MODEL 4
REMARK VINA RESULT:      -6.7      2.639      6.030
REMARK  Name = 
REMARK  22 active torsions:
REMARK  status: ('A' for Active; 'I' for Inactive)
REMARK    1  A    between atoms: C_1  and  C_2
REMARK    2  A    between atoms: C_4  and  O_68
REMARK    3  A    between atoms: C_6  and  O_67
REMARK    4  A    between atoms: C_8  and  O_66
REMARK    5  A    between atoms: C_10  and  O_13
REMARK    6  A    between atoms: O_13  and  C_14
REMARK    7  A    between atoms: C_16  and  O_65
REMARK    8  A    between atoms: C_18  and  O_64
REMARK    9  A    between atoms: C_20  and  C_62
REMARK   10  A    between atoms: C_23  and  O_25
REMARK   11  A    between atoms: O_25  and  C_26
REMARK   12  A    between atoms: C_27  and  C_54
REMARK   13  A    between atoms: C_31  and  O_38
REMARK   14  A    between atoms: C_33  and  O_37
REMARK   15  A    between atoms: O_38  and  C_39
REMARK   16  A    between atoms: C_41  and  O_53
REMARK   17  A    between atoms: C_43  and  O_52
REMARK   18  A    between atoms: C_45  and  O_51
REMARK   19  A    between atoms: C_47  and  C_50
REMARK   20  A    between atoms: C_56  and  O_61
REMARK   21  A    between atoms: C_57  and  O_60
REMARK   22  A    between atoms: C_62  and  O_63
REMARK                            x       y       z     vdW  Elec       q    Type
REMARK                         _______ _______ _______ _____ _____    ______ ____
ROOT
ATOM      1  C   UNL     1       7.184   0.959  26.611  0.00  0.00    +0.214 A 
ATOM      2  C   UNL     1       6.324   0.288  27.657  0.00  0.00    +0.238 A 
ATOM      3  O   UNL     1       6.112   0.799  28.749  0.00  0.00    -0.283 OA
ATOM      4  C   UNL     1       5.701  -1.005  27.279  0.00  0.00    +0.109 A 
ATOM      5  C   UNL     1       6.215  -1.666  26.170  0.00  0.00    +0.147 A 
ATOM      6  C   UNL     1       5.654  -2.877  25.712  0.00  0.00    +0.093 A 
ATOM      7  C   UNL     1       4.563  -3.435  26.373  0.00  0.00    +0.131 A 
ATOM      8  C   UNL     1       4.045  -2.779  27.497  0.00  0.00    +0.092 A 
ATOM      9  O   UNL     1       7.296  -1.186  25.480  0.00  0.00    -0.451 OA
ATOM     10  C   UNL     1       4.612  -1.575  27.948  0.00  0.00    +0.135 A 
ATOM     11  C   UNL     1       7.639   0.158  25.615  0.00  0.00    +0.181 A 
ENDROOT
BRANCH  11  12
ATOM     12  C   UNL     1       8.528   0.535  24.483  0.00  0.00    +0.025 A 
ATOM     13  C   UNL     1       9.825   1.006  24.760  0.00  0.00    +0.015 A 
ATOM     14  C   UNL     1      10.589   1.646  23.774  0.00  0.00    +0.050 A 
ATOM     15  C   UNL     1      10.064   1.816  22.505  0.00  0.00    +0.158 A 
ATOM     16  C   UNL     1       8.795   1.326  22.196  0.00  0.00    +0.159 A 
ATOM     17  C   UNL     1       8.019   0.696  23.175  0.00  0.00    +0.060 A 
BRANCH  16  18
ATOM     18  O   UNL     1       8.350   1.529  20.918  0.00  0.00    -0.503 OA
ATOM     19  H   UNL     1       7.915   2.397  20.877  0.00  0.00    +0.292 HD
ENDBRANCH  16  18
BRANCH  15  20
ATOM     20  O   UNL     1      10.787   2.497  21.566  0.00  0.00    -0.503 OA
ATOM     21  H   UNL     1      10.549   2.084  20.712  0.00  0.00    +0.292 HD
ENDBRANCH  15  20
ENDBRANCH  11  12
BRANCH  10  22
ATOM     22  O   UNL     1       4.069  -0.965  29.043  0.00  0.00    -0.506 OA
ATOM     23  H   UNL     1       4.597  -1.139  29.836  0.00  0.00    +0.292 HD
ENDBRANCH  10  22
BRANCH   7  24
ATOM     24  O   UNL     1       3.897  -4.576  26.012  0.00  0.00    -0.461 OA
BRANCH  24  25
ATOM     25  C   UNL     1       3.989  -5.042  24.657  0.00  0.00    +0.339 C 
ATOM     26  O   UNL     1       2.729  -5.191  23.993  0.00  0.00    -0.334 OA
ATOM     27  C   UNL     1       1.855  -6.153  24.600  0.00  0.00    +0.150 C 
ATOM     28  C   UNL     1       0.588  -6.174  23.742  0.00  0.00    +0.041 C 
ATOM     29  C   UNL     1       2.482  -7.563  24.721  0.00  0.00    +0.174 C 
ATOM     30  C   UNL     1       3.892  -7.501  25.325  0.00  0.00    +0.180 C 
ATOM     31  C   UNL     1       4.735  -6.405  24.639  0.00  0.00    +0.214 C 
BRANCH  31  32
ATOM     32  O   UNL     1       5.037  -6.799  23.295  0.00  0.00    -0.383 OA
ATOM     33  H   UNL     1       5.620  -7.589  23.352  0.00  0.00    +0.210 HD
ENDBRANCH  31  32
BRANCH  30  34
ATOM     34  O   UNL     1       3.789  -7.328  26.738  0.00  0.00    -0.386 OA
ATOM     35  H   UNL     1       2.846  -7.307  26.979  0.00  0.00    +0.210 HD
ENDBRANCH  30  34
BRANCH  29  36
ATOM     36  O   UNL     1       2.582  -8.196  23.428  0.00  0.00    -0.387 OA
ATOM     37  H   UNL     1       3.024  -9.053  23.555  0.00  0.00    +0.210 HD
ENDBRANCH  29  36
ENDBRANCH  24  25
ENDBRANCH   7  24
BRANCH   1  38
ATOM     38  O   UNL     1       7.395   2.337  26.608  0.00  0.00    -0.453 OA
BRANCH  38  40
ATOM     39  C   UNL     1       5.554   3.852  25.652  0.00  0.00    +0.221 C 
ATOM     40  C   UNL     1       6.973   3.179  25.504  0.00  0.00    +0.340 C 
ATOM     41  O   UNL     1       8.007   4.087  25.096  0.00  0.00    -0.331 OA
ATOM     42  C   UNL     1       7.713   4.810  23.896  0.00  0.00    +0.179 C 
ATOM     43  C   UNL     1       6.398   5.596  24.001  0.00  0.00    +0.177 C 
ATOM     44  C   UNL     1       5.277   4.634  24.353  0.00  0.00    +0.180 C 
BRANCH  44  45
ATOM     45  O   UNL     1       4.040   5.368  24.433  0.00  0.00    -0.386 OA
ATOM     46  H   UNL     1       4.255   6.259  24.091  0.00  0.00    +0.210 HD
ENDBRANCH  44  45
BRANCH  43  47
ATOM     47  O   UNL     1       6.085   6.230  22.746  0.00  0.00    -0.386 OA
ATOM     48  H   UNL     1       5.264   5.786  22.441  0.00  0.00    +0.210 HD
ENDBRANCH  43  47
BRANCH  42  49
ATOM     49  C   UNL     1       8.875   5.760  23.571  0.00  0.00    +0.190 C 
BRANCH  49  50
ATOM     50  O   UNL     1      10.044   5.054  23.159  0.00  0.00    -0.392 OA
ATOM     51  H   UNL     1      10.078   5.116  22.178  0.00  0.00    +0.210 HD
ENDBRANCH  49  50
ENDBRANCH  42  49
BRANCH  39  52
ATOM     52  O   UNL     1       4.400   2.990  25.723  0.00  0.00    -0.337 OA
BRANCH  52  56
ATOM     53  C   UNL     1       2.966   5.129  29.078  0.00  0.00    +0.041 C 
ATOM     54  C   UNL     1       3.721   3.808  29.166  0.00  0.00    +0.149 C 
ATOM     55  O   UNL     1       4.388   3.523  27.931  0.00  0.00    -0.343 OA
ATOM     56  C   UNL     1       3.553   3.055  26.860  0.00  0.00    +0.282 C 
ATOM     57  C   UNL     1       2.924   1.712  27.288  0.00  0.00    +0.201 C 
ATOM     58  C   UNL     1       2.069   1.943  28.545  0.00  0.00    +0.179 C 
ATOM     59  C   UNL     1       2.882   2.610  29.657  0.00  0.00    +0.174 C 
BRANCH  59  60
ATOM     60  O   UNL     1       3.773   1.620  30.201  0.00  0.00    -0.387 OA
ATOM     61  H   UNL     1       4.510   2.078  30.646  0.00  0.00    +0.210 HD
ENDBRANCH  59  60
BRANCH  58  62
ATOM     62  O   UNL     1       0.880   2.675  28.186  0.00  0.00    -0.386 OA
ATOM     63  H   UNL     1       1.089   3.609  28.023  0.00  0.00    +0.210 HD
ENDBRANCH  58  62
BRANCH  57  64
ATOM     64  O   UNL     1       2.080   1.137  26.297  0.00  0.00    -0.384 OA
ATOM     65  H   UNL     1       2.646   0.956  25.524  0.00  0.00    +0.210 HD
ENDBRANCH  57  64
ENDBRANCH  52  56
ENDBRANCH  39  52
ENDBRANCH  38  40
ENDBRANCH   1  38
TORSDOF 20
ENDMDL
MODEL 5
REMARK VINA RESULT:      -6.6      2.559      8.378
REMARK  Name = 
REMARK  22 active torsions:
REMARK  status: ('A' for Active; 'I' for Inactive)
REMARK    1  A    between atoms: C_1  and  C_2
REMARK    2  A    between atoms: C_4  and  O_68
REMARK    3  A    between atoms: C_6  and  O_67
REMARK    4  A    between atoms: C_8  and  O_66
REMARK    5  A    between atoms: C_10  and  O_13
REMARK    6  A    between atoms: O_13  and  C_14
REMARK    7  A    between atoms: C_16  and  O_65
REMARK    8  A    between atoms: C_18  and  O_64
REMARK    9  A    between atoms: C_20  and  C_62
REMARK   10  A    between atoms: C_23  and  O_25
REMARK   11  A    between atoms: O_25  and  C_26
REMARK   12  A    between atoms: C_27  and  C_54
REMARK   13  A    between atoms: C_31  and  O_38
REMARK   14  A    between atoms: C_33  and  O_37
REMARK   15  A    between atoms: O_38  and  C_39
REMARK   16  A    between atoms: C_41  and  O_53
REMARK   17  A    between atoms: C_43  and  O_52
REMARK   18  A    between atoms: C_45  and  O_51
REMARK   19  A    between atoms: C_47  and  C_50
REMARK   20  A    between atoms: C_56  and  O_61
REMARK   21  A    between atoms: C_57  and  O_60
REMARK   22  A    between atoms: C_62  and  O_63
REMARK                            x       y       z     vdW  Elec       q    Type
REMARK                         _______ _______ _______ _____ _____    ______ ____
ROOT
ATOM      1  C   UNL     1       6.107  -1.289  26.754  0.00  0.00    +0.214 A 
ATOM      2  C   UNL     1       6.900  -0.002  26.734  0.00  0.00    +0.238 A 
ATOM      3  O   UNL     1       8.122   0.007  26.669  0.00  0.00    -0.283 OA
ATOM      4  C   UNL     1       6.121   1.261  26.744  0.00  0.00    +0.109 A 
ATOM      5  C   UNL     1       4.785   1.190  27.120  0.00  0.00    +0.147 A 
ATOM      6  C   UNL     1       3.959   2.333  27.113  0.00  0.00    +0.093 A 
ATOM      7  C   UNL     1       4.476   3.566  26.726  0.00  0.00    +0.131 A 
ATOM      8  C   UNL     1       5.824   3.648  26.353  0.00  0.00    +0.092 A 
ATOM      9  O   UNL     1       4.212   0.015  27.529  0.00  0.00    -0.451 OA
ATOM     10  C   UNL     1       6.640   2.505  26.366  0.00  0.00    +0.135 A 
ATOM     11  C   UNL     1       4.826  -1.188  27.188  0.00  0.00    +0.181 A 
ENDROOT
BRANCH  11  12
ATOM     12  C   UNL     1       3.834  -2.286  27.347  0.00  0.00    +0.025 A 
ATOM     13  C   UNL     1       4.056  -3.271  28.329  0.00  0.00    +0.015 A 
ATOM     14  C   UNL     1       3.330  -4.470  28.329  0.00  0.00    +0.050 A 
ATOM     15  C   UNL     1       2.376  -4.692  27.352  0.00  0.00    +0.158 A 
ATOM     16  C   UNL     1       2.113  -3.717  26.390  0.00  0.00    +0.159 A 
ATOM     17  C   UNL     1       2.839  -2.521  26.374  0.00  0.00    +0.060 A 
BRANCH  16  18
ATOM     18  O   UNL     1       1.150  -4.010  25.462  0.00  0.00    -0.503 OA
ATOM     19  H   UNL     1       1.578  -4.108  24.595  0.00  0.00    +0.292 HD
ENDBRANCH  16  18
BRANCH  15  20
ATOM     20  O   UNL     1       1.716  -5.888  27.319  0.00  0.00    -0.503 OA
ATOM     21  H   UNL     1       2.409  -6.566  27.447  0.00  0.00    +0.292 HD
ENDBRANCH  15  20
ENDBRANCH  11  12
BRANCH  10  22
ATOM     22  O   UNL     1       7.947   2.629  25.987  0.00  0.00    -0.506 OA
ATOM     23  H   UNL     1       8.136   3.528  25.678  0.00  0.00    +0.292 HD
ENDBRANCH  10  22
BRANCH   7  24
ATOM     24  O   UNL     1       3.778   4.741  26.633  0.00  0.00    -0.461 OA
BRANCH  24  25
ATOM     25  C   UNL     1       2.625   4.806  25.778  0.00  0.00    +0.339 C 
ATOM     26  O   UNL     1       2.759   4.093  24.545  0.00  0.00    -0.334 OA
ATOM     27  C   UNL     1       3.810   4.577  23.696  0.00  0.00    +0.150 C 
ATOM     28  C   UNL     1       3.774   3.704  22.439  0.00  0.00    +0.041 C 
ATOM     29  C   UNL     1       3.674   6.079  23.347  0.00  0.00    +0.174 C 
ATOM     30  C   UNL     1       3.416   6.926  24.602  0.00  0.00    +0.180 C 
ATOM     31  C   UNL     1       2.307   6.295  25.470  0.00  0.00    +0.214 C 
BRANCH  31  32
ATOM     32  O   UNL     1       1.044   6.415  24.803  0.00  0.00    -0.383 OA
ATOM     33  H   UNL     1       0.350   6.185  25.460  0.00  0.00    +0.210 HD
ENDBRANCH  31  32
BRANCH  30  34
ATOM     34  O   UNL     1       4.645   7.108  25.305  0.00  0.00    -0.386 OA
ATOM     35  H   UNL     1       5.347   7.297  24.658  0.00  0.00    +0.210 HD
ENDBRANCH  30  34
BRANCH  29  36
ATOM     36  O   UNL     1       2.581   6.301  22.432  0.00  0.00    -0.387 OA
ATOM     37  H   UNL     1       2.704   7.181  22.036  0.00  0.00    +0.210 HD
ENDBRANCH  29  36
ENDBRANCH  24  25
ENDBRANCH   7  24
BRANCH   1  38
ATOM     38  O   UNL     1       6.626  -2.478  26.244  0.00  0.00    -0.453 OA
BRANCH  38  40
ATOM     39  C   UNL     1       6.541  -2.903  23.712  0.00  0.00    +0.221 C 
ATOM     40  C   UNL     1       5.984  -3.196  25.159  0.00  0.00    +0.340 C 
ATOM     41  O   UNL     1       5.837  -4.594  25.452  0.00  0.00    -0.331 OA
ATOM     42  C   UNL     1       5.048  -5.314  24.500  0.00  0.00    +0.179 C 
ATOM     43  C   UNL     1       5.596  -5.179  23.072  0.00  0.00    +0.177 C 
ATOM     44  C   UNL     1       5.681  -3.705  22.716  0.00  0.00    +0.180 C 
BRANCH  44  45
ATOM     45  O   UNL     1       6.177  -3.578  21.369  0.00  0.00    -0.386 OA
ATOM     46  H   UNL     1       7.151  -3.628  21.456  0.00  0.00    +0.210 HD
ENDBRANCH  44  45
BRANCH  43  47
ATOM     47  O   UNL     1       4.725  -5.832  22.130  0.00  0.00    -0.386 OA
ATOM     48  H   UNL     1       4.009  -5.181  21.961  0.00  0.00    +0.210 HD
ENDBRANCH  43  47
BRANCH  42  49
ATOM     49  C   UNL     1       4.979  -6.794  24.904  0.00  0.00    +0.190 C 
BRANCH  49  50
ATOM     50  O   UNL     1       4.029  -7.518  24.122  0.00  0.00    -0.392 OA
ATOM     51  H   UNL     1       3.982  -7.066  23.250  0.00  0.00    +0.210 HD
ENDBRANCH  49  50
ENDBRANCH  42  49
BRANCH  39  52
ATOM     52  O   UNL     1       6.410  -1.563  23.195  0.00  0.00    -0.337 OA
BRANCH  52  56
ATOM     53  C   UNL     1      10.532  -1.509  22.249  0.00  0.00    +0.041 C 
ATOM     54  C   UNL     1       9.930  -0.847  23.483  0.00  0.00    +0.149 C 
ATOM     55  O   UNL     1       8.607  -1.340  23.727  0.00  0.00    -0.343 OA
ATOM     56  C   UNL     1       7.579  -0.828  22.865  0.00  0.00    +0.282 C 
ATOM     57  C   UNL     1       7.479   0.697  23.082  0.00  0.00    +0.201 C 
ATOM     58  C   UNL     1       8.826   1.339  22.714  0.00  0.00    +0.179 C 
ATOM     59  C   UNL     1       9.980   0.693  23.485  0.00  0.00    +0.174 C 
BRANCH  59  60
ATOM     60  O   UNL     1       9.906   1.152  24.847  0.00  0.00    -0.387 OA
ATOM     61  H   UNL     1       9.046   0.877  25.220  0.00  0.00    +0.210 HD
ENDBRANCH  59  60
BRANCH  58  62
ATOM     62  O   UNL     1       9.000   1.300  21.284  0.00  0.00    -0.386 OA
ATOM     63  H   UNL     1       9.111   2.196  20.928  0.00  0.00    +0.210 HD
ENDBRANCH  58  62
BRANCH  57  64
ATOM     64  O   UNL     1       6.477   1.322  22.289  0.00  0.00    -0.384 OA
ATOM     65  H   UNL     1       6.432   0.819  21.454  0.00  0.00    +0.210 HD
ENDBRANCH  57  64
ENDBRANCH  52  56
ENDBRANCH  39  52
ENDBRANCH  38  40
ENDBRANCH   1  38
TORSDOF 20
ENDMDL
MODEL 6
REMARK VINA RESULT:      -6.6      2.335      5.878
REMARK  Name = 
REMARK  22 active torsions:
REMARK  status: ('A' for Active; 'I' for Inactive)
REMARK    1  A    between atoms: C_1  and  C_2
REMARK    2  A    between atoms: C_4  and  O_68
REMARK    3  A    between atoms: C_6  and  O_67
REMARK    4  A    between atoms: C_8  and  O_66
REMARK    5  A    between atoms: C_10  and  O_13
REMARK    6  A    between atoms: O_13  and  C_14
REMARK    7  A    between atoms: C_16  and  O_65
REMARK    8  A    between atoms: C_18  and  O_64
REMARK    9  A    between atoms: C_20  and  C_62
REMARK   10  A    between atoms: C_23  and  O_25
REMARK   11  A    between atoms: O_25  and  C_26
REMARK   12  A    between atoms: C_27  and  C_54
REMARK   13  A    between atoms: C_31  and  O_38
REMARK   14  A    between atoms: C_33  and  O_37
REMARK   15  A    between atoms: O_38  and  C_39
REMARK   16  A    between atoms: C_41  and  O_53
REMARK   17  A    between atoms: C_43  and  O_52
REMARK   18  A    between atoms: C_45  and  O_51
REMARK   19  A    between atoms: C_47  and  C_50
REMARK   20  A    between atoms: C_56  and  O_61
REMARK   21  A    between atoms: C_57  and  O_60
REMARK   22  A    between atoms: C_62  and  O_63
REMARK                            x       y       z     vdW  Elec       q    Type
REMARK                         _______ _______ _______ _____ _____    ______ ____
ROOT
ATOM      1  C   UNL     1       7.965   0.255  24.710  0.00  0.00    +0.214 A 
ATOM      2  C   UNL     1       8.422  -1.149  25.032  0.00  0.00    +0.238 A 
ATOM      3  O   UNL     1       9.455  -1.370  25.653  0.00  0.00    -0.283 OA
ATOM      4  C   UNL     1       7.530  -2.256  24.605  0.00  0.00    +0.109 A 
ATOM      5  C   UNL     1       6.554  -1.966  23.660  0.00  0.00    +0.147 A 
ATOM      6  C   UNL     1       5.634  -2.946  23.232  0.00  0.00    +0.093 A 
ATOM      7  C   UNL     1       5.691  -4.234  23.756  0.00  0.00    +0.131 A 
ATOM      8  C   UNL     1       6.678  -4.536  24.703  0.00  0.00    +0.092 A 
ATOM      9  O   UNL     1       6.448  -0.726  23.089  0.00  0.00    -0.451 OA
ATOM     10  C   UNL     1       7.592  -3.556  25.122  0.00  0.00    +0.135 A 
ATOM     11  C   UNL     1       7.034   0.363  23.730  0.00  0.00    +0.181 A 
ENDROOT
BRANCH  11  12
ATOM     12  C   UNL     1       6.435   1.611  23.183  0.00  0.00    +0.025 A 
ATOM     13  C   UNL     1       7.142   2.337  22.206  0.00  0.00    +0.015 A 
ATOM     14  C   UNL     1       6.778   3.650  21.876  0.00  0.00    +0.050 A 
ATOM     15  C   UNL     1       5.704   4.245  22.515  0.00  0.00    +0.158 A 
ATOM     16  C   UNL     1       4.966   3.533  23.460  0.00  0.00    +0.159 A 
ATOM     17  C   UNL     1       5.327   2.226  23.806  0.00  0.00    +0.060 A 
BRANCH  16  18
ATOM     18  O   UNL     1       3.915   4.188  24.043  0.00  0.00    -0.503 OA
ATOM     19  H   UNL     1       4.268   4.816  24.696  0.00  0.00    +0.292 HD
ENDBRANCH  16  18
BRANCH  15  20
ATOM     20  O   UNL     1       5.393   5.545  22.235  0.00  0.00    -0.503 OA
ATOM     21  H   UNL     1       4.509   5.513  21.820  0.00  0.00    +0.292 HD
ENDBRANCH  15  20
ENDBRANCH  11  12
BRANCH  10  22
ATOM     22  O   UNL     1       8.532  -3.892  26.054  0.00  0.00    -0.506 OA
ATOM     23  H   UNL     1       8.117  -4.183  26.879  0.00  0.00    +0.292 HD
ENDBRANCH  10  22
BRANCH   7  24
ATOM     24  O   UNL     1       4.837  -5.264  23.462  0.00  0.00    -0.461 OA
BRANCH  24  25
ATOM     25  C   UNL     1       3.427  -5.004  23.378  0.00  0.00    +0.339 C 
ATOM     26  O   UNL     1       2.845  -4.489  24.580  0.00  0.00    -0.334 OA
ATOM     27  C   UNL     1       2.936  -5.376  25.705  0.00  0.00    +0.150 C 
ATOM     28  C   UNL     1       2.250  -4.657  26.868  0.00  0.00    +0.041 C 
ATOM     29  C   UNL     1       2.304  -6.765  25.443  0.00  0.00    +0.174 C 
ATOM     30  C   UNL     1       2.784  -7.360  24.111  0.00  0.00    +0.180 C 
ATOM     31  C   UNL     1       2.693  -6.314  22.980  0.00  0.00    +0.214 C 
BRANCH  31  32
ATOM     32  O   UNL     1       1.318  -6.050  22.675  0.00  0.00    -0.383 OA
ATOM     33  H   UNL     1       1.249  -5.092  22.464  0.00  0.00    +0.210 HD
ENDBRANCH  31  32
BRANCH  30  34
ATOM     34  O   UNL     1       4.098  -7.890  24.281  0.00  0.00    -0.386 OA
ATOM     35  H   UNL     1       4.046  -8.660  24.875  0.00  0.00    +0.210 HD
ENDBRANCH  30  34
BRANCH  29  36
ATOM     36  O   UNL     1       0.865  -6.677  25.395  0.00  0.00    -0.387 OA
ATOM     37  H   UNL     1       0.557  -6.416  26.280  0.00  0.00    +0.210 HD
ENDBRANCH  29  36
ENDBRANCH  24  25
ENDBRANCH   7  24
BRANCH   1  38
ATOM     38  O   UNL     1       8.388   1.354  25.456  0.00  0.00    -0.453 OA
BRANCH  38  40
ATOM     39  C   UNL     1       8.283   3.908  25.699  0.00  0.00    +0.221 C 
ATOM     40  C   UNL     1       8.667   2.639  24.845  0.00  0.00    +0.340 C 
ATOM     41  O   UNL     1       9.988   2.693  24.286  0.00  0.00    -0.331 OA
ATOM     42  C   UNL     1      10.250   3.867  23.510  0.00  0.00    +0.179 C 
ATOM     43  C   UNL     1      10.016   5.156  24.312  0.00  0.00    +0.177 C 
ATOM     44  C   UNL     1       8.592   5.152  24.843  0.00  0.00    +0.180 C 
BRANCH  44  45
ATOM     45  O   UNL     1       8.365   6.369  25.579  0.00  0.00    -0.386 OA
ATOM     46  H   UNL     1       7.834   6.930  24.978  0.00  0.00    +0.210 HD
ENDBRANCH  44  45
BRANCH  43  47
ATOM     47  O   UNL     1      10.193   6.314  23.475  0.00  0.00    -0.386 OA
ATOM     48  H   UNL     1      10.276   7.065  24.103  0.00  0.00    +0.210 HD
ENDBRANCH  43  47
BRANCH  42  49
ATOM     49  C   UNL     1      11.693   3.825  22.985  0.00  0.00    +0.190 C 
BRANCH  49  50
ATOM     50  O   UNL     1      12.500   4.854  23.556  0.00  0.00    -0.392 OA
ATOM     51  H   UNL     1      11.951   5.669  23.564  0.00  0.00    +0.210 HD
ENDBRANCH  49  50
ENDBRANCH  42  49
BRANCH  39  52
ATOM     52  O   UNL     1       6.891   4.115  26.017  0.00  0.00    -0.337 OA
BRANCH  52  56
ATOM     53  C   UNL     1       5.594   5.914  29.619  0.00  0.00    +0.041 C 
ATOM     54  C   UNL     1       6.873   5.096  29.484  0.00  0.00    +0.149 C 
ATOM     55  O   UNL     1       7.231   4.938  28.107  0.00  0.00    -0.343 OA
ATOM     56  C   UNL     1       6.459   3.983  27.363  0.00  0.00    +0.282 C 
ATOM     57  C   UNL     1       6.679   2.590  27.990  0.00  0.00    +0.201 C 
ATOM     58  C   UNL     1       6.194   2.621  29.448  0.00  0.00    +0.179 C 
ATOM     59  C   UNL     1       6.866   3.749  30.235  0.00  0.00    +0.174 C 
BRANCH  59  60
ATOM     60  O   UNL     1       8.227   3.357  30.485  0.00  0.00    -0.387 OA
ATOM     61  H   UNL     1       8.573   3.894  31.223  0.00  0.00    +0.210 HD
ENDBRANCH  59  60
BRANCH  58  62
ATOM     62  O   UNL     1       4.754   2.683  29.473  0.00  0.00    -0.386 OA
ATOM     63  H   UNL     1       4.373   1.790  29.463  0.00  0.00    +0.210 HD
ENDBRANCH  58  62
BRANCH  57  64
ATOM     64  O   UNL     1       5.972   1.548  27.326  0.00  0.00    -0.384 OA
ATOM     65  H   UNL     1       5.095   1.495  27.750  0.00  0.00    +0.210 HD
ENDBRANCH  57  64
ENDBRANCH  52  56
ENDBRANCH  39  52
ENDBRANCH  38  40
ENDBRANCH   1  38
TORSDOF 20
ENDMDL
MODEL 7
REMARK VINA RESULT:      -6.5      2.147      4.298
REMARK  Name = 
REMARK  22 active torsions:
REMARK  status: ('A' for Active; 'I' for Inactive)
REMARK    1  A    between atoms: C_1  and  C_2
REMARK    2  A    between atoms: C_4  and  O_68
REMARK    3  A    between atoms: C_6  and  O_67
REMARK    4  A    between atoms: C_8  and  O_66
REMARK    5  A    between atoms: C_10  and  O_13
REMARK    6  A    between atoms: O_13  and  C_14
REMARK    7  A    between atoms: C_16  and  O_65
REMARK    8  A    between atoms: C_18  and  O_64
REMARK    9  A    between atoms: C_20  and  C_62
REMARK   10  A    between atoms: C_23  and  O_25
REMARK   11  A    between atoms: O_25  and  C_26
REMARK   12  A    between atoms: C_27  and  C_54
REMARK   13  A    between atoms: C_31  and  O_38
REMARK   14  A    between atoms: C_33  and  O_37
REMARK   15  A    between atoms: O_38  and  C_39
REMARK   16  A    between atoms: C_41  and  O_53
REMARK   17  A    between atoms: C_43  and  O_52
REMARK   18  A    between atoms: C_45  and  O_51
REMARK   19  A    between atoms: C_47  and  C_50
REMARK   20  A    between atoms: C_56  and  O_61
REMARK   21  A    between atoms: C_57  and  O_60
REMARK   22  A    between atoms: C_62  and  O_63
REMARK                            x       y       z     vdW  Elec       q    Type
REMARK                         _______ _______ _______ _____ _____    ______ ____
ROOT
ATOM      1  C   UNL     1       6.646   0.367  26.729  0.00  0.00    +0.214 A 
ATOM      2  C   UNL     1       7.367  -0.959  26.649  0.00  0.00    +0.238 A 
ATOM      3  O   UNL     1       8.570  -1.059  26.857  0.00  0.00    -0.283 OA
ATOM      4  C   UNL     1       6.536  -2.154  26.356  0.00  0.00    +0.109 A 
ATOM      5  C   UNL     1       5.265  -1.940  25.839  0.00  0.00    +0.147 A 
ATOM      6  C   UNL     1       4.390  -3.015  25.574  0.00  0.00    +0.093 A 
ATOM      7  C   UNL     1       4.793  -4.323  25.830  0.00  0.00    +0.131 A 
ATOM      8  C   UNL     1       6.077  -4.546  26.344  0.00  0.00    +0.092 A 
ATOM      9  O   UNL     1       4.805  -0.683  25.546  0.00  0.00    -0.451 OA
ATOM     10  C   UNL     1       6.942  -3.471  26.601  0.00  0.00    +0.135 A 
ATOM     11  C   UNL     1       5.428   0.415  26.135  0.00  0.00    +0.181 A 
ENDROOT
BRANCH  11  12
ATOM     12  C   UNL     1       4.519   1.588  26.026  0.00  0.00    +0.025 A 
ATOM     13  C   UNL     1       4.554   2.374  24.859  0.00  0.00    +0.015 A 
ATOM     14  C   UNL     1       3.950   3.638  24.818  0.00  0.00    +0.050 A 
ATOM     15  C   UNL     1       3.304   4.124  25.942  0.00  0.00    +0.158 A 
ATOM     16  C   UNL     1       3.225   3.349  27.098  0.00  0.00    +0.159 A 
ATOM     17  C   UNL     1       3.834   2.091  27.154  0.00  0.00    +0.060 A 
BRANCH  16  18
ATOM     18  O   UNL     1       2.564   3.898  28.164  0.00  0.00    -0.503 OA
ATOM     19  H   UNL     1       1.799   3.337  28.374  0.00  0.00    +0.292 HD
ENDBRANCH  16  18
BRANCH  15  20
ATOM     20  O   UNL     1       2.772   5.383  25.918  0.00  0.00    -0.503 OA
ATOM     21  H   UNL     1       2.485   5.556  26.836  0.00  0.00    +0.292 HD
ENDBRANCH  15  20
ENDBRANCH  11  12
BRANCH  10  22
ATOM     22  O   UNL     1       8.182  -3.735  27.110  0.00  0.00    -0.506 OA
ATOM     23  H   UNL     1       8.266  -3.400  28.015  0.00  0.00    +0.292 HD
ENDBRANCH  10  22
BRANCH   7  24
ATOM     24  O   UNL     1       4.034  -5.450  25.661  0.00  0.00    -0.461 OA
BRANCH  24  25
ATOM     25  C   UNL     1       2.726  -5.333  25.078  0.00  0.00    +0.339 C 
ATOM     26  O   UNL     1       1.729  -6.159  25.688  0.00  0.00    -0.334 OA
ATOM     27  C   UNL     1       1.992  -7.567  25.594  0.00  0.00    +0.150 C 
ATOM     28  C   UNL     1       0.816  -8.264  26.280  0.00  0.00    +0.041 C 
ATOM     29  C   UNL     1       2.176  -8.062  24.139  0.00  0.00    +0.174 C 
ATOM     30  C   UNL     1       3.152  -7.168  23.360  0.00  0.00    +0.180 C 
ATOM     31  C   UNL     1       2.814  -5.677  23.566  0.00  0.00    +0.214 C 
BRANCH  31  32
ATOM     32  O   UNL     1       1.581  -5.366  22.904  0.00  0.00    -0.383 OA
ATOM     33  H   UNL     1       0.928  -5.141  23.605  0.00  0.00    +0.210 HD
ENDBRANCH  31  32
BRANCH  30  34
ATOM     34  O   UNL     1       4.489  -7.498  23.735  0.00  0.00    -0.386 OA
ATOM     35  H   UNL     1       5.099  -7.102  23.088  0.00  0.00    +0.210 HD
ENDBRANCH  30  34
BRANCH  29  36
ATOM     36  O   UNL     1       0.918  -8.064  23.432  0.00  0.00    -0.387 OA
ATOM     37  H   UNL     1       0.219  -7.856  24.075  0.00  0.00    +0.210 HD
ENDBRANCH  29  36
ENDBRANCH  24  25
ENDBRANCH   7  24
BRANCH   1  38
ATOM     38  O   UNL     1       7.153   1.433  27.471  0.00  0.00    -0.453 OA
BRANCH  38  40
ATOM     39  C   UNL     1       7.869   2.606  25.301  0.00  0.00    +0.221 C 
ATOM     40  C   UNL     1       7.568   2.676  26.848  0.00  0.00    +0.340 C 
ATOM     41  O   UNL     1       6.725   3.775  27.226  0.00  0.00    -0.331 OA
ATOM     42  C   UNL     1       7.196   5.054  26.790  0.00  0.00    +0.179 C 
ATOM     43  C   UNL     1       7.401   5.108  25.269  0.00  0.00    +0.177 C 
ATOM     44  C   UNL     1       8.357   4.001  24.862  0.00  0.00    +0.180 C 
BRANCH  44  45
ATOM     45  O   UNL     1       8.565   4.063  23.438  0.00  0.00    -0.386 OA
ATOM     46  H   UNL     1       9.536   4.031  23.325  0.00  0.00    +0.210 HD
ENDBRANCH  44  45
BRANCH  43  47
ATOM     47  O   UNL     1       7.967   6.373  24.879  0.00  0.00    -0.386 OA
ATOM     48  H   UNL     1       7.468   6.632  24.073  0.00  0.00    +0.210 HD
ENDBRANCH  43  47
BRANCH  42  49
ATOM     49  C   UNL     1       6.208   6.144  27.232  0.00  0.00    +0.190 C 
BRANCH  49  50
ATOM     50  O   UNL     1       5.501   6.704  26.126  0.00  0.00    -0.392 OA
ATOM     51  H   UNL     1       4.544   6.611  26.329  0.00  0.00    +0.210 HD
ENDBRANCH  49  50
ENDBRANCH  42  49
BRANCH  39  52
ATOM     52  O   UNL     1       8.956   1.767  24.860  0.00  0.00    -0.337 OA
BRANCH  52  56
ATOM     53  C   UNL     1       6.878  -1.187  22.658  0.00  0.00    +0.041 C 
ATOM     54  C   UNL     1       8.339  -1.303  23.077  0.00  0.00    +0.149 C 
ATOM     55  O   UNL     1       8.649  -0.352  24.102  0.00  0.00    -0.343 OA
ATOM     56  C   UNL     1       8.809   1.007  23.670  0.00  0.00    +0.282 C 
ATOM     57  C   UNL     1      10.007   1.069  22.699  0.00  0.00    +0.201 C 
ATOM     58  C   UNL     1       9.708   0.174  21.485  0.00  0.00    +0.179 C 
ATOM     59  C   UNL     1       9.354  -1.251  21.918  0.00  0.00    +0.174 C 
BRANCH  59  60
ATOM     60  O   UNL     1      10.570  -1.892  22.344  0.00  0.00    -0.387 OA
ATOM     61  H   UNL     1      10.382  -2.836  22.504  0.00  0.00    +0.210 HD
ENDBRANCH  59  60
BRANCH  58  62
ATOM     62  O   UNL     1       8.693   0.795  20.671  0.00  0.00    -0.386 OA
ATOM     63  H   UNL     1       8.189   0.125  20.182  0.00  0.00    +0.210 HD
ENDBRANCH  58  62
BRANCH  57  64
ATOM     64  O   UNL     1      10.277   2.378  22.209  0.00  0.00    -0.384 OA
ATOM     65  H   UNL     1       9.704   2.505  21.430  0.00  0.00    +0.210 HD
ENDBRANCH  57  64
ENDBRANCH  52  56
ENDBRANCH  39  52
ENDBRANCH  38  40
ENDBRANCH   1  38
TORSDOF 20
ENDMDL
MODEL 8
REMARK VINA RESULT:      -6.4      1.744      8.614
REMARK  Name = 
REMARK  22 active torsions:
REMARK  status: ('A' for Active; 'I' for Inactive)
REMARK    1  A    between atoms: C_1  and  C_2
REMARK    2  A    between atoms: C_4  and  O_68
REMARK    3  A    between atoms: C_6  and  O_67
REMARK    4  A    between atoms: C_8  and  O_66
REMARK    5  A    between atoms: C_10  and  O_13
REMARK    6  A    between atoms: O_13  and  C_14
REMARK    7  A    between atoms: C_16  and  O_65
REMARK    8  A    between atoms: C_18  and  O_64
REMARK    9  A    between atoms: C_20  and  C_62
REMARK   10  A    between atoms: C_23  and  O_25
REMARK   11  A    between atoms: O_25  and  C_26
REMARK   12  A    between atoms: C_27  and  C_54
REMARK   13  A    between atoms: C_31  and  O_38
REMARK   14  A    between atoms: C_33  and  O_37
REMARK   15  A    between atoms: O_38  and  C_39
REMARK   16  A    between atoms: C_41  and  O_53
REMARK   17  A    between atoms: C_43  and  O_52
REMARK   18  A    between atoms: C_45  and  O_51
REMARK   19  A    between atoms: C_47  and  C_50
REMARK   20  A    between atoms: C_56  and  O_61
REMARK   21  A    between atoms: C_57  and  O_60
REMARK   22  A    between atoms: C_62  and  O_63
REMARK                            x       y       z     vdW  Elec       q    Type
REMARK                         _______ _______ _______ _____ _____    ______ ____
ROOT
ATOM      1  C   UNL     1       6.279  -3.634  27.056  0.00  0.00    +0.214 A 
ATOM      2  C   UNL     1       7.648  -3.286  26.518  0.00  0.00    +0.238 A 
ATOM      3  O   UNL     1       8.511  -4.136  26.341  0.00  0.00    -0.283 OA
ATOM      4  C   UNL     1       7.882  -1.865  26.161  0.00  0.00    +0.109 A 
ATOM      5  C   UNL     1       6.993  -0.922  26.661  0.00  0.00    +0.147 A 
ATOM      6  C   UNL     1       7.114   0.446  26.335  0.00  0.00    +0.093 A 
ATOM      7  C   UNL     1       8.139   0.876  25.497  0.00  0.00    +0.131 A 
ATOM      8  C   UNL     1       9.045  -0.068  24.996  0.00  0.00    +0.092 A 
ATOM      9  O   UNL     1       5.970  -1.269  27.503  0.00  0.00    -0.451 OA
ATOM     10  C   UNL     1       8.919  -1.426  25.329  0.00  0.00    +0.135 A 
ATOM     11  C   UNL     1       5.554  -2.597  27.546  0.00  0.00    +0.181 A 
ENDROOT
BRANCH  11  12
ATOM     12  C   UNL     1       4.203  -2.650  28.167  0.00  0.00    +0.025 A 
ATOM     13  C   UNL     1       4.058  -3.236  29.439  0.00  0.00    +0.015 A 
ATOM     14  C   UNL     1       2.794  -3.578  29.939  0.00  0.00    +0.050 A 
ATOM     15  C   UNL     1       1.666  -3.333  29.175  0.00  0.00    +0.158 A 
ATOM     16  C   UNL     1       1.782  -2.720  27.927  0.00  0.00    +0.159 A 
ATOM     17  C   UNL     1       3.039  -2.385  27.413  0.00  0.00    +0.060 A 
BRANCH  16  18
ATOM     18  O   UNL     1       0.620  -2.507  27.236  0.00  0.00    -0.503 OA
ATOM     19  H   UNL     1       0.085  -3.318  27.276  0.00  0.00    +0.292 HD
ENDBRANCH  16  18
BRANCH  15  20
ATOM     20  O   UNL     1       0.443  -3.726  29.639  0.00  0.00    -0.503 OA
ATOM     21  H   UNL     1       0.635  -4.349  30.367  0.00  0.00    +0.292 HD
ENDBRANCH  15  20
ENDBRANCH  11  12
BRANCH  10  22
ATOM     22  O   UNL     1       9.820  -2.313  24.811  0.00  0.00    -0.506 OA
ATOM     23  H   UNL     1      10.016  -2.110  23.884  0.00  0.00    +0.292 HD
ENDBRANCH  10  22
BRANCH   7  24
ATOM     24  O   UNL     1       8.345   2.160  25.068  0.00  0.00    -0.461 OA
BRANCH  24  25
ATOM     25  C   UNL     1       8.659   2.395  23.686  0.00  0.00    +0.339 C 
ATOM     26  O   UNL     1       9.327   3.635  23.431  0.00  0.00    -0.334 OA
ATOM     27  C   UNL     1       8.563   4.798  23.784  0.00  0.00    +0.150 C 
ATOM     28  C   UNL     1       9.435   6.002  23.422  0.00  0.00    +0.041 C 
ATOM     29  C   UNL     1       7.184   4.863  23.083  0.00  0.00    +0.174 C 
ATOM     30  C   UNL     1       6.428   3.532  23.205  0.00  0.00    +0.180 C 
ATOM     31  C   UNL     1       7.349   2.345  22.854  0.00  0.00    +0.214 C 
BRANCH  31  32
ATOM     32  O   UNL     1       7.640   2.359  21.450  0.00  0.00    -0.383 OA
ATOM     33  H   UNL     1       7.231   3.174  21.081  0.00  0.00    +0.210 HD
ENDBRANCH  31  32
BRANCH  30  34
ATOM     34  O   UNL     1       5.859   3.435  24.511  0.00  0.00    -0.386 OA
ATOM     35  H   UNL     1       4.899   3.307  24.421  0.00  0.00    +0.210 HD
ENDBRANCH  30  34
BRANCH  29  36
ATOM     36  O   UNL     1       7.332   5.161  21.679  0.00  0.00    -0.387 OA
ATOM     37  H   UNL     1       7.085   6.092  21.549  0.00  0.00    +0.210 HD
ENDBRANCH  29  36
ENDBRANCH  24  25
ENDBRANCH   7  24
BRANCH   1  38
ATOM     38  O   UNL     1       5.752  -4.920  26.945  0.00  0.00    -0.453 OA
BRANCH  38  40
ATOM     39  C   UNL     1       3.866  -5.285  25.239  0.00  0.00    +0.221 C 
ATOM     40  C   UNL     1       4.335  -5.157  26.740  0.00  0.00    +0.340 C 
ATOM     41  O   UNL     1       3.835  -6.196  27.596  0.00  0.00    -0.331 OA
ATOM     42  C   UNL     1       2.412  -6.345  27.568  0.00  0.00    +0.179 C 
ATOM     43  C   UNL     1       1.882  -6.596  26.149  0.00  0.00    +0.177 C 
ATOM     44  C   UNL     1       2.335  -5.460  25.248  0.00  0.00    +0.180 C 
BRANCH  44  45
ATOM     45  O   UNL     1       1.822  -5.684  23.920  0.00  0.00    -0.386 OA
ATOM     46  H   UNL     1       1.428  -4.829  23.656  0.00  0.00    +0.210 HD
ENDBRANCH  44  45
BRANCH  43  47
ATOM     47  O   UNL     1       0.443  -6.642  26.146  0.00  0.00    -0.386 OA
ATOM     48  H   UNL     1       0.223  -7.541  25.816  0.00  0.00    +0.210 HD
ENDBRANCH  43  47
BRANCH  42  49
ATOM     49  C   UNL     1       1.998  -7.494  28.500  0.00  0.00    +0.190 C 
BRANCH  49  50
ATOM     50  O   UNL     1       1.460  -8.600  27.777  0.00  0.00    -0.392 OA
ATOM     51  H   UNL     1       0.916  -9.114  28.415  0.00  0.00    +0.210 HD
ENDBRANCH  49  50
ENDBRANCH  42  49
BRANCH  39  52
ATOM     52  O   UNL     1       4.022  -4.136  24.381  0.00  0.00    -0.337 OA
BRANCH  52  56
ATOM     53  C   UNL     1       6.027  -6.082  21.206  0.00  0.00    +0.041 C 
ATOM     54  C   UNL     1       6.683  -5.711  22.530  0.00  0.00    +0.149 C 
ATOM     55  O   UNL     1       5.692  -5.413  23.521  0.00  0.00    -0.343 OA
ATOM     56  C   UNL     1       5.048  -4.135  23.401  0.00  0.00    +0.282 C 
ATOM     57  C   UNL     1       6.119  -3.036  23.571  0.00  0.00    +0.201 C 
ATOM     58  C   UNL     1       7.169  -3.191  22.459  0.00  0.00    +0.179 C 
ATOM     59  C   UNL     1       7.754  -4.605  22.439  0.00  0.00    +0.174 C 
BRANCH  59  60
ATOM     60  O   UNL     1       8.638  -4.729  23.567  0.00  0.00    -0.387 OA
ATOM     61  H   UNL     1       8.578  -3.912  24.098  0.00  0.00    +0.210 HD
ENDBRANCH  59  60
BRANCH  58  62
ATOM     62  O   UNL     1       6.595  -2.789  21.200  0.00  0.00    -0.386 OA
ATOM     63  H   UNL     1       7.247  -2.872  20.485  0.00  0.00    +0.210 HD
ENDBRANCH  58  62
BRANCH  57  64
ATOM     64  O   UNL     1       5.598  -1.715  23.486  0.00  0.00    -0.384 OA
ATOM     65  H   UNL     1       5.393  -1.439  24.399  0.00  0.00    +0.210 HD
ENDBRANCH  57  64
ENDBRANCH  52  56
ENDBRANCH  39  52
ENDBRANCH  38  40
ENDBRANCH   1  38
TORSDOF 20
ENDMDL
MODEL 9
REMARK VINA RESULT:      -6.3      2.297      8.482
REMARK  Name = 
REMARK  22 active torsions:
REMARK  status: ('A' for Active; 'I' for Inactive)
REMARK    1  A    between atoms: C_1  and  C_2
REMARK    2  A    between atoms: C_4  and  O_68
REMARK    3  A    between atoms: C_6  and  O_67
REMARK    4  A    between atoms: C_8  and  O_66
REMARK    5  A    between atoms: C_10  and  O_13
REMARK    6  A    between atoms: O_13  and  C_14
REMARK    7  A    between atoms: C_16  and  O_65
REMARK    8  A    between atoms: C_18  and  O_64
REMARK    9  A    between atoms: C_20  and  C_62
REMARK   10  A    between atoms: C_23  and  O_25
REMARK   11  A    between atoms: O_25  and  C_26
REMARK   12  A    between atoms: C_27  and  C_54
REMARK   13  A    between atoms: C_31  and  O_38
REMARK   14  A    between atoms: C_33  and  O_37
REMARK   15  A    between atoms: O_38  and  C_39
REMARK   16  A    between atoms: C_41  and  O_53
REMARK   17  A    between atoms: C_43  and  O_52
REMARK   18  A    between atoms: C_45  and  O_51
REMARK   19  A    between atoms: C_47  and  C_50
REMARK   20  A    between atoms: C_56  and  O_61
REMARK   21  A    between atoms: C_57  and  O_60
REMARK   22  A    between atoms: C_62  and  O_63
REMARK                            x       y       z     vdW  Elec       q    Type
REMARK                         _______ _______ _______ _____ _____    ______ ____
ROOT
ATOM      1  C   UNL     1       5.595  -1.394  27.100  0.00  0.00    +0.214 A 
ATOM      2  C   UNL     1       6.306  -0.074  27.291  0.00  0.00    +0.238 A 
ATOM      3  O   UNL     1       7.370   0.010  27.891  0.00  0.00    -0.283 OA
ATOM      4  C   UNL     1       5.678   1.119  26.670  0.00  0.00    +0.109 A 
ATOM      5  C   UNL     1       4.349   1.014  26.278  0.00  0.00    +0.147 A 
ATOM      6  C   UNL     1       3.687   2.082  25.637  0.00  0.00    +0.093 A 
ATOM      7  C   UNL     1       4.362   3.272  25.385  0.00  0.00    +0.131 A 
ATOM      8  C   UNL     1       5.700   3.389  25.785  0.00  0.00    +0.092 A 
ATOM      9  O   UNL     1       3.616  -0.120  26.507  0.00  0.00    -0.451 OA
ATOM     10  C   UNL     1       6.351   2.321  26.426  0.00  0.00    +0.135 A 
ATOM     11  C   UNL     1       4.285  -1.316  26.757  0.00  0.00    +0.181 A 
ENDROOT
BRANCH  11  12
ATOM     12  C   UNL     1       3.337  -2.442  26.543  0.00  0.00    +0.025 A 
ATOM     13  C   UNL     1       2.809  -3.114  27.662  0.00  0.00    +0.015 A 
ATOM     14  C   UNL     1       2.158  -4.348  27.525  0.00  0.00    +0.050 A 
ATOM     15  C   UNL     1       2.026  -4.917  26.271  0.00  0.00    +0.158 A 
ATOM     16  C   UNL     1       2.508  -4.253  25.143  0.00  0.00    +0.159 A 
ATOM     17  C   UNL     1       3.170  -3.027  25.268  0.00  0.00    +0.060 A 
BRANCH  16  18
ATOM     18  O   UNL     1       2.333  -4.879  23.938  0.00  0.00    -0.503 OA
ATOM     19  H   UNL     1       3.206  -5.133  23.593  0.00  0.00    +0.292 HD
ENDBRANCH  16  18
BRANCH  15  20
ATOM     20  O   UNL     1       1.447  -6.149  26.151  0.00  0.00    -0.503 OA
ATOM     21  H   UNL     1       0.981  -6.296  26.998  0.00  0.00    +0.292 HD
ENDBRANCH  15  20
ENDBRANCH  11  12
BRANCH  10  22
ATOM     22  O   UNL     1       7.658   2.476  26.791  0.00  0.00    -0.506 OA
ATOM     23  H   UNL     1       8.201   1.746  26.459  0.00  0.00    +0.292 HD
ENDBRANCH  10  22
BRANCH   7  24
ATOM     24  O   UNL     1       3.856   4.367  24.737  0.00  0.00    -0.461 OA
BRANCH  24  25
ATOM     25  C   UNL     1       3.913   4.421  23.302  0.00  0.00    +0.339 C 
ATOM     26  O   UNL     1       5.182   4.066  22.745  0.00  0.00    -0.334 OA
ATOM     27  C   UNL     1       6.259   4.930  23.136  0.00  0.00    +0.150 C 
ATOM     28  C   UNL     1       7.507   4.398  22.429  0.00  0.00    +0.041 C 
ATOM     29  C   UNL     1       6.005   6.420  22.798  0.00  0.00    +0.174 C 
ATOM     30  C   UNL     1       4.613   6.872  23.261  0.00  0.00    +0.180 C 
ATOM     31  C   UNL     1       3.536   5.853  22.835  0.00  0.00    +0.214 C 
BRANCH  31  32
ATOM     32  O   UNL     1       3.370   5.893  21.411  0.00  0.00    -0.383 OA
ATOM     33  H   UNL     1       3.884   6.665  21.084  0.00  0.00    +0.210 HD
ENDBRANCH  31  32
BRANCH  30  34
ATOM     34  O   UNL     1       4.640   7.105  24.669  0.00  0.00    -0.386 OA
ATOM     35  H   UNL     1       3.973   6.535  25.090  0.00  0.00    +0.210 HD
ENDBRANCH  30  34
BRANCH  29  36
ATOM     36  O   UNL     1       6.095   6.648  21.376  0.00  0.00    -0.387 OA
ATOM     37  H   UNL     1       5.380   6.143  20.952  0.00  0.00    +0.210 HD
ENDBRANCH  29  36
ENDBRANCH  24  25
ENDBRANCH   7  24
BRANCH   1  38
ATOM     38  O   UNL     1       6.277  -2.609  27.157  0.00  0.00    -0.453 OA
BRANCH  38  40
ATOM     39  C   UNL     1       8.366  -3.418  25.900  0.00  0.00    +0.221 C 
ATOM     40  C   UNL     1       6.798  -3.256  25.967  0.00  0.00    +0.340 C 
ATOM     41  O   UNL     1       6.076  -4.455  25.647  0.00  0.00    -0.331 OA
ATOM     42  C   UNL     1       6.426  -5.032  24.385  0.00  0.00    +0.179 C 
ATOM     43  C   UNL     1       7.927  -5.335  24.283  0.00  0.00    +0.177 C 
ATOM     44  C   UNL     1       8.706  -4.056  24.539  0.00  0.00    +0.180 C 
BRANCH  44  45
ATOM     45  O   UNL     1      10.114  -4.335  24.425  0.00  0.00    -0.386 OA
ATOM     46  H   UNL     1      10.404  -3.842  23.630  0.00  0.00    +0.210 HD
ENDBRANCH  44  45
BRANCH  43  47
ATOM     47  O   UNL     1       8.259  -5.821  22.969  0.00  0.00    -0.386 OA
ATOM     48  H   UNL     1       8.111  -5.053  22.375  0.00  0.00    +0.210 HD
ENDBRANCH  43  47
BRANCH  42  49
ATOM     49  C   UNL     1       5.609  -6.314  24.162  0.00  0.00    +0.190 C 
BRANCH  49  50
ATOM     50  O   UNL     1       5.308  -6.522  22.783  0.00  0.00    -0.392 OA
ATOM     51  H   UNL     1       4.806  -5.731  22.483  0.00  0.00    +0.210 HD
ENDBRANCH  49  50
ENDBRANCH  42  49
BRANCH  39  52
ATOM     52  O   UNL     1       9.169  -2.221  25.868  0.00  0.00    -0.337 OA
BRANCH  52  56
ATOM     53  C   UNL     1       6.403  -0.449  23.204  0.00  0.00    +0.041 C 
ATOM     54  C   UNL     1       7.747  -1.027  22.779  0.00  0.00    +0.149 C 
ATOM     55  O   UNL     1       8.282  -1.870  23.806  0.00  0.00    -0.343 OA
ATOM     56  C   UNL     1       8.852  -1.196  24.938  0.00  0.00    +0.282 C 
ATOM     57  C   UNL     1      10.052  -0.358  24.449  0.00  0.00    +0.201 C 
ATOM     58  C   UNL     1       9.551   0.678  23.430  0.00  0.00    +0.179 C 
ATOM     59  C   UNL     1       8.777   0.010  22.291  0.00  0.00    +0.174 C 
BRANCH  59  60
ATOM     60  O   UNL     1       9.732  -0.655  21.446  0.00  0.00    -0.387 OA
ATOM     61  H   UNL     1      10.627  -0.482  21.794  0.00  0.00    +0.210 HD
ENDBRANCH  59  60
BRANCH  58  62
ATOM     62  O   UNL     1       8.797   1.697  24.116  0.00  0.00    -0.386 OA
ATOM     63  H   UNL     1       9.390   2.305  24.585  0.00  0.00    +0.210 HD
ENDBRANCH  58  62
BRANCH  57  64
ATOM     64  O   UNL     1      10.714   0.352  25.490  0.00  0.00    -0.384 OA
ATOM     65  H   UNL     1      11.449   0.837  25.070  0.00  0.00    +0.210 HD
ENDBRANCH  57  64
ENDBRANCH  52  56
ENDBRANCH  39  52
ENDBRANCH  38  40
ENDBRANCH   1  38
TORSDOF 20
ENDMDL
