MODEL 1
REMARK VINA RESULT:      -6.6      0.000      0.000
REMARK  Name = 
REMARK  11 active torsions:
REMARK  status: ('A' for Active; 'I' for Inactive)
REMARK    1  A    between atoms: C_4  and  O_37
REMARK    2  A    between atoms: C_6  and  C_7
REMARK    3  A    between atoms: C_8  and  O_20
REMARK    4  A    between atoms: C_12  and  O_19
REMARK    5  A    between atoms: C_14  and  O_18
REMARK    6  A    between atoms: O_20  and  C_21
REMARK    7  A    between atoms: C_23  and  O_36
REMARK    8  A    between atoms: C_25  and  O_35
REMARK    9  A    between atoms: C_27  and  O_34
REMARK   10  A    between atoms: C_29  and  C_32
REMARK   11  A    between atoms: C_32  and  O_33
REMARK                            x       y       z     vdW  Elec       q    Type
REMARK                         _______ _______ _______ _____ _____    ______ ____
ROOT
ATOM      1  C   UNL     1       6.224  -1.956  25.547  0.00  0.00    +0.181 A 
ATOM      2  O   UNL     1       4.999  -2.215  26.166  0.00  0.00    -0.451 OA
ATOM      3  C   UNL     1       4.550  -1.398  27.156  0.00  0.00    +0.147 A 
ATOM      4  C   UNL     1       5.356  -0.446  27.760  0.00  0.00    +0.109 A 
ATOM      5  C   UNL     1       4.868   0.266  28.860  0.00  0.00    +0.135 A 
ATOM      6  C   UNL     1       3.557   0.065  29.314  0.00  0.00    +0.091 A 
ATOM      7  C   UNL     1       2.741  -0.849  28.653  0.00  0.00    +0.124 A 
ATOM      8  C   UNL     1       6.689  -0.204  27.168  0.00  0.00    +0.238 A 
ATOM      9  O   UNL     1       7.445   0.597  27.704  0.00  0.00    -0.283 OA
ATOM     10  C   UNL     1       3.232  -1.588  27.584  0.00  0.00    +0.092 A 
ATOM     11  C   UNL     1       7.035  -0.931  25.900  0.00  0.00    +0.214 A 
ENDROOT
BRANCH   1  13
ATOM     12  C   UNL     1       7.354  -4.015  24.666  0.00  0.00    +0.011 A 
ATOM     13  C   UNL     1       6.480  -2.937  24.454  0.00  0.00    +0.024 A 
ATOM     14  C   UNL     1       5.940  -2.809  23.173  0.00  0.00    +0.056 A 
ATOM     15  C   UNL     1       6.217  -3.771  22.201  0.00  0.00    +0.110 A 
ATOM     16  C   UNL     1       7.088  -4.860  22.370  0.00  0.00    -0.066 A 
ATOM     17  O   UNL     1       7.328  -5.698  21.434  0.00  0.00    -0.871 OA
ATOM     18  C   UNL     1       7.659  -4.934  23.645  0.00  0.00    -0.004 A 
BRANCH  15  19
ATOM     19  O   UNL     1       5.594  -3.666  20.978  0.00  0.00    -0.507 OA
ATOM     20  H   UNL     1       6.406  -3.641  20.414  0.00  0.00    +0.292 HD
ENDBRANCH  15  19
ENDBRANCH   1  13
BRANCH   5  21
ATOM     21  O   UNL     1       5.617   1.173  29.558  0.00  0.00    -0.506 OA
ATOM     22  H   UNL     1       5.743   0.820  30.467  0.00  0.00    +0.292 HD
ENDBRANCH   5  21
BRANCH   7  23
ATOM     23  O   UNL     1       1.449  -1.060  29.032  0.00  0.00    -0.507 OA
ATOM     24  H   UNL     1       0.865  -0.499  28.497  0.00  0.00    +0.292 HD
ENDBRANCH   7  23
BRANCH  11  25
ATOM     25  O   UNL     1       8.187  -0.512  25.210  0.00  0.00    -0.453 OA
BRANCH  25  26
ATOM     26  C   UNL     1       7.901   0.505  24.223  0.00  0.00    +0.340 C 
ATOM     27  O   UNL     1       7.832   0.004  22.886  0.00  0.00    -0.331 OA
ATOM     28  C   UNL     1       8.949  -0.016  21.990  0.00  0.00    +0.179 C 
ATOM     29  C   UNL     1      10.069   1.009  22.258  0.00  0.00    +0.177 C 
ATOM     30  C   UNL     1      10.232   1.301  23.752  0.00  0.00    +0.180 C 
ATOM     31  C   UNL     1       8.874   1.684  24.354  0.00  0.00    +0.214 C 
BRANCH  29  32
ATOM     32  O   UNL     1       9.793   2.229  21.544  0.00  0.00    -0.386 OA
ATOM     33  H   UNL     1      10.601   2.457  21.037  0.00  0.00    +0.210 HD
ENDBRANCH  29  32
BRANCH  30  34
ATOM     34  O   UNL     1      10.861   0.202  24.414  0.00  0.00    -0.386 OA
ATOM     35  H   UNL     1      11.269   0.506  25.249  0.00  0.00    +0.210 HD
ENDBRANCH  30  34
BRANCH  31  36
ATOM     36  O   UNL     1       8.360   2.848  23.667  0.00  0.00    -0.383 OA
ATOM     37  H   UNL     1       7.435   2.992  23.949  0.00  0.00    +0.210 HD
ENDBRANCH  31  36
BRANCH  28  38
ATOM     38  C   UNL     1       9.483  -1.452  21.809  0.00  0.00    +0.190 C 
BRANCH  38  39
ATOM     39  O   UNL     1       9.710  -2.108  23.059  0.00  0.00    -0.392 OA
ATOM     40  H   UNL     1      10.257  -2.896  22.905  0.00  0.00    +0.210 HD
ENDBRANCH  38  39
ENDBRANCH  28  38
ENDBRANCH  25  26
ENDBRANCH  11  25
TORSDOF 11
ENDMDL
MODEL 2
REMARK VINA RESULT:      -6.5      2.671      7.113
REMARK  Name = 
REMARK  11 active torsions:
REMARK  status: ('A' for Active; 'I' for Inactive)
REMARK    1  A    between atoms: C_4  and  O_37
REMARK    2  A    between atoms: C_6  and  C_7
REMARK    3  A    between atoms: C_8  and  O_20
REMARK    4  A    between atoms: C_12  and  O_19
REMARK    5  A    between atoms: C_14  and  O_18
REMARK    6  A    between atoms: O_20  and  C_21
REMARK    7  A    between atoms: C_23  and  O_36
REMARK    8  A    between atoms: C_25  and  O_35
REMARK    9  A    between atoms: C_27  and  O_34
REMARK   10  A    between atoms: C_29  and  C_32
REMARK   11  A    between atoms: C_32  and  O_33
REMARK                            x       y       z     vdW  Elec       q    Type
REMARK                         _______ _______ _______ _____ _____    ______ ____
ROOT
ATOM      1  C   UNL     1       9.132   1.818  23.872  0.00  0.00    +0.181 A 
ATOM      2  O   UNL     1      10.367   2.202  23.347  0.00  0.00    -0.451 OA
ATOM      3  C   UNL     1      10.843   3.457  23.571  0.00  0.00    +0.147 A 
ATOM      4  C   UNL     1      10.057   4.468  24.098  0.00  0.00    +0.109 A 
ATOM      5  C   UNL     1      10.572   5.766  24.178  0.00  0.00    +0.135 A 
ATOM      6  C   UNL     1      11.891   6.034  23.785  0.00  0.00    +0.091 A 
ATOM      7  C   UNL     1      12.686   4.991  23.319  0.00  0.00    +0.124 A 
ATOM      8  C   UNL     1       8.713   4.102  24.595  0.00  0.00    +0.238 A 
ATOM      9  O   UNL     1       7.973   4.980  25.025  0.00  0.00    -0.283 OA
ATOM     10  C   UNL     1      12.169   3.707  23.201  0.00  0.00    +0.092 A 
ATOM     11  C   UNL     1       8.336   2.648  24.587  0.00  0.00    +0.214 A 
ENDROOT
BRANCH   1  13
ATOM     12  C   UNL     1       7.639   0.034  22.935  0.00  0.00    +0.011 A 
ATOM     13  C   UNL     1       8.847   0.390  23.557  0.00  0.00    +0.024 A 
ATOM     14  C   UNL     1       9.702  -0.655  23.912  0.00  0.00    +0.056 A 
ATOM     15  C   UNL     1       9.374  -1.969  23.576  0.00  0.00    +0.110 A 
ATOM     16  C   UNL     1       8.175  -2.369  22.960  0.00  0.00    -0.066 A 
ATOM     17  O   UNL     1       7.913  -3.593  22.700  0.00  0.00    -0.871 OA
ATOM     18  C   UNL     1       7.311  -1.308  22.665  0.00  0.00    -0.004 A 
BRANCH  15  19
ATOM     19  O   UNL     1      10.282  -2.964  23.855  0.00  0.00    -0.507 OA
ATOM     20  H   UNL     1      11.105  -2.468  23.622  0.00  0.00    +0.292 HD
ENDBRANCH  15  19
ENDBRANCH   1  13
BRANCH   5  21
ATOM     21  O   UNL     1       9.844   6.836  24.620  0.00  0.00    -0.506 OA
ATOM     22  H   UNL     1       8.893   6.591  24.571  0.00  0.00    +0.292 HD
ENDBRANCH   5  21
BRANCH   7  23
ATOM     23  O   UNL     1      13.984   5.188  22.954  0.00  0.00    -0.507 OA
ATOM     24  H   UNL     1      14.062   5.087  21.990  0.00  0.00    +0.292 HD
ENDBRANCH   7  23
BRANCH  11  25
ATOM     25  O   UNL     1       7.173   2.279  25.286  0.00  0.00    -0.453 OA
BRANCH  25  26
ATOM     26  C   UNL     1       7.455   1.834  26.632  0.00  0.00    +0.340 C 
ATOM     27  O   UNL     1       7.061   0.484  26.885  0.00  0.00    -0.331 OA
ATOM     28  C   UNL     1       5.790   0.119  27.435  0.00  0.00    +0.179 C 
ATOM     29  C   UNL     1       5.072   1.189  28.281  0.00  0.00    +0.177 C 
ATOM     30  C   UNL     1       5.362   2.606  27.779  0.00  0.00    +0.180 C 
ATOM     31  C   UNL     1       6.878   2.812  27.665  0.00  0.00    +0.214 C 
BRANCH  29  32
ATOM     32  O   UNL     1       5.463   1.064  29.661  0.00  0.00    -0.386 OA
ATOM     33  H   UNL     1       4.803   0.486  30.098  0.00  0.00    +0.210 HD
ENDBRANCH  29  32
BRANCH  30  34
ATOM     34  O   UNL     1       4.658   2.864  26.563  0.00  0.00    -0.386 OA
ATOM     35  H   UNL     1       4.552   3.828  26.437  0.00  0.00    +0.210 HD
ENDBRANCH  30  34
BRANCH  31  36
ATOM     36  O   UNL     1       7.486   2.601  28.961  0.00  0.00    -0.383 OA
ATOM     37  H   UNL     1       6.788   2.656  29.643  0.00  0.00    +0.210 HD
ENDBRANCH  31  36
BRANCH  28  38
ATOM     38  C   UNL     1       4.880  -0.502  26.356  0.00  0.00    +0.190 C 
BRANCH  38  39
ATOM     39  O   UNL     1       4.897   0.246  25.137  0.00  0.00    -0.392 OA
ATOM     40  H   UNL     1       5.814   0.491  24.932  0.00  0.00    +0.210 HD
ENDBRANCH  38  39
ENDBRANCH  28  38
ENDBRANCH  25  26
ENDBRANCH  11  25
TORSDOF 11
ENDMDL
MODEL 3
REMARK VINA RESULT:      -6.3      2.016      7.289
REMARK  Name = 
REMARK  11 active torsions:
REMARK  status: ('A' for Active; 'I' for Inactive)
REMARK    1  A    between atoms: C_4  and  O_37
REMARK    2  A    between atoms: C_6  and  C_7
REMARK    3  A    between atoms: C_8  and  O_20
REMARK    4  A    between atoms: C_12  and  O_19
REMARK    5  A    between atoms: C_14  and  O_18
REMARK    6  A    between atoms: O_20  and  C_21
REMARK    7  A    between atoms: C_23  and  O_36
REMARK    8  A    between atoms: C_25  and  O_35
REMARK    9  A    between atoms: C_27  and  O_34
REMARK   10  A    between atoms: C_29  and  C_32
REMARK   11  A    between atoms: C_32  and  O_33
REMARK                            x       y       z     vdW  Elec       q    Type
REMARK                         _______ _______ _______ _____ _____    ______ ____
ROOT
ATOM      1  C   UNL     1       6.331  -0.748  24.880  0.00  0.00    +0.181 A 
ATOM      2  O   UNL     1       7.170   0.367  24.917  0.00  0.00    -0.451 OA
ATOM      3  C   UNL     1       8.039   0.602  23.897  0.00  0.00    +0.147 A 
ATOM      4  C   UNL     1       8.313  -0.342  22.921  0.00  0.00    +0.109 A 
ATOM      5  C   UNL     1       9.315  -0.083  21.980  0.00  0.00    +0.135 A 
ATOM      6  C   UNL     1       9.996   1.143  21.984  0.00  0.00    +0.091 A 
ATOM      7  C   UNL     1       9.661   2.104  22.933  0.00  0.00    +0.124 A 
ATOM      8  C   UNL     1       7.487  -1.568  22.903  0.00  0.00    +0.238 A 
ATOM      9  O   UNL     1       7.733  -2.444  22.082  0.00  0.00    -0.283 OA
ATOM     10  C   UNL     1       8.693   1.838  23.895  0.00  0.00    +0.092 A 
ATOM     11  C   UNL     1       6.348  -1.658  23.878  0.00  0.00    +0.214 A 
ENDROOT
BRANCH   1  13
ATOM     12  C   UNL     1       4.615   0.345  26.347  0.00  0.00    +0.011 A 
ATOM     13  C   UNL     1       5.426  -0.766  26.063  0.00  0.00    +0.024 A 
ATOM     14  C   UNL     1       5.381  -1.825  26.972  0.00  0.00    +0.056 A 
ATOM     15  C   UNL     1       4.501  -1.777  28.054  0.00  0.00    +0.110 A 
ATOM     16  C   UNL     1       3.678  -0.685  28.377  0.00  0.00    -0.066 A 
ATOM     17  O   UNL     1       2.910  -0.684  29.399  0.00  0.00    -0.871 OA
ATOM     18  C   UNL     1       3.783   0.385  27.481  0.00  0.00    -0.004 A 
BRANCH  15  19
ATOM     19  O   UNL     1       4.413  -2.876  28.877  0.00  0.00    -0.507 OA
ATOM     20  H   UNL     1       3.990  -3.496  28.233  0.00  0.00    +0.292 HD
ENDBRANCH  15  19
ENDBRANCH   1  13
BRANCH   5  21
ATOM     21  O   UNL     1       9.697  -0.983  21.025  0.00  0.00    -0.506 OA
ATOM     22  H   UNL     1      10.416  -0.570  20.495  0.00  0.00    +0.292 HD
ENDBRANCH   5  21
BRANCH   7  23
ATOM     23  O   UNL     1      10.268   3.323  22.963  0.00  0.00    -0.507 OA
ATOM     24  H   UNL     1       9.836   3.910  22.320  0.00  0.00    +0.292 HD
ENDBRANCH   7  23
BRANCH  11  25
ATOM     25  O   UNL     1       5.420  -2.699  23.691  0.00  0.00    -0.453 OA
BRANCH  25  26
ATOM     26  C   UNL     1       5.788  -3.902  24.404  0.00  0.00    +0.340 C 
ATOM     27  O   UNL     1       6.568  -4.814  23.628  0.00  0.00    -0.331 OA
ATOM     28  C   UNL     1       6.006  -5.889  22.867  0.00  0.00    +0.179 C 
ATOM     29  C   UNL     1       4.633  -6.416  23.329  0.00  0.00    +0.177 C 
ATOM     30  C   UNL     1       3.765  -5.307  23.930  0.00  0.00    +0.180 C 
ATOM     31  C   UNL     1       4.553  -4.571  25.022  0.00  0.00    +0.214 C 
BRANCH  29  32
ATOM     32  O   UNL     1       4.814  -7.475  24.288  0.00  0.00    -0.386 OA
ATOM     33  H   UNL     1       5.756  -7.461  24.560  0.00  0.00    +0.210 HD
ENDBRANCH  29  32
BRANCH  30  34
ATOM     34  O   UNL     1       3.269  -4.445  22.905  0.00  0.00    -0.386 OA
ATOM     35  H   UNL     1       3.558  -4.770  22.029  0.00  0.00    +0.210 HD
ENDBRANCH  30  34
BRANCH  31  36
ATOM     36  O   UNL     1       4.944  -5.516  26.045  0.00  0.00    -0.383 OA
ATOM     37  H   UNL     1       4.622  -5.189  26.909  0.00  0.00    +0.210 HD
ENDBRANCH  31  36
BRANCH  28  38
ATOM     38  C   UNL     1       6.051  -5.579  21.358  0.00  0.00    +0.190 C 
BRANCH  38  39
ATOM     39  O   UNL     1       5.679  -4.228  21.070  0.00  0.00    -0.392 OA
ATOM     40  H   UNL     1       5.528  -4.141  20.115  0.00  0.00    +0.210 HD
ENDBRANCH  38  39
ENDBRANCH  28  38
ENDBRANCH  25  26
ENDBRANCH  11  25
TORSDOF 11
ENDMDL
MODEL 4
REMARK VINA RESULT:      -6.3      1.818      6.299
REMARK  Name = 
REMARK  11 active torsions:
REMARK  status: ('A' for Active; 'I' for Inactive)
REMARK    1  A    between atoms: C_4  and  O_37
REMARK    2  A    between atoms: C_6  and  C_7
REMARK    3  A    between atoms: C_8  and  O_20
REMARK    4  A    between atoms: C_12  and  O_19
REMARK    5  A    between atoms: C_14  and  O_18
REMARK    6  A    between atoms: O_20  and  C_21
REMARK    7  A    between atoms: C_23  and  O_36
REMARK    8  A    between atoms: C_25  and  O_35
REMARK    9  A    between atoms: C_27  and  O_34
REMARK   10  A    between atoms: C_29  and  C_32
REMARK   11  A    between atoms: C_32  and  O_33
REMARK                            x       y       z     vdW  Elec       q    Type
REMARK                         _______ _______ _______ _____ _____    ______ ____
ROOT
ATOM      1  C   UNL     1       7.943  -1.605  24.144  0.00  0.00    +0.181 A 
ATOM      2  O   UNL     1       7.880  -2.418  23.011  0.00  0.00    -0.451 OA
ATOM      3  C   UNL     1       7.136  -3.558  23.030  0.00  0.00    +0.147 A 
ATOM      4  C   UNL     1       6.619  -4.090  24.200  0.00  0.00    +0.109 A 
ATOM      5  C   UNL     1       5.978  -5.332  24.162  0.00  0.00    +0.135 A 
ATOM      6  C   UNL     1       5.805  -6.008  22.945  0.00  0.00    +0.091 A 
ATOM      7  C   UNL     1       6.275  -5.425  21.772  0.00  0.00    +0.124 A 
ATOM      8  C   UNL     1       6.737  -3.280  25.431  0.00  0.00    +0.238 A 
ATOM      9  O   UNL     1       6.332  -3.740  26.492  0.00  0.00    -0.283 OA
ATOM     10  C   UNL     1       6.946  -4.209  21.807  0.00  0.00    +0.092 A 
ATOM     11  C   UNL     1       7.317  -1.900  25.308  0.00  0.00    +0.214 A 
ENDROOT
BRANCH   1  13
ATOM     12  C   UNL     1       9.806  -0.035  24.738  0.00  0.00    +0.011 A 
ATOM     13  C   UNL     1       8.758  -0.387  23.873  0.00  0.00    +0.024 A 
ATOM     14  C   UNL     1       8.493   0.489  22.819  0.00  0.00    +0.056 A 
ATOM     15  C   UNL     1       9.304   1.607  22.621  0.00  0.00    +0.110 A 
ATOM     16  C   UNL     1      10.358   1.998  23.465  0.00  0.00    -0.066 A 
ATOM     17  O   UNL     1      11.053   3.050  23.251  0.00  0.00    -0.871 OA
ATOM     18  C   UNL     1      10.567   1.133  24.544  0.00  0.00    -0.004 A 
BRANCH  15  19
ATOM     19  O   UNL     1       9.075   2.398  21.519  0.00  0.00    -0.507 OA
ATOM     20  H   UNL     1       9.370   1.755  20.827  0.00  0.00    +0.292 HD
ENDBRANCH  15  19
ENDBRANCH   1  13
BRANCH   5  21
ATOM     21  O   UNL     1       5.498  -5.962  25.276  0.00  0.00    -0.506 OA
ATOM     22  H   UNL     1       6.217  -6.534  25.629  0.00  0.00    +0.292 HD
ENDBRANCH   5  21
BRANCH   7  23
ATOM     23  O   UNL     1       6.106  -6.023  20.559  0.00  0.00    -0.507 OA
ATOM     24  H   UNL     1       6.744  -6.750  20.471  0.00  0.00    +0.292 HD
ENDBRANCH   7  23
BRANCH  11  25
ATOM     25  O   UNL     1       7.196  -1.048  26.420  0.00  0.00    -0.453 OA
BRANCH  25  26
ATOM     26  C   UNL     1       5.882  -0.453  26.520  0.00  0.00    +0.340 C 
ATOM     27  O   UNL     1       5.713   0.708  25.705  0.00  0.00    -0.331 OA
ATOM     28  C   UNL     1       5.938   2.044  26.172  0.00  0.00    +0.179 C 
ATOM     29  C   UNL     1       5.810   2.275  27.691  0.00  0.00    +0.177 C 
ATOM     30  C   UNL     1       6.248   1.048  28.496  0.00  0.00    +0.180 C 
ATOM     31  C   UNL     1       5.508  -0.195  27.986  0.00  0.00    +0.214 C 
BRANCH  29  32
ATOM     32  O   UNL     1       4.450   2.620  28.018  0.00  0.00    -0.386 OA
ATOM     33  H   UNL     1       3.958   1.779  28.134  0.00  0.00    +0.210 HD
ENDBRANCH  29  32
BRANCH  30  34
ATOM     34  O   UNL     1       7.671   0.915  28.474  0.00  0.00    -0.386 OA
ATOM     35  H   UNL     1       7.916   0.025  28.151  0.00  0.00    +0.210 HD
ENDBRANCH  30  34
BRANCH  31  36
ATOM     36  O   UNL     1       4.082   0.012  28.120  0.00  0.00    -0.383 OA
ATOM     37  H   UNL     1       3.632  -0.850  28.018  0.00  0.00    +0.210 HD
ENDBRANCH  31  36
BRANCH  28  38
ATOM     38  C   UNL     1       7.244   2.618  25.587  0.00  0.00    +0.190 C 
BRANCH  38  39
ATOM     39  O   UNL     1       7.993   3.357  26.556  0.00  0.00    -0.392 OA
ATOM     40  H   UNL     1       8.248   4.211  26.171  0.00  0.00    +0.210 HD
ENDBRANCH  38  39
ENDBRANCH  28  38
ENDBRANCH  25  26
ENDBRANCH  11  25
TORSDOF 11
ENDMDL
MODEL 5
REMARK VINA RESULT:      -6.2      2.305      6.375
REMARK  Name = 
REMARK  11 active torsions:
REMARK  status: ('A' for Active; 'I' for Inactive)
REMARK    1  A    between atoms: C_4  and  O_37
REMARK    2  A    between atoms: C_6  and  C_7
REMARK    3  A    between atoms: C_8  and  O_20
REMARK    4  A    between atoms: C_12  and  O_19
REMARK    5  A    between atoms: C_14  and  O_18
REMARK    6  A    between atoms: O_20  and  C_21
REMARK    7  A    between atoms: C_23  and  O_36
REMARK    8  A    between atoms: C_25  and  O_35
REMARK    9  A    between atoms: C_27  and  O_34
REMARK   10  A    between atoms: C_29  and  C_32
REMARK   11  A    between atoms: C_32  and  O_33
REMARK                            x       y       z     vdW  Elec       q    Type
REMARK                         _______ _______ _______ _____ _____    ______ ____
ROOT
ATOM      1  C   UNL     1       6.833  -0.332  26.035  0.00  0.00    +0.181 A 
ATOM      2  O   UNL     1       7.071  -1.594  26.584  0.00  0.00    -0.451 OA
ATOM      3  C   UNL     1       7.490  -2.616  25.789  0.00  0.00    +0.147 A 
ATOM      4  C   UNL     1       7.467  -2.540  24.406  0.00  0.00    +0.109 A 
ATOM      5  C   UNL     1       7.786  -3.674  23.653  0.00  0.00    +0.135 A 
ATOM      6  C   UNL     1       8.184  -4.861  24.287  0.00  0.00    +0.091 A 
ATOM      7  C   UNL     1       8.263  -4.896  25.676  0.00  0.00    +0.124 A 
ATOM      8  C   UNL     1       7.145  -1.232  23.797  0.00  0.00    +0.238 A 
ATOM      9  O   UNL     1       7.071  -1.141  22.577  0.00  0.00    -0.283 OA
ATOM     10  C   UNL     1       7.910  -3.785  26.431  0.00  0.00    +0.092 A 
ATOM     11  C   UNL     1       6.966  -0.057  24.716  0.00  0.00    +0.214 A 
ENDROOT
BRANCH   1  13
ATOM     12  C   UNL     1       5.107   1.030  27.242  0.00  0.00    +0.011 A 
ATOM     13  C   UNL     1       6.448   0.640  27.097  0.00  0.00    +0.024 A 
ATOM     14  C   UNL     1       7.376   1.258  27.937  0.00  0.00    +0.056 A 
ATOM     15  C   UNL     1       6.942   2.154  28.915  0.00  0.00    +0.110 A 
ATOM     16  C   UNL     1       5.612   2.574  29.091  0.00  0.00    -0.066 A 
ATOM     17  O   UNL     1       5.274   3.420  29.988  0.00  0.00    -0.871 OA
ATOM     18  C   UNL     1       4.711   1.982  28.200  0.00  0.00    -0.004 A 
BRANCH  15  19
ATOM     19  O   UNL     1       7.870   2.672  29.789  0.00  0.00    -0.507 OA
ATOM     20  H   UNL     1       7.788   3.622  29.527  0.00  0.00    +0.292 HD
ENDBRANCH  15  19
ENDBRANCH   1  13
BRANCH   5  21
ATOM     21  O   UNL     1       7.724  -3.710  22.288  0.00  0.00    -0.506 OA
ATOM     22  H   UNL     1       8.642  -3.624  21.945  0.00  0.00    +0.292 HD
ENDBRANCH   5  21
BRANCH   7  23
ATOM     23  O   UNL     1       8.673  -6.012  26.341  0.00  0.00    -0.507 OA
ATOM     24  H   UNL     1       7.913  -6.603  26.471  0.00  0.00    +0.292 HD
ENDBRANCH   7  23
BRANCH  11  25
ATOM     25  O   UNL     1       6.912   1.219  24.128  0.00  0.00    -0.453 OA
BRANCH  25  26
ATOM     26  C   UNL     1       8.226   1.754  23.846  0.00  0.00    +0.340 C 
ATOM     27  O   UNL     1       8.745   2.582  24.888  0.00  0.00    -0.331 OA
ATOM     28  C   UNL     1       8.588   4.005  24.921  0.00  0.00    +0.179 C 
ATOM     29  C   UNL     1       8.361   4.706  23.567  0.00  0.00    +0.177 C 
ATOM     30  C   UNL     1       7.577   3.825  22.590  0.00  0.00    +0.180 C 
ATOM     31  C   UNL     1       8.251   2.452  22.479  0.00  0.00    +0.214 C 
BRANCH  29  32
ATOM     32  O   UNL     1       9.628   5.075  22.990  0.00  0.00    -0.386 OA
ATOM     33  H   UNL     1       9.527   5.029  22.016  0.00  0.00    +0.210 HD
ENDBRANCH  29  32
BRANCH  30  34
ATOM     34  O   UNL     1       6.200   3.757  22.968  0.00  0.00    -0.386 OA
ATOM     35  H   UNL     1       5.990   4.482  23.590  0.00  0.00    +0.210 HD
ENDBRANCH  30  34
BRANCH  31  36
ATOM     36  O   UNL     1       9.612   2.625  22.020  0.00  0.00    -0.383 OA
ATOM     37  H   UNL     1      10.216   2.460  22.772  0.00  0.00    +0.210 HD
ENDBRANCH  31  36
BRANCH  28  38
ATOM     38  C   UNL     1       7.558   4.421  25.990  0.00  0.00    +0.190 C 
BRANCH  38  39
ATOM     39  O   UNL     1       6.249   3.919  25.706  0.00  0.00    -0.392 OA
ATOM     40  H   UNL     1       5.932   3.416  26.474  0.00  0.00    +0.210 HD
ENDBRANCH  38  39
ENDBRANCH  28  38
ENDBRANCH  25  26
ENDBRANCH  11  25
TORSDOF 11
ENDMDL
MODEL 6
REMARK VINA RESULT:      -6.1      1.789      6.071
REMARK  Name = 
REMARK  11 active torsions:
REMARK  status: ('A' for Active; 'I' for Inactive)
REMARK    1  A    between atoms: C_4  and  O_37
REMARK    2  A    between atoms: C_6  and  C_7
REMARK    3  A    between atoms: C_8  and  O_20
REMARK    4  A    between atoms: C_12  and  O_19
REMARK    5  A    between atoms: C_14  and  O_18
REMARK    6  A    between atoms: O_20  and  C_21
REMARK    7  A    between atoms: C_23  and  O_36
REMARK    8  A    between atoms: C_25  and  O_35
REMARK    9  A    between atoms: C_27  and  O_34
REMARK   10  A    between atoms: C_29  and  C_32
REMARK   11  A    between atoms: C_32  and  O_33
REMARK                            x       y       z     vdW  Elec       q    Type
REMARK                         _______ _______ _______ _____ _____    ______ ____
ROOT
ATOM      1  C   UNL     1       7.058  -0.905  23.697  0.00  0.00    +0.181 A 
ATOM      2  O   UNL     1       8.173  -0.229  23.198  0.00  0.00    -0.451 OA
ATOM      3  C   UNL     1       8.370   1.082  23.503  0.00  0.00    +0.147 A 
ATOM      4  C   UNL     1       7.390   1.863  24.093  0.00  0.00    +0.109 A 
ATOM      5  C   UNL     1       7.613   3.234  24.256  0.00  0.00    +0.135 A 
ATOM      6  C   UNL     1       8.838   3.806  23.882  0.00  0.00    +0.091 A 
ATOM      7  C   UNL     1       9.833   2.992  23.350  0.00  0.00    +0.124 A 
ATOM      8  C   UNL     1       6.164   1.184  24.565  0.00  0.00    +0.238 A 
ATOM      9  O   UNL     1       5.258   1.851  25.050  0.00  0.00    -0.283 OA
ATOM     10  C   UNL     1       9.604   1.636  23.150  0.00  0.00    +0.092 A 
ATOM     11  C   UNL     1       6.111  -0.314  24.463  0.00  0.00    +0.214 A 
ENDROOT
BRANCH   1  13
ATOM     12  C   UNL     1       7.855  -3.262  24.014  0.00  0.00    +0.011 A 
ATOM     13  C   UNL     1       7.084  -2.338  23.290  0.00  0.00    +0.024 A 
ATOM     14  C   UNL     1       6.423  -2.822  22.160  0.00  0.00    +0.056 A 
ATOM     15  C   UNL     1       6.485  -4.180  21.844  0.00  0.00    +0.110 A 
ATOM     16  C   UNL     1       7.247  -5.135  22.537  0.00  0.00    -0.066 A 
ATOM     17  O   UNL     1       7.290  -6.364  22.187  0.00  0.00    -0.871 OA
ATOM     18  C   UNL     1       7.944  -4.614  23.633  0.00  0.00    -0.004 A 
BRANCH  15  19
ATOM     19  O   UNL     1       5.745  -4.640  20.779  0.00  0.00    -0.507 OA
ATOM     20  H   UNL     1       6.435  -5.222  20.375  0.00  0.00    +0.292 HD
ENDBRANCH  15  19
ENDBRANCH   1  13
BRANCH   5  21
ATOM     21  O   UNL     1       6.677   4.091  24.765  0.00  0.00    -0.506 OA
ATOM     22  H   UNL     1       5.825   3.603  24.823  0.00  0.00    +0.292 HD
ENDBRANCH   5  21
BRANCH   7  23
ATOM     23  O   UNL     1      11.053   3.488  22.999  0.00  0.00    -0.507 OA
ATOM     24  H   UNL     1      11.732   3.104  23.578  0.00  0.00    +0.292 HD
ENDBRANCH   7  23
BRANCH  11  25
ATOM     25  O   UNL     1       5.064  -0.969  25.136  0.00  0.00    -0.453 OA
BRANCH  25  26
ATOM     26  C   UNL     1       5.370  -1.212  26.529  0.00  0.00    +0.340 C 
ATOM     27  O   UNL     1       5.896  -2.516  26.782  0.00  0.00    -0.331 OA
ATOM     28  C   UNL     1       5.087  -3.638  27.155  0.00  0.00    +0.179 C 
ATOM     29  C   UNL     1       3.740  -3.322  27.835  0.00  0.00    +0.177 C 
ATOM     30  C   UNL     1       3.129  -2.017  27.317  0.00  0.00    +0.180 C 
ATOM     31  C   UNL     1       4.163  -0.888  27.419  0.00  0.00    +0.214 C 
BRANCH  29  32
ATOM     32  O   UNL     1       3.920  -3.251  29.262  0.00  0.00    -0.386 OA
ATOM     33  H   UNL     1       3.095  -3.585  29.674  0.00  0.00    +0.210 HD
ENDBRANCH  29  32
BRANCH  30  34
ATOM     34  O   UNL     1       2.605  -2.195  25.999  0.00  0.00    -0.386 OA
ATOM     35  H   UNL     1       2.732  -3.122  25.714  0.00  0.00    +0.210 HD
ENDBRANCH  30  34
BRANCH  31  36
ATOM     36  O   UNL     1       4.572  -0.740  28.798  0.00  0.00    -0.383 OA
ATOM     37  H   UNL     1       4.041  -1.353  29.346  0.00  0.00    +0.210 HD
ENDBRANCH  31  36
BRANCH  28  38
ATOM     38  C   UNL     1       4.948  -4.630  25.983  0.00  0.00    +0.190 C 
BRANCH  38  39
ATOM     39  O   UNL     1       4.420  -4.010  24.807  0.00  0.00    -0.392 OA
ATOM     40  H   UNL     1       4.356  -3.054  24.958  0.00  0.00    +0.210 HD
ENDBRANCH  38  39
ENDBRANCH  28  38
ENDBRANCH  25  26
ENDBRANCH  11  25
TORSDOF 11
ENDMDL
MODEL 7
REMARK VINA RESULT:      -6.1      1.967      5.165
REMARK  Name = 
REMARK  11 active torsions:
REMARK  status: ('A' for Active; 'I' for Inactive)
REMARK    1  A    between atoms: C_4  and  O_37
REMARK    2  A    between atoms: C_6  and  C_7
REMARK    3  A    between atoms: C_8  and  O_20
REMARK    4  A    between atoms: C_12  and  O_19
REMARK    5  A    between atoms: C_14  and  O_18
REMARK    6  A    between atoms: O_20  and  C_21
REMARK    7  A    between atoms: C_23  and  O_36
REMARK    8  A    between atoms: C_25  and  O_35
REMARK    9  A    between atoms: C_27  and  O_34
REMARK   10  A    between atoms: C_29  and  C_32
REMARK   11  A    between atoms: C_32  and  O_33
REMARK                            x       y       z     vdW  Elec       q    Type
REMARK                         _______ _______ _______ _____ _____    ______ ____
ROOT
ATOM      1  C   UNL     1       5.891  -0.808  26.074  0.00  0.00    +0.181 A 
ATOM      2  O   UNL     1       4.721  -1.442  26.495  0.00  0.00    -0.451 OA
ATOM      3  C   UNL     1       4.249  -2.523  25.818  0.00  0.00    +0.147 A 
ATOM      4  C   UNL     1       4.738  -2.896  24.577  0.00  0.00    +0.109 A 
ATOM      5  C   UNL     1       4.116  -3.937  23.880  0.00  0.00    +0.135 A 
ATOM      6  C   UNL     1       3.047  -4.640  24.455  0.00  0.00    +0.091 A 
ATOM      7  C   UNL     1       2.613  -4.292  25.731  0.00  0.00    +0.124 A 
ATOM      8  C   UNL     1       5.935  -2.189  24.072  0.00  0.00    +0.238 A 
ATOM      9  O   UNL     1       6.366  -2.461  22.958  0.00  0.00    -0.283 OA
ATOM     10  C   UNL     1       3.201  -3.234  26.412  0.00  0.00    +0.092 A 
ATOM     11  C   UNL     1       6.594  -1.192  24.981  0.00  0.00    +0.214 A 
ENDROOT
BRANCH   1  13
ATOM     12  C   UNL     1       5.634   1.560  26.862  0.00  0.00    +0.011 A 
ATOM     13  C   UNL     1       6.250   0.305  26.997  0.00  0.00    +0.024 A 
ATOM     14  C   UNL     1       7.240   0.194  27.976  0.00  0.00    +0.056 A 
ATOM     15  C   UNL     1       7.518   1.276  28.812  0.00  0.00    +0.110 A 
ATOM     16  C   UNL     1       6.929   2.548  28.707  0.00  0.00    -0.066 A 
ATOM     17  O   UNL     1       7.242   3.514  29.484  0.00  0.00    -0.871 OA
ATOM     18  C   UNL     1       5.981   2.649  27.683  0.00  0.00    -0.004 A 
BRANCH  15  19
ATOM     19  O   UNL     1       8.430   1.104  29.827  0.00  0.00    -0.507 OA
ATOM     20  H   UNL     1       8.029   0.297  30.236  0.00  0.00    +0.292 HD
ENDBRANCH  15  19
ENDBRANCH   1  13
BRANCH   5  21
ATOM     21  O   UNL     1       4.488  -4.325  22.623  0.00  0.00    -0.506 OA
ATOM     22  H   UNL     1       4.811  -5.253  22.680  0.00  0.00    +0.292 HD
ENDBRANCH   5  21
BRANCH   7  23
ATOM     23  O   UNL     1       1.600  -4.961  26.349  0.00  0.00    -0.507 OA
ATOM     24  H   UNL     1       0.868  -5.082  25.721  0.00  0.00    +0.292 HD
ENDBRANCH   7  23
BRANCH  11  25
ATOM     25  O   UNL     1       7.861  -0.714  24.603  0.00  0.00    -0.453 OA
BRANCH  25  26
ATOM     26  C   UNL     1       7.787   0.533  23.874  0.00  0.00    +0.340 C 
ATOM     27  O   UNL     1       7.839   0.372  22.455  0.00  0.00    -0.331 OA
ATOM     28  C   UNL     1       9.051   0.436  21.694  0.00  0.00    +0.179 C 
ATOM     29  C   UNL     1      10.214   1.236  22.315  0.00  0.00    +0.177 C 
ATOM     30  C   UNL     1      10.219   1.148  23.843  0.00  0.00    +0.180 C 
ATOM     31  C   UNL     1       8.836   1.530  24.386  0.00  0.00    +0.214 C 
BRANCH  29  32
ATOM     32  O   UNL     1      10.134   2.612  21.900  0.00  0.00    -0.386 OA
ATOM     33  H   UNL     1       9.759   2.620  20.994  0.00  0.00    +0.210 HD
ENDBRANCH  29  32
BRANCH  30  34
ATOM     34  O   UNL     1      10.664  -0.141  24.271  0.00  0.00    -0.386 OA
ATOM     35  H   UNL     1      10.356  -0.313  25.183  0.00  0.00    +0.210 HD
ENDBRANCH  30  34
BRANCH  31  36
ATOM     36  O   UNL     1       8.512   2.874  23.959  0.00  0.00    -0.383 OA
ATOM     37  H   UNL     1       8.500   3.454  24.746  0.00  0.00    +0.210 HD
ENDBRANCH  31  36
BRANCH  28  38
ATOM     38  C   UNL     1       9.477  -0.968  21.218  0.00  0.00    +0.190 C 
BRANCH  38  39
ATOM     39  O   UNL     1       9.322  -1.957  22.239  0.00  0.00    -0.392 OA
ATOM     40  H   UNL     1       8.487  -1.797  22.707  0.00  0.00    +0.210 HD
ENDBRANCH  38  39
ENDBRANCH  28  38
ENDBRANCH  25  26
ENDBRANCH  11  25
TORSDOF 11
ENDMDL
MODEL 8
REMARK VINA RESULT:      -5.9      2.085      6.329
REMARK  Name = 
REMARK  11 active torsions:
REMARK  status: ('A' for Active; 'I' for Inactive)
REMARK    1  A    between atoms: C_4  and  O_37
REMARK    2  A    between atoms: C_6  and  C_7
REMARK    3  A    between atoms: C_8  and  O_20
REMARK    4  A    between atoms: C_12  and  O_19
REMARK    5  A    between atoms: C_14  and  O_18
REMARK    6  A    between atoms: O_20  and  C_21
REMARK    7  A    between atoms: C_23  and  O_36
REMARK    8  A    between atoms: C_25  and  O_35
REMARK    9  A    between atoms: C_27  and  O_34
REMARK   10  A    between atoms: C_29  and  C_32
REMARK   11  A    between atoms: C_32  and  O_33
REMARK                            x       y       z     vdW  Elec       q    Type
REMARK                         _______ _______ _______ _____ _____    ______ ____
ROOT
ATOM      1  C   UNL     1       7.041  -1.254  24.025  0.00  0.00    +0.181 A 
ATOM      2  O   UNL     1       7.412  -2.475  23.458  0.00  0.00    -0.451 OA
ATOM      3  C   UNL     1       6.544  -3.522  23.467  0.00  0.00    +0.147 A 
ATOM      4  C   UNL     1       5.385  -3.522  24.226  0.00  0.00    +0.109 A 
ATOM      5  C   UNL     1       4.608  -4.684  24.290  0.00  0.00    +0.135 A 
ATOM      6  C   UNL     1       4.963  -5.819  23.548  0.00  0.00    +0.091 A 
ATOM      7  C   UNL     1       6.096  -5.777  22.741  0.00  0.00    +0.124 A 
ATOM      8  C   UNL     1       5.007  -2.261  24.899  0.00  0.00    +0.238 A 
ATOM      9  O   UNL     1       4.013  -2.239  25.615  0.00  0.00    -0.283 OA
ATOM     10  C   UNL     1       6.893  -4.640  22.702  0.00  0.00    +0.092 A 
ATOM     11  C   UNL     1       5.848  -1.046  24.631  0.00  0.00    +0.214 A 
ENDROOT
BRANCH   1  13
ATOM     12  C   UNL     1       9.124  -0.099  24.813  0.00  0.00    +0.011 A 
ATOM     13  C   UNL     1       8.118  -0.240  23.843  0.00  0.00    +0.024 A 
ATOM     14  C   UNL     1       8.152   0.651  22.769  0.00  0.00    +0.056 A 
ATOM     15  C   UNL     1       9.197   1.570  22.659  0.00  0.00    +0.110 A 
ATOM     16  C   UNL     1      10.218   1.747  23.608  0.00  0.00    -0.066 A 
ATOM     17  O   UNL     1      11.137   2.625  23.470  0.00  0.00    -0.871 OA
ATOM     18  C   UNL     1      10.129   0.879  24.702  0.00  0.00    -0.004 A 
BRANCH  15  19
ATOM     19  O   UNL     1       9.253   2.369  21.540  0.00  0.00    -0.507 OA
ATOM     20  H   UNL     1       8.775   3.152  21.908  0.00  0.00    +0.292 HD
ENDBRANCH  15  19
ENDBRANCH   1  13
BRANCH   5  21
ATOM     21  O   UNL     1       3.488  -4.795  25.066  0.00  0.00    -0.506 OA
ATOM     22  H   UNL     1       2.920  -4.013  24.885  0.00  0.00    +0.292 HD
ENDBRANCH   5  21
BRANCH   7  23
ATOM     23  O   UNL     1       6.469  -6.840  21.974  0.00  0.00    -0.507 OA
ATOM     24  H   UNL     1       7.232  -7.278  22.388  0.00  0.00    +0.292 HD
ENDBRANCH   7  23
BRANCH  11  25
ATOM     25  O   UNL     1       5.346   0.195  25.063  0.00  0.00    -0.453 OA
BRANCH  25  26
ATOM     26  C   UNL     1       5.924   0.617  26.320  0.00  0.00    +0.340 C 
ATOM     27  O   UNL     1       5.062   0.425  27.442  0.00  0.00    -0.331 OA
ATOM     28  C   UNL     1       4.177   1.433  27.944  0.00  0.00    +0.179 C 
ATOM     29  C   UNL     1       4.557   2.896  27.642  0.00  0.00    +0.177 C 
ATOM     30  C   UNL     1       5.266   3.037  26.292  0.00  0.00    +0.180 C 
ATOM     31  C   UNL     1       6.445   2.058  26.225  0.00  0.00    +0.214 C 
BRANCH  29  32
ATOM     32  O   UNL     1       5.393   3.411  28.696  0.00  0.00    -0.386 OA
ATOM     33  H   UNL     1       5.645   4.325  28.445  0.00  0.00    +0.210 HD
ENDBRANCH  29  32
BRANCH  30  34
ATOM     34  O   UNL     1       4.337   2.888  25.217  0.00  0.00    -0.386 OA
ATOM     35  H   UNL     1       3.496   3.336  25.439  0.00  0.00    +0.210 HD
ENDBRANCH  30  34
BRANCH  31  36
ATOM     36  O   UNL     1       7.361   2.341  27.308  0.00  0.00    -0.383 OA
ATOM     37  H   UNL     1       7.620   1.494  27.724  0.00  0.00    +0.210 HD
ENDBRANCH  31  36
BRANCH  28  38
ATOM     38  C   UNL     1       2.713   1.108  27.587  0.00  0.00    +0.190 C 
BRANCH  38  39
ATOM     39  O   UNL     1       2.610   0.059  26.620  0.00  0.00    -0.392 OA
ATOM     40  H   UNL     1       3.496  -0.139  26.277  0.00  0.00    +0.210 HD
ENDBRANCH  38  39
ENDBRANCH  28  38
ENDBRANCH  25  26
ENDBRANCH  11  25
TORSDOF 11
ENDMDL
MODEL 9
REMARK VINA RESULT:      -5.9      2.270      7.631
REMARK  Name = 
REMARK  11 active torsions:
REMARK  status: ('A' for Active; 'I' for Inactive)
REMARK    1  A    between atoms: C_4  and  O_37
REMARK    2  A    between atoms: C_6  and  C_7
REMARK    3  A    between atoms: C_8  and  O_20
REMARK    4  A    between atoms: C_12  and  O_19
REMARK    5  A    between atoms: C_14  and  O_18
REMARK    6  A    between atoms: O_20  and  C_21
REMARK    7  A    between atoms: C_23  and  O_36
REMARK    8  A    between atoms: C_25  and  O_35
REMARK    9  A    between atoms: C_27  and  O_34
REMARK   10  A    between atoms: C_29  and  C_32
REMARK   11  A    between atoms: C_32  and  O_33
REMARK                            x       y       z     vdW  Elec       q    Type
REMARK                         _______ _______ _______ _____ _____    ______ ____
ROOT
ATOM      1  C   UNL     1       7.089  -0.533  26.160  0.00  0.00    +0.181 A 
ATOM      2  O   UNL     1       7.556   0.487  25.329  0.00  0.00    -0.451 OA
ATOM      3  C   UNL     1       8.361   0.193  24.273  0.00  0.00    +0.147 A 
ATOM      4  C   UNL     1       8.947  -1.052  24.108  0.00  0.00    +0.109 A 
ATOM      5  C   UNL     1       9.867  -1.243  23.073  0.00  0.00    +0.135 A 
ATOM      6  C   UNL     1      10.152  -0.207  22.172  0.00  0.00    +0.091 A 
ATOM      7  C   UNL     1       9.504   1.016  22.316  0.00  0.00    +0.124 A 
ATOM      8  C   UNL     1       8.525  -2.134  25.023  0.00  0.00    +0.238 A 
ATOM      9  O   UNL     1       9.057  -3.234  24.934  0.00  0.00    -0.283 OA
ATOM     10  C   UNL     1       8.617   1.226  23.365  0.00  0.00    +0.092 A 
ATOM     11  C   UNL     1       7.421  -1.836  25.997  0.00  0.00    +0.214 A 
ENDROOT
BRANCH   1  13
ATOM     12  C   UNL     1       4.787  -0.022  27.014  0.00  0.00    +0.011 A 
ATOM     13  C   UNL     1       6.178   0.013  27.205  0.00  0.00    +0.024 A 
ATOM     14  C   UNL     1       6.637   0.636  28.366  0.00  0.00    +0.056 A 
ATOM     15  C   UNL     1       5.724   1.117  29.306  0.00  0.00    +0.110 A 
ATOM     16  C   UNL     1       4.327   1.106  29.153  0.00  0.00    -0.066 A 
ATOM     17  O   UNL     1       3.537   1.587  30.035  0.00  0.00    -0.871 OA
ATOM     18  C   UNL     1       3.896   0.527  27.955  0.00  0.00    -0.004 A 
BRANCH  15  19
ATOM     19  O   UNL     1       6.209   1.640  30.483  0.00  0.00    -0.507 OA
ATOM     20  H   UNL     1       6.475   0.789  30.911  0.00  0.00    +0.292 HD
ENDBRANCH  15  19
ENDBRANCH   1  13
BRANCH   5  21
ATOM     21  O   UNL     1      10.543  -2.416  22.877  0.00  0.00    -0.506 OA
ATOM     22  H   UNL     1      10.647  -2.543  21.908  0.00  0.00    +0.292 HD
ENDBRANCH   5  21
BRANCH   7  23
ATOM     23  O   UNL     1       9.719   2.047  21.451  0.00  0.00    -0.507 OA
ATOM     24  H   UNL     1      10.472   1.829  20.878  0.00  0.00    +0.292 HD
ENDBRANCH   7  23
BRANCH  11  25
ATOM     25  O   UNL     1       6.855  -2.925  26.682  0.00  0.00    -0.453 OA
BRANCH  25  26
ATOM     26  C   UNL     1       5.604  -3.357  26.098  0.00  0.00    +0.340 C 
ATOM     27  O   UNL     1       4.715  -3.970  27.033  0.00  0.00    -0.331 OA
ATOM     28  C   UNL     1       4.658  -5.382  27.263  0.00  0.00    +0.179 C 
ATOM     29  C   UNL     1       5.141  -6.289  26.114  0.00  0.00    +0.177 C 
ATOM     30  C   UNL     1       6.273  -5.642  25.311  0.00  0.00    +0.180 C 
ATOM     31  C   UNL     1       5.851  -4.236  24.865  0.00  0.00    +0.214 C 
BRANCH  29  32
ATOM     32  O   UNL     1       4.037  -6.604  25.245  0.00  0.00    -0.386 OA
ATOM     33  H   UNL     1       3.242  -6.168  25.618  0.00  0.00    +0.210 HD
ENDBRANCH  29  32
BRANCH  30  34
ATOM     34  O   UNL     1       7.493  -5.663  26.055  0.00  0.00    -0.386 OA
ATOM     35  H   UNL     1       7.726  -4.756  26.337  0.00  0.00    +0.210 HD
ENDBRANCH  30  34
BRANCH  31  36
ATOM     36  O   UNL     1       4.653  -4.332  24.060  0.00  0.00    -0.383 OA
ATOM     37  H   UNL     1       4.296  -3.432  23.926  0.00  0.00    +0.210 HD
ENDBRANCH  31  36
BRANCH  28  38
ATOM     38  C   UNL     1       5.295  -5.745  28.620  0.00  0.00    +0.190 C 
BRANCH  38  39
ATOM     39  O   UNL     1       6.661  -5.330  28.706  0.00  0.00    -0.392 OA
ATOM     40  H   UNL     1       7.068  -5.405  27.828  0.00  0.00    +0.210 HD
ENDBRANCH  38  39
ENDBRANCH  28  38
ENDBRANCH  25  26
ENDBRANCH  11  25
TORSDOF 11
ENDMDL
