MODEL 1
REMARK VINA RESULT:      -7.0      0.000      0.000
REMARK  Name = 
REMARK  14 active torsions:
REMARK  status: ('A' for Active; 'I' for Inactive)
REMARK    1  A    between atoms: C_1  and  C_2
REMARK    2  A    between atoms: C_2  and  O_4
REMARK    3  A    between atoms: O_4  and  C_5
REMARK    4  A    between atoms: C_5  and  C_6
REMARK    5  A    between atoms: C_8  and  O_41
REMARK    6  A    between atoms: C_10  and  O_40
REMARK    7  A    between atoms: C_12  and  O_39
REMARK    8  A    between atoms: C_14  and  O_17
REMARK    9  A    between atoms: O_17  and  C_18
REMARK   10  A    between atoms: C_19  and  C_31
REMARK   11  A    between atoms: C_23  and  O_30
REMARK   12  A    between atoms: C_25  and  O_29
REMARK   13  A    between atoms: C_33  and  O_38
REMARK   14  A    between atoms: C_34  and  O_37
REMARK                            x       y       z     vdW  Elec       q    Type
REMARK                         _______ _______ _______ _____ _____    ______ ____
ROOT
ATOM      1  C   UNL     1       7.544  -2.674  25.544  0.00  0.00    +0.214 A 
ATOM      2  C   UNL     1       8.550  -2.724  24.436  0.00  0.00    +0.238 A 
ATOM      3  O   UNL     1       9.197  -3.732  24.193  0.00  0.00    -0.283 OA
ATOM      4  C   UNL     1       8.691  -1.540  23.589  0.00  0.00    +0.109 A 
ATOM      5  C   UNL     1       7.691  -0.578  23.656  0.00  0.00    +0.147 A 
ATOM      6  C   UNL     1       7.690   0.476  22.739  0.00  0.00    +0.092 A 
ATOM      7  C   UNL     1       8.704   0.562  21.784  0.00  0.00    +0.124 A 
ATOM      8  C   UNL     1       9.744  -0.358  21.755  0.00  0.00    +0.091 A 
ATOM      9  O   UNL     1       6.681  -0.620  24.584  0.00  0.00    -0.451 OA
ATOM     10  C   UNL     1       9.742  -1.405  22.668  0.00  0.00    +0.135 A 
ATOM     11  C   UNL     1       6.677  -1.634  25.548  0.00  0.00    +0.181 A 
ENDROOT
BRANCH  11  12
ATOM     12  C   UNL     1       5.555  -1.494  26.536  0.00  0.00    +0.025 A 
ATOM     13  C   UNL     1       5.703  -0.662  27.661  0.00  0.00    +0.015 A 
ATOM     14  C   UNL     1       4.649  -0.459  28.563  0.00  0.00    +0.050 A 
ATOM     15  C   UNL     1       3.438  -1.095  28.349  0.00  0.00    +0.158 A 
ATOM     16  C   UNL     1       3.283  -1.963  27.278  0.00  0.00    +0.159 A 
ATOM     17  C   UNL     1       4.336  -2.186  26.391  0.00  0.00    +0.060 A 
BRANCH  15  18
ATOM     18  O   UNL     1       2.392  -0.854  29.193  0.00  0.00    -0.503 OA
ATOM     19  H   UNL     1       2.648  -0.041  29.673  0.00  0.00    +0.292 HD
ENDBRANCH  15  18
BRANCH  16  20
ATOM     20  O   UNL     1       2.070  -2.576  27.118  0.00  0.00    -0.503 OA
ATOM     21  H   UNL     1       2.138  -3.472  27.495  0.00  0.00    +0.292 HD
ENDBRANCH  16  20
ENDBRANCH  11  12
BRANCH   7  22
ATOM     22  O   UNL     1       8.732   1.552  20.846  0.00  0.00    -0.507 OA
ATOM     23  H   UNL     1       8.297   2.344  21.202  0.00  0.00    +0.292 HD
ENDBRANCH   7  22
BRANCH  10  24
ATOM     24  O   UNL     1      10.791  -2.279  22.673  0.00  0.00    -0.506 OA
ATOM     25  H   UNL     1      11.619  -1.821  22.458  0.00  0.00    +0.292 HD
ENDBRANCH  10  24
BRANCH   1  26
ATOM     26  O   UNL     1       7.464  -3.723  26.459  0.00  0.00    -0.453 OA
BRANCH  26  29
ATOM     27  C   UNL     1       5.130  -5.702  24.480  0.00  0.00    +0.191 C 
ATOM     28  O   UNL     1       5.742  -4.542  25.068  0.00  0.00    -0.330 OA
ATOM     29  C   UNL     1       6.767  -4.900  26.005  0.00  0.00    +0.340 C 
ATOM     30  C   UNL     1       6.100  -5.585  27.222  0.00  0.00    +0.214 C 
ATOM     31  C   UNL     1       5.200  -6.744  26.735  0.00  0.00    +0.180 C 
ATOM     32  C   UNL     1       4.267  -6.318  25.585  0.00  0.00    +0.178 C 
BRANCH  30  33
ATOM     33  O   UNL     1       7.104  -6.075  28.133  0.00  0.00    -0.383 OA
ATOM     34  H   UNL     1       6.638  -6.523  28.862  0.00  0.00    +0.210 HD
ENDBRANCH  30  33
BRANCH  31  35
ATOM     35  O   UNL     1       4.475  -7.288  27.845  0.00  0.00    -0.386 OA
ATOM     36  H   UNL     1       5.050  -7.223  28.633  0.00  0.00    +0.210 HD
ENDBRANCH  31  35
BRANCH  32  37
ATOM     37  O   UNL     1       3.319  -5.361  26.081  0.00  0.00    -0.386 OA
ATOM     38  H   UNL     1       3.780  -4.497  26.128  0.00  0.00    +0.210 HD
ENDBRANCH  32  37
BRANCH  27  39
ATOM     39  C   UNL     1       4.331  -5.281  23.243  0.00  0.00    +0.266 C 
BRANCH  39  40
ATOM     40  O   UNL     1       5.050  -5.502  22.015  0.00  0.00    -0.462 OA
BRANCH  40  42
ATOM     41  C   UNL     1       5.886  -3.316  21.805  0.00  0.00    +0.136 C 
ATOM     42  C   UNL     1       6.193  -4.783  21.852  0.00  0.00    +0.304 C 
ATOM     43  O   UNL     1       7.318  -5.251  21.743  0.00  0.00    -0.251 OA
ENDBRANCH  40  42
ENDBRANCH  39  40
ENDBRANCH  27  39
ENDBRANCH  26  29
ENDBRANCH   1  26
TORSDOF 13
ENDMDL
MODEL 2
REMARK VINA RESULT:      -7.0      2.741      7.397
REMARK  Name = 
REMARK  14 active torsions:
REMARK  status: ('A' for Active; 'I' for Inactive)
REMARK    1  A    between atoms: C_1  and  C_2
REMARK    2  A    between atoms: C_2  and  O_4
REMARK    3  A    between atoms: O_4  and  C_5
REMARK    4  A    between atoms: C_5  and  C_6
REMARK    5  A    between atoms: C_8  and  O_41
REMARK    6  A    between atoms: C_10  and  O_40
REMARK    7  A    between atoms: C_12  and  O_39
REMARK    8  A    between atoms: C_14  and  O_17
REMARK    9  A    between atoms: O_17  and  C_18
REMARK   10  A    between atoms: C_19  and  C_31
REMARK   11  A    between atoms: C_23  and  O_30
REMARK   12  A    between atoms: C_25  and  O_29
REMARK   13  A    between atoms: C_33  and  O_38
REMARK   14  A    between atoms: C_34  and  O_37
REMARK                            x       y       z     vdW  Elec       q    Type
REMARK                         _______ _______ _______ _____ _____    ______ ____
ROOT
ATOM      1  C   UNL     1       7.464  -1.823  25.174  0.00  0.00    +0.214 A 
ATOM      2  C   UNL     1       6.632  -3.043  25.424  0.00  0.00    +0.238 A 
ATOM      3  O   UNL     1       6.022  -3.209  26.470  0.00  0.00    -0.283 OA
ATOM      4  C   UNL     1       6.503  -4.015  24.338  0.00  0.00    +0.109 A 
ATOM      5  C   UNL     1       6.888  -3.612  23.066  0.00  0.00    +0.147 A 
ATOM      6  C   UNL     1       6.616  -4.439  21.973  0.00  0.00    +0.092 A 
ATOM      7  C   UNL     1       5.983  -5.667  22.175  0.00  0.00    +0.124 A 
ATOM      8  C   UNL     1       5.657  -6.105  23.452  0.00  0.00    +0.091 A 
ATOM      9  O   UNL     1       7.520  -2.419  22.824  0.00  0.00    -0.451 OA
ATOM     10  C   UNL     1       5.929  -5.280  24.537  0.00  0.00    +0.135 A 
ATOM     11  C   UNL     1       7.852  -1.588  23.899  0.00  0.00    +0.181 A 
ENDROOT
BRANCH  11  12
ATOM     12  C   UNL     1       8.608  -0.362  23.476  0.00  0.00    +0.025 A 
ATOM     13  C   UNL     1       9.934  -0.165  23.905  0.00  0.00    +0.015 A 
ATOM     14  C   UNL     1      10.688   0.935  23.471  0.00  0.00    +0.050 A 
ATOM     15  C   UNL     1      10.114   1.854  22.608  0.00  0.00    +0.158 A 
ATOM     16  C   UNL     1       8.792   1.713  22.214  0.00  0.00    +0.159 A 
ATOM     17  C   UNL     1       8.031   0.633  22.661  0.00  0.00    +0.060 A 
BRANCH  15  18
ATOM     18  O   UNL     1      10.863   2.894  22.138  0.00  0.00    -0.503 OA
ATOM     19  H   UNL     1      11.591   2.984  22.786  0.00  0.00    +0.292 HD
ENDBRANCH  15  18
BRANCH  16  20
ATOM     20  O   UNL     1       8.269   2.655  21.370  0.00  0.00    -0.503 OA
ATOM     21  H   UNL     1       8.997   3.240  21.090  0.00  0.00    +0.292 HD
ENDBRANCH  16  20
ENDBRANCH  11  12
BRANCH   7  22
ATOM     22  O   UNL     1       5.665  -6.496  21.140  0.00  0.00    -0.507 OA
ATOM     23  H   UNL     1       5.338  -5.967  20.394  0.00  0.00    +0.292 HD
ENDBRANCH   7  22
BRANCH  10  24
ATOM     24  O   UNL     1       5.656  -5.734  25.796  0.00  0.00    -0.506 OA
ATOM     25  H   UNL     1       6.359  -5.476  26.413  0.00  0.00    +0.292 HD
ENDBRANCH  10  24
BRANCH   1  26
ATOM     26  O   UNL     1       7.726  -0.934  26.217  0.00  0.00    -0.453 OA
BRANCH  26  29
ATOM     27  C   UNL     1       7.099   2.644  25.934  0.00  0.00    +0.191 C 
ATOM     28  O   UNL     1       7.835   1.421  26.101  0.00  0.00    -0.330 OA
ATOM     29  C   UNL     1       6.961   0.287  26.206  0.00  0.00    +0.340 C 
ATOM     30  C   UNL     1       6.178   0.396  27.536  0.00  0.00    +0.214 C 
ATOM     31  C   UNL     1       5.495   1.780  27.623  0.00  0.00    +0.180 C 
ATOM     32  C   UNL     1       6.464   2.933  27.297  0.00  0.00    +0.178 C 
BRANCH  30  33
ATOM     33  O   UNL     1       5.197  -0.657  27.625  0.00  0.00    -0.383 OA
ATOM     34  H   UNL     1       4.753  -0.565  28.489  0.00  0.00    +0.210 HD
ENDBRANCH  30  33
BRANCH  31  35
ATOM     35  O   UNL     1       4.886   1.935  28.912  0.00  0.00    -0.386 OA
ATOM     36  H   UNL     1       5.584   1.809  29.584  0.00  0.00    +0.210 HD
ENDBRANCH  31  35
BRANCH  32  37
ATOM     37  O   UNL     1       7.468   3.004  28.321  0.00  0.00    -0.386 OA
ATOM     38  H   UNL     1       8.307   3.258  27.882  0.00  0.00    +0.210 HD
ENDBRANCH  32  37
BRANCH  27  39
ATOM     39  C   UNL     1       8.051   3.746  25.458  0.00  0.00    +0.266 C 
BRANCH  39  40
ATOM     40  O   UNL     1       7.707   4.252  24.154  0.00  0.00    -0.462 OA
BRANCH  40  42
ATOM     41  C   UNL     1       7.834   6.122  22.736  0.00  0.00    +0.136 C 
ATOM     42  C   UNL     1       8.570   5.153  23.613  0.00  0.00    +0.304 C 
ATOM     43  O   UNL     1       9.779   5.175  23.794  0.00  0.00    -0.251 OA
ENDBRANCH  40  42
ENDBRANCH  39  40
ENDBRANCH  27  39
ENDBRANCH  26  29
ENDBRANCH   1  26
TORSDOF 13
ENDMDL
MODEL 3
REMARK VINA RESULT:      -6.9      3.098      7.812
REMARK  Name = 
REMARK  14 active torsions:
REMARK  status: ('A' for Active; 'I' for Inactive)
REMARK    1  A    between atoms: C_1  and  C_2
REMARK    2  A    between atoms: C_2  and  O_4
REMARK    3  A    between atoms: O_4  and  C_5
REMARK    4  A    between atoms: C_5  and  C_6
REMARK    5  A    between atoms: C_8  and  O_41
REMARK    6  A    between atoms: C_10  and  O_40
REMARK    7  A    between atoms: C_12  and  O_39
REMARK    8  A    between atoms: C_14  and  O_17
REMARK    9  A    between atoms: O_17  and  C_18
REMARK   10  A    between atoms: C_19  and  C_31
REMARK   11  A    between atoms: C_23  and  O_30
REMARK   12  A    between atoms: C_25  and  O_29
REMARK   13  A    between atoms: C_33  and  O_38
REMARK   14  A    between atoms: C_34  and  O_37
REMARK                            x       y       z     vdW  Elec       q    Type
REMARK                         _______ _______ _______ _____ _____    ______ ____
ROOT
ATOM      1  C   UNL     1       6.337  -1.085  24.496  0.00  0.00    +0.214 A 
ATOM      2  C   UNL     1       5.322  -2.178  24.630  0.00  0.00    +0.238 A 
ATOM      3  O   UNL     1       4.338  -2.065  25.346  0.00  0.00    -0.283 OA
ATOM      4  C   UNL     1       5.500  -3.379  23.813  0.00  0.00    +0.109 A 
ATOM      5  C   UNL     1       6.399  -3.309  22.756  0.00  0.00    +0.147 A 
ATOM      6  C   UNL     1       6.467  -4.366  21.844  0.00  0.00    +0.092 A 
ATOM      7  C   UNL     1       5.651  -5.485  22.019  0.00  0.00    +0.124 A 
ATOM      8  C   UNL     1       4.801  -5.590  23.112  0.00  0.00    +0.091 A 
ATOM      9  O   UNL     1       7.224  -2.233  22.553  0.00  0.00    -0.451 OA
ATOM     10  C   UNL     1       4.735  -4.537  24.017  0.00  0.00    +0.135 A 
ATOM     11  C   UNL     1       7.218  -1.179  23.472  0.00  0.00    +0.181 A 
ENDROOT
BRANCH  11  12
ATOM     12  C   UNL     1       8.231  -0.119  23.151  0.00  0.00    +0.025 A 
ATOM     13  C   UNL     1       8.017   0.763  22.076  0.00  0.00    +0.015 A 
ATOM     14  C   UNL     1       8.912   1.805  21.796  0.00  0.00    +0.050 A 
ATOM     15  C   UNL     1      10.036   1.967  22.588  0.00  0.00    +0.158 A 
ATOM     16  C   UNL     1      10.300   1.079  23.620  0.00  0.00    +0.159 A 
ATOM     17  C   UNL     1       9.424   0.027  23.888  0.00  0.00    +0.060 A 
BRANCH  15  18
ATOM     18  O   UNL     1      10.879   3.016  22.353  0.00  0.00    -0.503 OA
ATOM     19  H   UNL     1      10.951   3.058  21.378  0.00  0.00    +0.292 HD
ENDBRANCH  15  18
BRANCH  16  20
ATOM     20  O   UNL     1      11.431   1.276  24.364  0.00  0.00    -0.503 OA
ATOM     21  H   UNL     1      12.111   1.653  23.777  0.00  0.00    +0.292 HD
ENDBRANCH  16  20
ENDBRANCH  11  12
BRANCH   7  22
ATOM     22  O   UNL     1       5.656  -6.528  21.140  0.00  0.00    -0.507 OA
ATOM     23  H   UNL     1       5.580  -7.362  21.632  0.00  0.00    +0.292 HD
ENDBRANCH   7  22
BRANCH  10  24
ATOM     24  O   UNL     1       3.937  -4.663  25.118  0.00  0.00    -0.506 OA
ATOM     25  H   UNL     1       3.223  -5.299  24.953  0.00  0.00    +0.292 HD
ENDBRANCH  10  24
BRANCH   1  26
ATOM     26  O   UNL     1       6.286   0.019  25.346  0.00  0.00    -0.453 OA
BRANCH  26  29
ATOM     27  C   UNL     1       5.527   3.290  23.930  0.00  0.00    +0.191 C 
ATOM     28  O   UNL     1       6.297   2.233  24.525  0.00  0.00    -0.330 OA
ATOM     29  C   UNL     1       5.471   1.119  24.897  0.00  0.00    +0.340 C 
ATOM     30  C   UNL     1       4.548   1.561  26.057  0.00  0.00    +0.214 C 
ATOM     31  C   UNL     1       3.796   2.852  25.658  0.00  0.00    +0.180 C 
ATOM     32  C   UNL     1       4.739   3.924  25.079  0.00  0.00    +0.178 C 
BRANCH  30  33
ATOM     33  O   UNL     1       3.613   0.512  26.379  0.00  0.00    -0.383 OA
ATOM     34  H   UNL     1       4.074  -0.337  26.242  0.00  0.00    +0.210 HD
ENDBRANCH  30  33
BRANCH  31  35
ATOM     35  O   UNL     1       3.048   3.339  26.780  0.00  0.00    -0.386 OA
ATOM     36  H   UNL     1       3.667   3.427  27.530  0.00  0.00    +0.210 HD
ENDBRANCH  31  35
BRANCH  32  37
ATOM     37  O   UNL     1       5.625   4.375  26.115  0.00  0.00    -0.386 OA
ATOM     38  H   UNL     1       6.291   3.669  26.251  0.00  0.00    +0.210 HD
ENDBRANCH  32  37
BRANCH  27  39
ATOM     39  C   UNL     1       6.472   4.268  23.224  0.00  0.00    +0.266 C 
BRANCH  39  40
ATOM     40  O   UNL     1       7.662   4.541  23.989  0.00  0.00    -0.462 OA
BRANCH  40  42
ATOM     41  C   UNL     1       7.821   6.370  22.523  0.00  0.00    +0.136 C 
ATOM     42  C   UNL     1       8.538   5.425  23.440  0.00  0.00    +0.304 C 
ATOM     43  O   UNL     1       9.743   5.450  23.644  0.00  0.00    -0.251 OA
ENDBRANCH  40  42
ENDBRANCH  39  40
ENDBRANCH  27  39
ENDBRANCH  26  29
ENDBRANCH   1  26
TORSDOF 13
ENDMDL
MODEL 4
REMARK VINA RESULT:      -6.8      2.139      4.886
REMARK  Name = 
REMARK  14 active torsions:
REMARK  status: ('A' for Active; 'I' for Inactive)
REMARK    1  A    between atoms: C_1  and  C_2
REMARK    2  A    between atoms: C_2  and  O_4
REMARK    3  A    between atoms: O_4  and  C_5
REMARK    4  A    between atoms: C_5  and  C_6
REMARK    5  A    between atoms: C_8  and  O_41
REMARK    6  A    between atoms: C_10  and  O_40
REMARK    7  A    between atoms: C_12  and  O_39
REMARK    8  A    between atoms: C_14  and  O_17
REMARK    9  A    between atoms: O_17  and  C_18
REMARK   10  A    between atoms: C_19  and  C_31
REMARK   11  A    between atoms: C_23  and  O_30
REMARK   12  A    between atoms: C_25  and  O_29
REMARK   13  A    between atoms: C_33  and  O_38
REMARK   14  A    between atoms: C_34  and  O_37
REMARK                            x       y       z     vdW  Elec       q    Type
REMARK                         _______ _______ _______ _____ _____    ______ ____
ROOT
ATOM      1  C   UNL     1       6.440  -0.285  24.411  0.00  0.00    +0.214 A 
ATOM      2  C   UNL     1       6.694   1.124  24.847  0.00  0.00    +0.238 A 
ATOM      3  O   UNL     1       6.007   1.676  25.694  0.00  0.00    -0.283 OA
ATOM      4  C   UNL     1       7.850   1.817  24.277  0.00  0.00    +0.109 A 
ATOM      5  C   UNL     1       8.803   1.046  23.625  0.00  0.00    +0.147 A 
ATOM      6  C   UNL     1      10.007   1.635  23.226  0.00  0.00    +0.092 A 
ATOM      7  C   UNL     1      10.225   2.992  23.467  0.00  0.00    +0.124 A 
ATOM      8  C   UNL     1       9.248   3.783  24.057  0.00  0.00    +0.091 A 
ATOM      9  O   UNL     1       8.626  -0.289  23.361  0.00  0.00    -0.451 OA
ATOM     10  C   UNL     1       8.053   3.194  24.452  0.00  0.00    +0.135 A 
ATOM     11  C   UNL     1       7.415  -0.901  23.702  0.00  0.00    +0.181 A 
ENDROOT
BRANCH  11  12
ATOM     12  C   UNL     1       7.348  -2.338  23.276  0.00  0.00    +0.025 A 
ATOM     13  C   UNL     1       8.058  -3.322  23.991  0.00  0.00    +0.015 A 
ATOM     14  C   UNL     1       7.959  -4.681  23.659  0.00  0.00    +0.050 A 
ATOM     15  C   UNL     1       7.154  -5.065  22.599  0.00  0.00    +0.158 A 
ATOM     16  C   UNL     1       6.488  -4.111  21.844  0.00  0.00    +0.159 A 
ATOM     17  C   UNL     1       6.601  -2.757  22.157  0.00  0.00    +0.060 A 
BRANCH  15  18
ATOM     18  O   UNL     1       7.012  -6.392  22.310  0.00  0.00    -0.503 OA
ATOM     19  H   UNL     1       7.831  -6.626  21.828  0.00  0.00    +0.292 HD
ENDBRANCH  15  18
BRANCH  16  20
ATOM     20  O   UNL     1       5.716  -4.543  20.801  0.00  0.00    -0.503 OA
ATOM     21  H   UNL     1       5.273  -5.365  21.079  0.00  0.00    +0.292 HD
ENDBRANCH  16  20
ENDBRANCH  11  12
BRANCH   7  22
ATOM     22  O   UNL     1      11.393   3.608  23.127  0.00  0.00    -0.507 OA
ATOM     23  H   UNL     1      11.362   4.536  23.413  0.00  0.00    +0.292 HD
ENDBRANCH   7  22
BRANCH  10  24
ATOM     24  O   UNL     1       7.074   3.983  24.985  0.00  0.00    -0.506 OA
ATOM     25  H   UNL     1       6.843   4.702  24.376  0.00  0.00    +0.292 HD
ENDBRANCH  10  24
BRANCH   1  26
ATOM     26  O   UNL     1       5.280  -0.942  24.822  0.00  0.00    -0.453 OA
BRANCH  26  29
ATOM     27  C   UNL     1       5.383  -4.010  26.785  0.00  0.00    +0.191 C 
ATOM     28  O   UNL     1       5.116  -3.137  25.675  0.00  0.00    -0.330 OA
ATOM     29  C   UNL     1       5.409  -1.769  25.995  0.00  0.00    +0.340 C 
ATOM     30  C   UNL     1       4.394  -1.287  27.058  0.00  0.00    +0.214 C 
ATOM     31  C   UNL     1       4.388  -2.269  28.252  0.00  0.00    +0.180 C 
ATOM     32  C   UNL     1       4.271  -3.738  27.802  0.00  0.00    +0.178 C 
BRANCH  30  33
ATOM     33  O   UNL     1       4.728   0.044  27.502  0.00  0.00    -0.383 OA
ATOM     34  H   UNL     1       5.675   0.180  27.316  0.00  0.00    +0.210 HD
ENDBRANCH  30  33
BRANCH  31  35
ATOM     35  O   UNL     1       3.351  -1.902  29.172  0.00  0.00    -0.386 OA
ATOM     36  H   UNL     1       3.498  -0.970  29.424  0.00  0.00    +0.210 HD
ENDBRANCH  31  35
BRANCH  32  37
ATOM     37  O   UNL     1       2.979  -3.944  27.209  0.00  0.00    -0.386 OA
ATOM     38  H   UNL     1       2.884  -4.908  27.057  0.00  0.00    +0.210 HD
ENDBRANCH  32  37
BRANCH  27  39
ATOM     39  C   UNL     1       5.418  -5.460  26.290  0.00  0.00    +0.266 C 
BRANCH  39  40
ATOM     40  O   UNL     1       4.157  -5.891  25.743  0.00  0.00    -0.462 OA
BRANCH  40  42
ATOM     41  C   UNL     1       3.492  -5.410  23.542  0.00  0.00    +0.136 C 
ATOM     42  C   UNL     1       4.187  -6.363  24.468  0.00  0.00    +0.304 C 
ATOM     43  O   UNL     1       4.691  -7.418  24.113  0.00  0.00    -0.251 OA
ENDBRANCH  40  42
ENDBRANCH  39  40
ENDBRANCH  27  39
ENDBRANCH  26  29
ENDBRANCH   1  26
TORSDOF 13
ENDMDL
MODEL 5
REMARK VINA RESULT:      -6.8      3.128      6.142
REMARK  Name = 
REMARK  14 active torsions:
REMARK  status: ('A' for Active; 'I' for Inactive)
REMARK    1  A    between atoms: C_1  and  C_2
REMARK    2  A    between atoms: C_2  and  O_4
REMARK    3  A    between atoms: O_4  and  C_5
REMARK    4  A    between atoms: C_5  and  C_6
REMARK    5  A    between atoms: C_8  and  O_41
REMARK    6  A    between atoms: C_10  and  O_40
REMARK    7  A    between atoms: C_12  and  O_39
REMARK    8  A    between atoms: C_14  and  O_17
REMARK    9  A    between atoms: O_17  and  C_18
REMARK   10  A    between atoms: C_19  and  C_31
REMARK   11  A    between atoms: C_23  and  O_30
REMARK   12  A    between atoms: C_25  and  O_29
REMARK   13  A    between atoms: C_33  and  O_38
REMARK   14  A    between atoms: C_34  and  O_37
REMARK                            x       y       z     vdW  Elec       q    Type
REMARK                         _______ _______ _______ _____ _____    ______ ____
ROOT
ATOM      1  C   UNL     1       7.855   2.057  23.971  0.00  0.00    +0.214 A 
ATOM      2  C   UNL     1       8.047   3.535  24.121  0.00  0.00    +0.238 A 
ATOM      3  O   UNL     1       7.183   4.256  24.598  0.00  0.00    -0.283 OA
ATOM      4  C   UNL     1       9.344   4.097  23.743  0.00  0.00    +0.109 A 
ATOM      5  C   UNL     1      10.401   3.213  23.571  0.00  0.00    +0.147 A 
ATOM      6  C   UNL     1      11.693   3.715  23.390  0.00  0.00    +0.092 A 
ATOM      7  C   UNL     1      11.900   5.095  23.360  0.00  0.00    +0.124 A 
ATOM      8  C   UNL     1      10.838   5.983  23.462  0.00  0.00    +0.091 A 
ATOM      9  O   UNL     1      10.241   1.850  23.585  0.00  0.00    -0.451 OA
ATOM     10  C   UNL     1       9.555   5.480  23.643  0.00  0.00    +0.135 A 
ATOM     11  C   UNL     1       8.956   1.312  23.716  0.00  0.00    +0.181 A 
ENDROOT
BRANCH  11  12
ATOM     12  C   UNL     1       8.941  -0.187  23.633  0.00  0.00    +0.025 A 
ATOM     13  C   UNL     1       9.753  -0.951  24.491  0.00  0.00    +0.015 A 
ATOM     14  C   UNL     1       9.708  -2.353  24.483  0.00  0.00    +0.050 A 
ATOM     15  C   UNL     1       8.854  -3.001  23.607  0.00  0.00    +0.158 A 
ATOM     16  C   UNL     1       8.084  -2.273  22.713  0.00  0.00    +0.159 A 
ATOM     17  C   UNL     1       8.141  -0.879  22.701  0.00  0.00    +0.060 A 
BRANCH  15  18
ATOM     18  O   UNL     1       8.766  -4.363  23.637  0.00  0.00    -0.503 OA
ATOM     19  H   UNL     1       8.064  -4.549  24.292  0.00  0.00    +0.292 HD
ENDBRANCH  15  18
BRANCH  16  20
ATOM     20  O   UNL     1       7.265  -2.962  21.860  0.00  0.00    -0.503 OA
ATOM     21  H   UNL     1       6.760  -3.606  22.389  0.00  0.00    +0.292 HD
ENDBRANCH  16  20
ENDBRANCH  11  12
BRANCH   7  22
ATOM     22  O   UNL     1      13.144   5.636  23.218  0.00  0.00    -0.507 OA
ATOM     23  H   UNL     1      13.775   4.935  22.989  0.00  0.00    +0.292 HD
ENDBRANCH   7  22
BRANCH  10  24
ATOM     24  O   UNL     1       8.505   6.352  23.692  0.00  0.00    -0.506 OA
ATOM     25  H   UNL     1       8.234   6.613  22.798  0.00  0.00    +0.292 HD
ENDBRANCH  10  24
BRANCH   1  26
ATOM     26  O   UNL     1       6.599   1.493  24.191  0.00  0.00    -0.453 OA
BRANCH  26  29
ATOM     27  C   UNL     1       6.130  -1.235  26.560  0.00  0.00    +0.191 C 
ATOM     28  O   UNL     1       6.169  -0.546  25.300  0.00  0.00    -0.330 OA
ATOM     29  C   UNL     1       6.412   0.858  25.471  0.00  0.00    +0.340 C 
ATOM     30  C   UNL     1       5.179   1.486  26.163  0.00  0.00    +0.214 C 
ATOM     31  C   UNL     1       4.852   0.699  27.453  0.00  0.00    +0.180 C 
ATOM     32  C   UNL     1       4.809  -0.822  27.216  0.00  0.00    +0.178 C 
BRANCH  30  33
ATOM     33  O   UNL     1       5.430   2.873  26.469  0.00  0.00    -0.383 OA
ATOM     34  H   UNL     1       4.621   3.228  26.881  0.00  0.00    +0.210 HD
ENDBRANCH  30  33
BRANCH  31  35
ATOM     35  O   UNL     1       3.631   1.192  28.020  0.00  0.00    -0.386 OA
ATOM     36  H   UNL     1       3.856   1.964  28.576  0.00  0.00    +0.210 HD
ENDBRANCH  31  35
BRANCH  32  37
ATOM     37  O   UNL     1       3.699  -1.132  26.360  0.00  0.00    -0.386 OA
ATOM     38  H   UNL     1       3.657  -2.108  26.286  0.00  0.00    +0.210 HD
ENDBRANCH  32  37
BRANCH  27  39
ATOM     39  C   UNL     1       6.246  -2.744  26.315  0.00  0.00    +0.266 C 
BRANCH  39  40
ATOM     40  O   UNL     1       5.497  -3.178  25.164  0.00  0.00    -0.462 OA
BRANCH  40  42
ATOM     41  C   UNL     1       5.749  -5.365  25.985  0.00  0.00    +0.136 C 
ATOM     42  C   UNL     1       5.680  -4.471  24.783  0.00  0.00    +0.304 C 
ATOM     43  O   UNL     1       5.788  -4.863  23.630  0.00  0.00    -0.251 OA
ENDBRANCH  40  42
ENDBRANCH  39  40
ENDBRANCH  27  39
ENDBRANCH  26  29
ENDBRANCH   1  26
TORSDOF 13
ENDMDL
MODEL 6
REMARK VINA RESULT:      -6.7      3.087      6.814
REMARK  Name = 
REMARK  14 active torsions:
REMARK  status: ('A' for Active; 'I' for Inactive)
REMARK    1  A    between atoms: C_1  and  C_2
REMARK    2  A    between atoms: C_2  and  O_4
REMARK    3  A    between atoms: O_4  and  C_5
REMARK    4  A    between atoms: C_5  and  C_6
REMARK    5  A    between atoms: C_8  and  O_41
REMARK    6  A    between atoms: C_10  and  O_40
REMARK    7  A    between atoms: C_12  and  O_39
REMARK    8  A    between atoms: C_14  and  O_17
REMARK    9  A    between atoms: O_17  and  C_18
REMARK   10  A    between atoms: C_19  and  C_31
REMARK   11  A    between atoms: C_23  and  O_30
REMARK   12  A    between atoms: C_25  and  O_29
REMARK   13  A    between atoms: C_33  and  O_38
REMARK   14  A    between atoms: C_34  and  O_37
REMARK                            x       y       z     vdW  Elec       q    Type
REMARK                         _______ _______ _______ _____ _____    ______ ____
ROOT
ATOM      1  C   UNL     1       6.403  -0.598  24.677  0.00  0.00    +0.214 A 
ATOM      2  C   UNL     1       6.712  -1.784  23.817  0.00  0.00    +0.238 A 
ATOM      3  O   UNL     1       6.399  -1.829  22.636  0.00  0.00    -0.283 OA
ATOM      4  C   UNL     1       7.477  -2.879  24.414  0.00  0.00    +0.109 A 
ATOM      5  C   UNL     1       8.128  -2.628  25.614  0.00  0.00    +0.147 A 
ATOM      6  C   UNL     1       9.014  -3.580  26.127  0.00  0.00    +0.092 A 
ATOM      7  C   UNL     1       9.214  -4.778  25.440  0.00  0.00    +0.124 A 
ATOM      8  C   UNL     1       8.514  -5.064  24.276  0.00  0.00    +0.091 A 
ATOM      9  O   UNL     1       7.954  -1.467  26.326  0.00  0.00    -0.451 OA
ATOM     10  C   UNL     1       7.635  -4.115  23.768  0.00  0.00    +0.135 A 
ATOM     11  C   UNL     1       7.040  -0.513  25.868  0.00  0.00    +0.181 A 
ENDROOT
BRANCH  11  12
ATOM     12  C   UNL     1       6.906   0.659  26.797  0.00  0.00    +0.025 A 
ATOM     13  C   UNL     1       6.397   0.477  28.096  0.00  0.00    +0.015 A 
ATOM     14  C   UNL     1       6.325   1.540  29.009  0.00  0.00    +0.050 A 
ATOM     15  C   UNL     1       6.756   2.798  28.622  0.00  0.00    +0.158 A 
ATOM     16  C   UNL     1       7.211   3.016  27.330  0.00  0.00    +0.159 A 
ATOM     17  C   UNL     1       7.263   1.967  26.412  0.00  0.00    +0.060 A 
BRANCH  15  18
ATOM     18  O   UNL     1       6.741   3.821  29.526  0.00  0.00    -0.503 OA
ATOM     19  H   UNL     1       6.010   4.399  29.228  0.00  0.00    +0.292 HD
ENDBRANCH  15  18
BRANCH  16  20
ATOM     20  O   UNL     1       7.614   4.280  26.996  0.00  0.00    -0.503 OA
ATOM     21  H   UNL     1       6.899   4.693  26.480  0.00  0.00    +0.292 HD
ENDBRANCH  16  20
ENDBRANCH  11  12
BRANCH   7  22
ATOM     22  O   UNL     1      10.090  -5.726  25.880  0.00  0.00    -0.507 OA
ATOM     23  H   UNL     1      10.858  -5.755  25.285  0.00  0.00    +0.292 HD
ENDBRANCH   7  22
BRANCH  10  24
ATOM     24  O   UNL     1       6.909  -4.418  22.652  0.00  0.00    -0.506 OA
ATOM     25  H   UNL     1       7.379  -5.065  22.103  0.00  0.00    +0.292 HD
ENDBRANCH  10  24
BRANCH   1  26
ATOM     26  O   UNL     1       5.566   0.410  24.197  0.00  0.00    -0.453 OA
BRANCH  26  29
ATOM     27  C   UNL     1       8.037   1.752  21.880  0.00  0.00    +0.191 C 
ATOM     28  O   UNL     1       7.506   1.139  23.066  0.00  0.00    -0.330 OA
ATOM     29  C   UNL     1       6.071   1.164  23.077  0.00  0.00    +0.340 C 
ATOM     30  C   UNL     1       5.608   2.634  23.217  0.00  0.00    +0.214 C 
ATOM     31  C   UNL     1       6.286   3.496  22.128  0.00  0.00    +0.180 C 
ATOM     32  C   UNL     1       7.806   3.256  22.052  0.00  0.00    +0.178 C 
BRANCH  30  33
ATOM     33  O   UNL     1       4.173   2.718  23.107  0.00  0.00    -0.383 OA
ATOM     34  H   UNL     1       3.853   3.211  23.886  0.00  0.00    +0.210 HD
ENDBRANCH  30  33
BRANCH  31  35
ATOM     35  O   UNL     1       5.968   4.878  22.342  0.00  0.00    -0.386 OA
ATOM     36  H   UNL     1       6.411   5.157  23.168  0.00  0.00    +0.210 HD
ENDBRANCH  31  35
BRANCH  32  37
ATOM     37  O   UNL     1       8.416   3.728  23.262  0.00  0.00    -0.386 OA
ATOM     38  H   UNL     1       8.978   4.494  23.021  0.00  0.00    +0.210 HD
ENDBRANCH  32  37
BRANCH  27  39
ATOM     39  C   UNL     1       9.515   1.374  21.734  0.00  0.00    +0.266 C 
BRANCH  39  40
ATOM     40  O   UNL     1      10.214   1.372  22.994  0.00  0.00    -0.462 OA
BRANCH  40  42
ATOM     41  C   UNL     1      10.610   0.339  25.067  0.00  0.00    +0.136 C 
ATOM     42  C   UNL     1      10.356   0.162  23.599  0.00  0.00    +0.304 C 
ATOM     43  O   UNL     1      10.299  -0.923  23.039  0.00  0.00    -0.251 OA
ENDBRANCH  40  42
ENDBRANCH  39  40
ENDBRANCH  27  39
ENDBRANCH  26  29
ENDBRANCH   1  26
TORSDOF 13
ENDMDL
MODEL 7
REMARK VINA RESULT:      -6.6      2.684      5.560
REMARK  Name = 
REMARK  14 active torsions:
REMARK  status: ('A' for Active; 'I' for Inactive)
REMARK    1  A    between atoms: C_1  and  C_2
REMARK    2  A    between atoms: C_2  and  O_4
REMARK    3  A    between atoms: O_4  and  C_5
REMARK    4  A    between atoms: C_5  and  C_6
REMARK    5  A    between atoms: C_8  and  O_41
REMARK    6  A    between atoms: C_10  and  O_40
REMARK    7  A    between atoms: C_12  and  O_39
REMARK    8  A    between atoms: C_14  and  O_17
REMARK    9  A    between atoms: O_17  and  C_18
REMARK   10  A    between atoms: C_19  and  C_31
REMARK   11  A    between atoms: C_23  and  O_30
REMARK   12  A    between atoms: C_25  and  O_29
REMARK   13  A    between atoms: C_33  and  O_38
REMARK   14  A    between atoms: C_34  and  O_37
REMARK                            x       y       z     vdW  Elec       q    Type
REMARK                         _______ _______ _______ _____ _____    ______ ____
ROOT
ATOM      1  C   UNL     1       6.466  -1.200  26.697  0.00  0.00    +0.214 A 
ATOM      2  C   UNL     1       6.996   0.074  27.278  0.00  0.00    +0.238 A 
ATOM      3  O   UNL     1       8.048   0.115  27.900  0.00  0.00    -0.283 OA
ATOM      4  C   UNL     1       6.250   1.305  27.019  0.00  0.00    +0.109 A 
ATOM      5  C   UNL     1       5.293   1.276  26.013  0.00  0.00    +0.147 A 
ATOM      6  C   UNL     1       4.686   2.469  25.609  0.00  0.00    +0.092 A 
ATOM      7  C   UNL     1       5.031   3.667  26.236  0.00  0.00    +0.124 A 
ATOM      8  C   UNL     1       5.936   3.692  27.289  0.00  0.00    +0.091 A 
ATOM      9  O   UNL     1       4.919   0.120  25.376  0.00  0.00    -0.451 OA
ATOM     10  C   UNL     1       6.538   2.504  27.688  0.00  0.00    +0.135 A 
ATOM     11  C   UNL     1       5.469  -1.098  25.787  0.00  0.00    +0.181 A 
ENDROOT
BRANCH  11  12
ATOM     12  C   UNL     1       4.899  -2.274  25.048  0.00  0.00    +0.025 A 
ATOM     13  C   UNL     1       3.802  -2.978  25.577  0.00  0.00    +0.015 A 
ATOM     14  C   UNL     1       3.205  -4.037  24.877  0.00  0.00    +0.050 A 
ATOM     15  C   UNL     1       3.710  -4.404  23.640  0.00  0.00    +0.158 A 
ATOM     16  C   UNL     1       4.825  -3.762  23.121  0.00  0.00    +0.159 A 
ATOM     17  C   UNL     1       5.435  -2.725  23.824  0.00  0.00    +0.060 A 
BRANCH  15  18
ATOM     18  O   UNL     1       3.096  -5.396  22.931  0.00  0.00    -0.503 OA
ATOM     19  H   UNL     1       2.641  -5.936  23.608  0.00  0.00    +0.292 HD
ENDBRANCH  15  18
BRANCH  16  20
ATOM     20  O   UNL     1       5.291  -4.172  21.902  0.00  0.00    -0.503 OA
ATOM     21  H   UNL     1       4.638  -4.789  21.526  0.00  0.00    +0.292 HD
ENDBRANCH  16  20
ENDBRANCH  11  12
BRANCH   7  22
ATOM     22  O   UNL     1       4.493   4.862  25.859  0.00  0.00    -0.507 OA
ATOM     23  H   UNL     1       4.271   5.379  26.651  0.00  0.00    +0.292 HD
ENDBRANCH   7  22
BRANCH  10  24
ATOM     24  O   UNL     1       7.388   2.522  28.757  0.00  0.00    -0.506 OA
ATOM     25  H   UNL     1       7.542   1.623  29.087  0.00  0.00    +0.292 HD
ENDBRANCH  10  24
BRANCH   1  26
ATOM     26  O   UNL     1       7.065  -2.416  27.023  0.00  0.00    -0.453 OA
BRANCH  26  29
ATOM     27  C   UNL     1       9.779  -2.015  24.625  0.00  0.00    +0.191 C 
ATOM     28  O   UNL     1       8.469  -1.884  25.202  0.00  0.00    -0.330 OA
ATOM     29  C   UNL     1       8.329  -2.685  26.384  0.00  0.00    +0.340 C 
ATOM     30  C   UNL     1       8.372  -4.176  25.973  0.00  0.00    +0.214 C 
ATOM     31  C   UNL     1       9.638  -4.444  25.127  0.00  0.00    +0.180 C 
ATOM     32  C   UNL     1       9.818  -3.411  23.998  0.00  0.00    +0.178 C 
BRANCH  30  33
ATOM     33  O   UNL     1       8.360  -5.018  27.144  0.00  0.00    -0.383 OA
ATOM     34  H   UNL     1       8.595  -4.456  27.905  0.00  0.00    +0.210 HD
ENDBRANCH  30  33
BRANCH  31  35
ATOM     35  O   UNL     1       9.608  -5.788  24.630  0.00  0.00    -0.386 OA
ATOM     36  H   UNL     1       9.207  -6.349  25.322  0.00  0.00    +0.210 HD
ENDBRANCH  31  35
BRANCH  32  37
ATOM     37  O   UNL     1       8.755  -3.570  23.046  0.00  0.00    -0.386 OA
ATOM     38  H   UNL     1       8.113  -2.847  23.209  0.00  0.00    +0.210 HD
ENDBRANCH  32  37
BRANCH  27  39
ATOM     39  C   UNL     1      10.002  -0.885  23.614  0.00  0.00    +0.266 C 
BRANCH  39  40
ATOM     40  O   UNL     1       9.182   0.269  23.883  0.00  0.00    -0.462 OA
BRANCH  40  42
ATOM     41  C   UNL     1       8.871   2.451  24.696  0.00  0.00    +0.136 C 
ATOM     42  C   UNL     1       9.842   1.404  24.238  0.00  0.00    +0.304 C 
ATOM     43  O   UNL     1      11.052   1.568  24.184  0.00  0.00    -0.251 OA
ENDBRANCH  40  42
ENDBRANCH  39  40
ENDBRANCH  27  39
ENDBRANCH  26  29
ENDBRANCH   1  26
TORSDOF 13
ENDMDL
MODEL 8
REMARK VINA RESULT:      -6.5      2.118      7.360
REMARK  Name = 
REMARK  14 active torsions:
REMARK  status: ('A' for Active; 'I' for Inactive)
REMARK    1  A    between atoms: C_1  and  C_2
REMARK    2  A    between atoms: C_2  and  O_4
REMARK    3  A    between atoms: O_4  and  C_5
REMARK    4  A    between atoms: C_5  and  C_6
REMARK    5  A    between atoms: C_8  and  O_41
REMARK    6  A    between atoms: C_10  and  O_40
REMARK    7  A    between atoms: C_12  and  O_39
REMARK    8  A    between atoms: C_14  and  O_17
REMARK    9  A    between atoms: O_17  and  C_18
REMARK   10  A    between atoms: C_19  and  C_31
REMARK   11  A    between atoms: C_23  and  O_30
REMARK   12  A    between atoms: C_25  and  O_29
REMARK   13  A    between atoms: C_33  and  O_38
REMARK   14  A    between atoms: C_34  and  O_37
REMARK                            x       y       z     vdW  Elec       q    Type
REMARK                         _______ _______ _______ _____ _____    ______ ____
ROOT
ATOM      1  C   UNL     1       6.020  -3.291  26.203  0.00  0.00    +0.214 A 
ATOM      2  C   UNL     1       4.803  -3.967  26.755  0.00  0.00    +0.238 A 
ATOM      3  O   UNL     1       4.148  -3.481  27.665  0.00  0.00    -0.283 OA
ATOM      4  C   UNL     1       4.365  -5.210  26.119  0.00  0.00    +0.109 A 
ATOM      5  C   UNL     1       4.900  -5.518  24.875  0.00  0.00    +0.147 A 
ATOM      6  C   UNL     1       4.378  -6.595  24.152  0.00  0.00    +0.092 A 
ATOM      7  C   UNL     1       3.346  -7.359  24.698  0.00  0.00    +0.124 A 
ATOM      8  C   UNL     1       2.855  -7.098  25.970  0.00  0.00    +0.091 A 
ATOM      9  O   UNL     1       5.920  -4.799  24.305  0.00  0.00    -0.451 OA
ATOM     10  C   UNL     1       3.374  -6.026  26.686  0.00  0.00    +0.135 A 
ATOM     11  C   UNL     1       6.498  -3.745  25.020  0.00  0.00    +0.181 A 
ENDROOT
BRANCH  11  12
ATOM     12  C   UNL     1       7.650  -3.112  24.295  0.00  0.00    +0.025 A 
ATOM     13  C   UNL     1       8.972  -3.387  24.692  0.00  0.00    +0.015 A 
ATOM     14  C   UNL     1      10.070  -2.865  23.991  0.00  0.00    +0.050 A 
ATOM     15  C   UNL     1       9.850  -2.056  22.889  0.00  0.00    +0.158 A 
ATOM     16  C   UNL     1       8.557  -1.725  22.510  0.00  0.00    +0.159 A 
ATOM     17  C   UNL     1       7.464  -2.223  23.218  0.00  0.00    +0.060 A 
BRANCH  15  18
ATOM     18  O   UNL     1      10.915  -1.593  22.171  0.00  0.00    -0.503 OA
ATOM     19  H   UNL     1      11.553  -1.290  22.848  0.00  0.00    +0.292 HD
ENDBRANCH  15  18
BRANCH  16  20
ATOM     20  O   UNL     1       8.395  -0.912  21.422  0.00  0.00    -0.503 OA
ATOM     21  H   UNL     1       7.836  -1.384  20.778  0.00  0.00    +0.292 HD
ENDBRANCH  16  20
ENDBRANCH  11  12
BRANCH   7  22
ATOM     22  O   UNL     1       2.781  -8.400  24.022  0.00  0.00    -0.507 OA
ATOM     23  H   UNL     1       3.207  -9.229  24.294  0.00  0.00    +0.292 HD
ENDBRANCH   7  22
BRANCH  10  24
ATOM     24  O   UNL     1       2.926  -5.802  27.956  0.00  0.00    -0.506 OA
ATOM     25  H   UNL     1       1.962  -5.691  27.965  0.00  0.00    +0.292 HD
ENDBRANCH  10  24
BRANCH   1  26
ATOM     26  O   UNL     1       6.554  -2.179  26.853  0.00  0.00    -0.453 OA
BRANCH  26  29
ATOM     27  C   UNL     1       6.710   1.050  25.174  0.00  0.00    +0.191 C 
ATOM     28  O   UNL     1       7.169  -0.167  25.785  0.00  0.00    -0.330 OA
ATOM     29  C   UNL     1       6.091  -0.897  26.387  0.00  0.00    +0.340 C 
ATOM     30  C   UNL     1       5.567  -0.087  27.596  0.00  0.00    +0.214 C 
ATOM     31  C   UNL     1       5.234   1.355  27.148  0.00  0.00    +0.180 C 
ATOM     32  C   UNL     1       6.374   1.993  26.332  0.00  0.00    +0.178 C 
BRANCH  30  33
ATOM     33  O   UNL     1       4.400  -0.723  28.156  0.00  0.00    -0.383 OA
ATOM     34  H   UNL     1       3.754  -0.019  28.353  0.00  0.00    +0.210 HD
ENDBRANCH  30  33
BRANCH  31  35
ATOM     35  O   UNL     1       4.881   2.144  28.293  0.00  0.00    -0.386 OA
ATOM     36  H   UNL     1       5.039   3.081  28.063  0.00  0.00    +0.210 HD
ENDBRANCH  31  35
BRANCH  32  37
ATOM     37  O   UNL     1       7.514   2.176  27.185  0.00  0.00    -0.386 OA
ATOM     38  H   UNL     1       7.184   2.548  28.030  0.00  0.00    +0.210 HD
ENDBRANCH  32  37
BRANCH  27  39
ATOM     39  C   UNL     1       7.800   1.591  24.242  0.00  0.00    +0.266 C 
BRANCH  39  40
ATOM     40  O   UNL     1       9.075   1.727  24.899  0.00  0.00    -0.462 OA
BRANCH  40  42
ATOM     41  C   UNL     1      10.105   1.896  22.794  0.00  0.00    +0.136 C 
ATOM     42  C   UNL     1      10.163   1.335  24.184  0.00  0.00    +0.304 C 
ATOM     43  O   UNL     1      11.062   0.616  24.596  0.00  0.00    -0.251 OA
ENDBRANCH  40  42
ENDBRANCH  39  40
ENDBRANCH  27  39
ENDBRANCH  26  29
ENDBRANCH   1  26
TORSDOF 13
ENDMDL
MODEL 9
REMARK VINA RESULT:      -6.5      1.299      2.194
REMARK  Name = 
REMARK  14 active torsions:
REMARK  status: ('A' for Active; 'I' for Inactive)
REMARK    1  A    between atoms: C_1  and  C_2
REMARK    2  A    between atoms: C_2  and  O_4
REMARK    3  A    between atoms: O_4  and  C_5
REMARK    4  A    between atoms: C_5  and  C_6
REMARK    5  A    between atoms: C_8  and  O_41
REMARK    6  A    between atoms: C_10  and  O_40
REMARK    7  A    between atoms: C_12  and  O_39
REMARK    8  A    between atoms: C_14  and  O_17
REMARK    9  A    between atoms: O_17  and  C_18
REMARK   10  A    between atoms: C_19  and  C_31
REMARK   11  A    between atoms: C_23  and  O_30
REMARK   12  A    between atoms: C_25  and  O_29
REMARK   13  A    between atoms: C_33  and  O_38
REMARK   14  A    between atoms: C_34  and  O_37
REMARK                            x       y       z     vdW  Elec       q    Type
REMARK                         _______ _______ _______ _____ _____    ______ ____
ROOT
ATOM      1  C   UNL     1       7.641  -2.124  25.704  0.00  0.00    +0.214 A 
ATOM      2  C   UNL     1       8.562  -2.238  24.529  0.00  0.00    +0.238 A 
ATOM      3  O   UNL     1       9.020  -3.311  24.165  0.00  0.00    -0.283 OA
ATOM      4  C   UNL     1       8.851  -1.022  23.767  0.00  0.00    +0.109 A 
ATOM      5  C   UNL     1       8.029   0.077  23.977  0.00  0.00    +0.147 A 
ATOM      6  C   UNL     1       8.151   1.195  23.146  0.00  0.00    +0.092 A 
ATOM      7  C   UNL     1       9.112   1.200  22.133  0.00  0.00    +0.124 A 
ATOM      8  C   UNL     1       9.982   0.132  21.963  0.00  0.00    +0.091 A 
ATOM      9  O   UNL     1       7.078   0.117  24.966  0.00  0.00    -0.451 OA
ATOM     10  C   UNL     1       9.857  -0.977  22.791  0.00  0.00    +0.135 A 
ATOM     11  C   UNL     1       6.960  -0.963  25.847  0.00  0.00    +0.181 A 
ENDROOT
BRANCH  11  12
ATOM     12  C   UNL     1       5.932  -0.732  26.917  0.00  0.00    +0.025 A 
ATOM     13  C   UNL     1       4.675  -1.359  26.836  0.00  0.00    +0.015 A 
ATOM     14  C   UNL     1       3.721  -1.217  27.855  0.00  0.00    +0.050 A 
ATOM     15  C   UNL     1       4.017  -0.437  28.960  0.00  0.00    +0.158 A 
ATOM     16  C   UNL     1       5.228   0.235  29.038  0.00  0.00    +0.159 A 
ATOM     17  C   UNL     1       6.170   0.115  28.017  0.00  0.00    +0.060 A 
BRANCH  15  18
ATOM     18  O   UNL     1       3.113  -0.344  29.980  0.00  0.00    -0.503 OA
ATOM     19  H   UNL     1       3.502  -0.878  30.701  0.00  0.00    +0.292 HD
ENDBRANCH  15  18
BRANCH  16  20
ATOM     20  O   UNL     1       5.466   1.002  30.146  0.00  0.00    -0.503 OA
ATOM     21  H   UNL     1       6.354   1.393  30.052  0.00  0.00    +0.292 HD
ENDBRANCH  16  20
ENDBRANCH  11  12
BRANCH   7  22
ATOM     22  O   UNL     1       9.251   2.251  21.275  0.00  0.00    -0.507 OA
ATOM     23  H   UNL     1       9.504   1.918  20.398  0.00  0.00    +0.292 HD
ENDBRANCH   7  22
BRANCH  10  24
ATOM     24  O   UNL     1      10.746  -2.005  22.656  0.00  0.00    -0.506 OA
ATOM     25  H   UNL     1      11.083  -2.283  23.522  0.00  0.00    +0.292 HD
ENDBRANCH  10  24
BRANCH   1  26
ATOM     26  O   UNL     1       7.439  -3.223  26.538  0.00  0.00    -0.453 OA
BRANCH  26  29
ATOM     27  C   UNL     1       5.030  -5.025  24.484  0.00  0.00    +0.191 C 
ATOM     28  O   UNL     1       5.616  -3.941  25.223  0.00  0.00    -0.330 OA
ATOM     29  C   UNL     1       6.790  -4.359  25.934  0.00  0.00    +0.340 C 
ATOM     30  C   UNL     1       6.362  -5.340  27.052  0.00  0.00    +0.214 C 
ATOM     31  C   UNL     1       5.505  -6.475  26.445  0.00  0.00    +0.180 C 
ATOM     32  C   UNL     1       4.387  -5.940  25.530  0.00  0.00    +0.178 C 
BRANCH  30  33
ATOM     33  O   UNL     1       7.523  -5.882  27.712  0.00  0.00    -0.383 OA
ATOM     34  H   UNL     1       7.258  -6.104  28.624  0.00  0.00    +0.210 HD
ENDBRANCH  30  33
BRANCH  31  35
ATOM     35  O   UNL     1       4.993  -7.305  27.495  0.00  0.00    -0.386 OA
ATOM     36  H   UNL     1       4.173  -6.889  27.825  0.00  0.00    +0.210 HD
ENDBRANCH  31  35
BRANCH  32  37
ATOM     37  O   UNL     1       3.439  -5.212  26.327  0.00  0.00    -0.386 OA
ATOM     38  H   UNL     1       3.230  -4.387  25.841  0.00  0.00    +0.210 HD
ENDBRANCH  32  37
BRANCH  27  39
ATOM     39  C   UNL     1       4.030  -4.462  23.467  0.00  0.00    +0.266 C 
BRANCH  39  40
ATOM     40  O   UNL     1       3.200  -5.483  22.881  0.00  0.00    -0.462 OA
BRANCH  40  42
ATOM     41  C   UNL     1       1.119  -6.480  22.439  0.00  0.00    +0.136 C 
ATOM     42  C   UNL     1       1.883  -5.450  23.217  0.00  0.00    +0.304 C 
ATOM     43  O   UNL     1       1.375  -4.687  24.026  0.00  0.00    -0.251 OA
ENDBRANCH  40  42
ENDBRANCH  39  40
ENDBRANCH  27  39
ENDBRANCH  26  29
ENDBRANCH   1  26
TORSDOF 13
ENDMDL
