MODEL 1
REMARK VINA RESULT:      -7.1      0.000      0.000
REMARK  Name = 
REMARK  23 active torsions:
REMARK  status: ('A' for Active; 'I' for Inactive)
REMARK    1  A    between atoms: C_1  and  C_2
REMARK    2  A    between atoms: C_3  and  O_61
REMARK    3  A    between atoms: C_5  and  O_60
REMARK    4  A    between atoms: C_7  and  O_59
REMARK    5  A    between atoms: C_8  and  O_11
REMARK    6  A    between atoms: O_11  and  C_12
REMARK    7  A    between atoms: C_12  and  C_13
REMARK    8  A    between atoms: C_14  and  O_58
REMARK    9  A    between atoms: C_16  and  O_57
REMARK   10  A    between atoms: C_17  and  O_56
REMARK   11  A    between atoms: C_18  and  O_21
REMARK   12  A    between atoms: O_21  and  C_22
REMARK   13  A    between atoms: C_23  and  C_35
REMARK   14  A    between atoms: C_27  and  O_34
REMARK   15  A    between atoms: C_29  and  O_33
REMARK   16  A    between atoms: C_37  and  O_55
REMARK   17  A    between atoms: C_38  and  O_41
REMARK   18  A    between atoms: O_41  and  C_42
REMARK   19  A    between atoms: C_44  and  O_54
REMARK   20  A    between atoms: C_45  and  O_53
REMARK   21  A    between atoms: C_46  and  O_52
REMARK   22  A    between atoms: C_48  and  C_50
REMARK   23  A    between atoms: C_50  and  O_51
REMARK                            x       y       z     vdW  Elec       q    Type
REMARK                         _______ _______ _______ _____ _____    ______ ____
ROOT
ATOM      1  C   UNL     1       8.156   2.833  24.497  0.00  0.00    +0.214 A 
ATOM      2  C   UNL     1       8.668   4.218  24.749  0.00  0.00    +0.238 A 
ATOM      3  O   UNL     1       7.995   5.007  25.417  0.00  0.00    -0.283 OA
ATOM      4  C   UNL     1       9.983   4.598  24.218  0.00  0.00    +0.109 A 
ATOM      5  C   UNL     1      10.750   3.584  23.659  0.00  0.00    +0.147 A 
ATOM      6  C   UNL     1      12.062   3.844  23.252  0.00  0.00    +0.092 A 
ATOM      7  C   UNL     1      12.564   5.139  23.344  0.00  0.00    +0.124 A 
ATOM      8  C   UNL     1      11.787   6.178  23.838  0.00  0.00    +0.091 A 
ATOM      9  O   UNL     1      10.276   2.316  23.444  0.00  0.00    -0.451 OA
ATOM     10  C   UNL     1      10.494   5.904  24.284  0.00  0.00    +0.135 A 
ATOM     11  C   UNL     1       8.977   1.977  23.820  0.00  0.00    +0.181 A 
ENDROOT
BRANCH  11  12
ATOM     12  C   UNL     1       8.712   0.561  23.459  0.00  0.00    +0.025 A 
ATOM     13  C   UNL     1       7.389   0.135  23.400  0.00  0.00    +0.015 A 
ATOM     14  C   UNL     1       7.079  -1.207  23.143  0.00  0.00    +0.050 A 
ATOM     15  C   UNL     1       8.059  -2.201  23.033  0.00  0.00    +0.165 A 
ATOM     16  C   UNL     1       9.388  -1.812  23.164  0.00  0.00    +0.159 A 
ATOM     17  C   UNL     1       9.713  -0.438  23.370  0.00  0.00    +0.060 A 
BRANCH  16  18
ATOM     18  O   UNL     1      10.384  -2.737  23.052  0.00  0.00    -0.503 OA
ATOM     19  H   UNL     1      10.926  -2.721  23.862  0.00  0.00    +0.292 HD
ENDBRANCH  16  18
BRANCH  15  20
ATOM     20  O   UNL     1       7.500  -3.398  22.756  0.00  0.00    -0.457 OA
BRANCH  20  21
ATOM     21  C   UNL     1       7.869  -4.719  23.163  0.00  0.00    +0.339 C 
ATOM     22  O   UNL     1       6.651  -5.518  22.998  0.00  0.00    -0.331 OA
ATOM     23  C   UNL     1       5.529  -4.973  23.757  0.00  0.00    +0.179 C 
ATOM     24  C   UNL     1       5.822  -4.755  25.264  0.00  0.00    +0.177 C 
ATOM     25  C   UNL     1       7.219  -4.156  25.498  0.00  0.00    +0.180 C 
ATOM     26  C   UNL     1       8.233  -4.939  24.651  0.00  0.00    +0.214 C 
BRANCH  26  27
ATOM     27  O   UNL     1       9.584  -4.631  24.985  0.00  0.00    -0.383 OA
ATOM     28  H   UNL     1      10.124  -5.267  24.476  0.00  0.00    +0.210 HD
ENDBRANCH  26  27
BRANCH  25  29
ATOM     29  O   UNL     1       7.553  -4.194  26.895  0.00  0.00    -0.386 OA
ATOM     30  H   UNL     1       7.580  -3.283  27.213  0.00  0.00    +0.210 HD
ENDBRANCH  25  29
BRANCH  24  31
ATOM     31  O   UNL     1       5.757  -5.997  25.994  0.00  0.00    -0.386 OA
ATOM     32  H   UNL     1       6.676  -6.264  26.189  0.00  0.00    +0.210 HD
ENDBRANCH  24  31
BRANCH  23  33
ATOM     33  C   UNL     1       4.331  -5.906  23.540  0.00  0.00    +0.190 C 
BRANCH  33  34
ATOM     34  O   UNL     1       4.768  -7.266  23.581  0.00  0.00    -0.392 OA
ATOM     35  H   UNL     1       5.742  -7.226  23.653  0.00  0.00    +0.210 HD
ENDBRANCH  33  34
ENDBRANCH  23  33
ENDBRANCH  20  21
ENDBRANCH  15  20
ENDBRANCH  11  12
BRANCH  10  36
ATOM     36  O   UNL     1       9.740   6.939  24.758  0.00  0.00    -0.506 OA
ATOM     37  H   UNL     1       9.863   7.731  24.210  0.00  0.00    +0.292 HD
ENDBRANCH  10  36
BRANCH   7  38
ATOM     38  O   UNL     1      13.828   5.443  22.941  0.00  0.00    -0.507 OA
ATOM     39  H   UNL     1      13.794   6.117  22.253  0.00  0.00    +0.292 HD
ENDBRANCH   7  38
BRANCH   1  40
ATOM     40  O   UNL     1       6.933   2.696  25.038  0.00  0.00    -0.453 OA
BRANCH  40  43
ATOM     41  C   UNL     1       4.222   2.093  27.295  0.00  0.00    +0.179 C 
ATOM     42  O   UNL     1       5.063   2.595  26.255  0.00  0.00    -0.331 OA
ATOM     43  C   UNL     1       6.296   1.883  26.000  0.00  0.00    +0.340 C 
ATOM     44  C   UNL     1       7.139   1.881  27.296  0.00  0.00    +0.214 C 
ATOM     45  C   UNL     1       6.348   1.211  28.423  0.00  0.00    +0.180 C 
ATOM     46  C   UNL     1       5.022   1.969  28.621  0.00  0.00    +0.177 C 
BRANCH  46  47
ATOM     47  O   UNL     1       4.266   1.384  29.676  0.00  0.00    -0.386 OA
ATOM     48  H   UNL     1       4.084   0.458  29.426  0.00  0.00    +0.210 HD
ENDBRANCH  46  47
BRANCH  45  49
ATOM     49  O   UNL     1       7.151   1.198  29.617  0.00  0.00    -0.386 OA
ATOM     50  H   UNL     1       6.878   0.442  30.164  0.00  0.00    +0.210 HD
ENDBRANCH  45  49
BRANCH  44  51
ATOM     51  O   UNL     1       7.467   3.232  27.707  0.00  0.00    -0.383 OA
ATOM     52  H   UNL     1       6.691   3.593  28.177  0.00  0.00    +0.210 HD
ENDBRANCH  44  51
BRANCH  41  53
ATOM     53  C   UNL     1       3.402   0.877  26.792  0.00  0.00    +0.197 C 
BRANCH  53  54
ATOM     54  O   UNL     1       2.634   0.177  27.815  0.00  0.00    -0.346 OA
BRANCH  54  58
ATOM     55  C   UNL     1       0.874  -3.629  26.998  0.00  0.00    +0.041 C 
ATOM     56  C   UNL     1       1.369  -3.229  28.387  0.00  0.00    +0.149 C 
ATOM     57  O   UNL     1       1.505  -1.795  28.456  0.00  0.00    -0.343 OA
ATOM     58  C   UNL     1       2.605  -1.259  27.714  0.00  0.00    +0.282 C 
ATOM     59  C   UNL     1       3.929  -1.882  28.263  0.00  0.00    +0.201 C 
ATOM     60  C   UNL     1       3.876  -3.409  28.045  0.00  0.00    +0.179 C 
ATOM     61  C   UNL     1       2.653  -4.001  28.763  0.00  0.00    +0.174 C 
BRANCH  59  62
ATOM     62  O   UNL     1       4.068  -1.624  29.681  0.00  0.00    -0.384 OA
ATOM     63  H   UNL     1       4.126  -0.655  29.768  0.00  0.00    +0.210 HD
ENDBRANCH  59  62
BRANCH  60  64
ATOM     64  O   UNL     1       5.073  -4.059  28.494  0.00  0.00    -0.386 OA
ATOM     65  H   UNL     1       5.738  -3.963  27.783  0.00  0.00    +0.210 HD
ENDBRANCH  60  64
BRANCH  61  66
ATOM     66  O   UNL     1       2.878  -3.985  30.183  0.00  0.00    -0.387 OA
ATOM     67  H   UNL     1       3.824  -3.748  30.316  0.00  0.00    +0.210 HD
ENDBRANCH  61  66
ENDBRANCH  54  58
ENDBRANCH  53  54
ENDBRANCH  41  53
ENDBRANCH  40  43
ENDBRANCH   1  40
TORSDOF 22
ENDMDL
MODEL 2
REMARK VINA RESULT:      -7.0      2.264      6.256
REMARK  Name = 
REMARK  23 active torsions:
REMARK  status: ('A' for Active; 'I' for Inactive)
REMARK    1  A    between atoms: C_1  and  C_2
REMARK    2  A    between atoms: C_3  and  O_61
REMARK    3  A    between atoms: C_5  and  O_60
REMARK    4  A    between atoms: C_7  and  O_59
REMARK    5  A    between atoms: C_8  and  O_11
REMARK    6  A    between atoms: O_11  and  C_12
REMARK    7  A    between atoms: C_12  and  C_13
REMARK    8  A    between atoms: C_14  and  O_58
REMARK    9  A    between atoms: C_16  and  O_57
REMARK   10  A    between atoms: C_17  and  O_56
REMARK   11  A    between atoms: C_18  and  O_21
REMARK   12  A    between atoms: O_21  and  C_22
REMARK   13  A    between atoms: C_23  and  C_35
REMARK   14  A    between atoms: C_27  and  O_34
REMARK   15  A    between atoms: C_29  and  O_33
REMARK   16  A    between atoms: C_37  and  O_55
REMARK   17  A    between atoms: C_38  and  O_41
REMARK   18  A    between atoms: O_41  and  C_42
REMARK   19  A    between atoms: C_44  and  O_54
REMARK   20  A    between atoms: C_45  and  O_53
REMARK   21  A    between atoms: C_46  and  O_52
REMARK   22  A    between atoms: C_48  and  C_50
REMARK   23  A    between atoms: C_50  and  O_51
REMARK                            x       y       z     vdW  Elec       q    Type
REMARK                         _______ _______ _______ _____ _____    ______ ____
ROOT
ATOM      1  C   UNL     1       6.765   1.984  25.370  0.00  0.00    +0.214 A 
ATOM      2  C   UNL     1       7.391   3.339  25.235  0.00  0.00    +0.238 A 
ATOM      3  O   UNL     1       7.907   3.670  24.164  0.00  0.00    -0.283 OA
ATOM      4  C   UNL     1       7.349   4.260  26.377  0.00  0.00    +0.109 A 
ATOM      5  C   UNL     1       6.573   3.876  27.463  0.00  0.00    +0.147 A 
ATOM      6  C   UNL     1       6.380   4.759  28.530  0.00  0.00    +0.092 A 
ATOM      7  C   UNL     1       7.032   5.989  28.529  0.00  0.00    +0.124 A 
ATOM      8  C   UNL     1       7.865   6.359  27.482  0.00  0.00    +0.091 A 
ATOM      9  O   UNL     1       5.994   2.639  27.572  0.00  0.00    -0.451 OA
ATOM     10  C   UNL     1       8.018   5.494  26.399  0.00  0.00    +0.135 A 
ATOM     11  C   UNL     1       6.140   1.701  26.550  0.00  0.00    +0.181 A 
ENDROOT
BRANCH  11  12
ATOM     12  C   UNL     1       5.437   0.448  26.927  0.00  0.00    +0.025 A 
ATOM     13  C   UNL     1       6.173  -0.732  26.961  0.00  0.00    +0.015 A 
ATOM     14  C   UNL     1       5.550  -1.958  27.232  0.00  0.00    +0.050 A 
ATOM     15  C   UNL     1       4.163  -2.084  27.380  0.00  0.00    +0.165 A 
ATOM     16  C   UNL     1       3.397  -0.927  27.275  0.00  0.00    +0.159 A 
ATOM     17  C   UNL     1       4.031   0.332  27.055  0.00  0.00    +0.060 A 
BRANCH  16  18
ATOM     18  O   UNL     1       2.043  -0.991  27.425  0.00  0.00    -0.503 OA
ATOM     19  H   UNL     1       1.646  -1.315  26.596  0.00  0.00    +0.292 HD
ENDBRANCH  16  18
BRANCH  15  20
ATOM     20  O   UNL     1       3.824  -3.359  27.663  0.00  0.00    -0.457 OA
BRANCH  20  21
ATOM     21  C   UNL     1       3.943  -4.113  28.872  0.00  0.00    +0.339 C 
ATOM     22  O   UNL     1       5.349  -4.522  28.925  0.00  0.00    -0.331 OA
ATOM     23  C   UNL     1       5.749  -5.271  27.737  0.00  0.00    +0.179 C 
ATOM     24  C   UNL     1       4.851  -6.494  27.420  0.00  0.00    +0.177 C 
ATOM     25  C   UNL     1       3.358  -6.179  27.614  0.00  0.00    +0.180 C 
ATOM     26  C   UNL     1       3.183  -5.458  28.959  0.00  0.00    +0.214 C 
BRANCH  26  27
ATOM     27  O   UNL     1       1.818  -5.347  29.351  0.00  0.00    -0.383 OA
ATOM     28  H   UNL     1       1.836  -4.888  30.213  0.00  0.00    +0.210 HD
ENDBRANCH  26  27
BRANCH  25  29
ATOM     29  O   UNL     1       2.579  -7.385  27.552  0.00  0.00    -0.386 OA
ATOM     30  H   UNL     1       1.658  -7.144  27.711  0.00  0.00    +0.210 HD
ENDBRANCH  25  29
BRANCH  24  31
ATOM     31  O   UNL     1       5.170  -7.612  28.274  0.00  0.00    -0.386 OA
ATOM     32  H   UNL     1       6.143  -7.699  28.282  0.00  0.00    +0.210 HD
ENDBRANCH  24  31
BRANCH  23  33
ATOM     33  C   UNL     1       7.217  -5.676  27.922  0.00  0.00    +0.190 C 
BRANCH  33  34
ATOM     34  O   UNL     1       7.788  -6.003  26.654  0.00  0.00    -0.392 OA
ATOM     35  H   UNL     1       8.365  -6.775  26.817  0.00  0.00    +0.210 HD
ENDBRANCH  33  34
ENDBRANCH  23  33
ENDBRANCH  20  21
ENDBRANCH  15  20
ENDBRANCH  11  12
BRANCH  10  36
ATOM     36  O   UNL     1       8.850   5.870  25.383  0.00  0.00    -0.506 OA
ATOM     37  H   UNL     1       9.598   6.385  25.725  0.00  0.00    +0.292 HD
ENDBRANCH  10  36
BRANCH   7  38
ATOM     38  O   UNL     1       6.891   6.871  29.555  0.00  0.00    -0.507 OA
ATOM     39  H   UNL     1       6.522   6.419  30.321  0.00  0.00    +0.292 HD
ENDBRANCH   7  38
BRANCH   1  40
ATOM     40  O   UNL     1       6.934   1.290  24.231  0.00  0.00    -0.453 OA
BRANCH  40  43
ATOM     41  C   UNL     1       9.483  -1.199  24.562  0.00  0.00    +0.179 C 
ATOM     42  O   UNL     1       8.593  -0.101  24.774  0.00  0.00    -0.331 OA
ATOM     43  C   UNL     1       7.520   0.074  23.821  0.00  0.00    +0.340 C 
ATOM     44  C   UNL     1       8.136   0.261  22.415  0.00  0.00    +0.214 C 
ATOM     45  C   UNL     1       8.985  -0.963  22.059  0.00  0.00    +0.180 C 
ATOM     46  C   UNL     1      10.078  -1.141  23.129  0.00  0.00    +0.177 C 
BRANCH  46  47
ATOM     47  O   UNL     1      10.901  -2.262  22.821  0.00  0.00    -0.386 OA
ATOM     48  H   UNL     1      10.922  -2.349  21.848  0.00  0.00    +0.210 HD
ENDBRANCH  46  47
BRANCH  45  49
ATOM     49  O   UNL     1       9.536  -0.785  20.742  0.00  0.00    -0.386 OA
ATOM     50  H   UNL     1       8.816  -0.539  20.137  0.00  0.00    +0.210 HD
ENDBRANCH  45  49
BRANCH  44  51
ATOM     51  O   UNL     1       8.985   1.435  22.370  0.00  0.00    -0.383 OA
ATOM     52  H   UNL     1       9.240   1.650  23.288  0.00  0.00    +0.210 HD
ENDBRANCH  44  51
BRANCH  41  53
ATOM     53  C   UNL     1       8.841  -2.521  25.060  0.00  0.00    +0.197 C 
BRANCH  53  54
ATOM     54  O   UNL     1       8.720  -3.571  24.056  0.00  0.00    -0.346 OA
BRANCH  54  58
ATOM     55  C   UNL     1       4.451  -3.411  24.077  0.00  0.00    +0.041 C 
ATOM     56  C   UNL     1       5.228  -4.726  24.085  0.00  0.00    +0.149 C 
ATOM     57  O   UNL     1       6.587  -4.480  24.501  0.00  0.00    -0.343 OA
ATOM     58  C   UNL     1       7.397  -3.801  23.536  0.00  0.00    +0.282 C 
ATOM     59  C   UNL     1       7.454  -4.665  22.235  0.00  0.00    +0.201 C 
ATOM     60  C   UNL     1       6.021  -4.801  21.677  0.00  0.00    +0.179 C 
ATOM     61  C   UNL     1       5.106  -5.451  22.727  0.00  0.00    +0.174 C 
BRANCH  59  62
ATOM     62  O   UNL     1       7.964  -5.990  22.519  0.00  0.00    -0.384 OA
ATOM     63  H   UNL     1       7.263  -6.439  23.026  0.00  0.00    +0.210 HD
ENDBRANCH  59  62
BRANCH  60  64
ATOM     64  O   UNL     1       5.986  -5.556  20.458  0.00  0.00    -0.386 OA
ATOM     65  H   UNL     1       5.059  -5.558  20.146  0.00  0.00    +0.210 HD
ENDBRANCH  60  64
BRANCH  61  66
ATOM     66  O   UNL     1       5.435  -6.847  22.846  0.00  0.00    -0.387 OA
ATOM     67  H   UNL     1       5.132  -7.279  22.016  0.00  0.00    +0.210 HD
ENDBRANCH  61  66
ENDBRANCH  54  58
ENDBRANCH  53  54
ENDBRANCH  41  53
ENDBRANCH  40  43
ENDBRANCH   1  40
TORSDOF 22
ENDMDL
MODEL 3
REMARK VINA RESULT:      -6.9      2.459      9.981
REMARK  Name = 
REMARK  23 active torsions:
REMARK  status: ('A' for Active; 'I' for Inactive)
REMARK    1  A    between atoms: C_1  and  C_2
REMARK    2  A    between atoms: C_3  and  O_61
REMARK    3  A    between atoms: C_5  and  O_60
REMARK    4  A    between atoms: C_7  and  O_59
REMARK    5  A    between atoms: C_8  and  O_11
REMARK    6  A    between atoms: O_11  and  C_12
REMARK    7  A    between atoms: C_12  and  C_13
REMARK    8  A    between atoms: C_14  and  O_58
REMARK    9  A    between atoms: C_16  and  O_57
REMARK   10  A    between atoms: C_17  and  O_56
REMARK   11  A    between atoms: C_18  and  O_21
REMARK   12  A    between atoms: O_21  and  C_22
REMARK   13  A    between atoms: C_23  and  C_35
REMARK   14  A    between atoms: C_27  and  O_34
REMARK   15  A    between atoms: C_29  and  O_33
REMARK   16  A    between atoms: C_37  and  O_55
REMARK   17  A    between atoms: C_38  and  O_41
REMARK   18  A    between atoms: O_41  and  C_42
REMARK   19  A    between atoms: C_44  and  O_54
REMARK   20  A    between atoms: C_45  and  O_53
REMARK   21  A    between atoms: C_46  and  O_52
REMARK   22  A    between atoms: C_48  and  C_50
REMARK   23  A    between atoms: C_50  and  O_51
REMARK                            x       y       z     vdW  Elec       q    Type
REMARK                         _______ _______ _______ _____ _____    ______ ____
ROOT
ATOM      1  C   UNL     1       6.625  -2.805  24.482  0.00  0.00    +0.214 A 
ATOM      2  C   UNL     1       6.470  -4.157  23.856  0.00  0.00    +0.238 A 
ATOM      3  O   UNL     1       7.198  -4.483  22.915  0.00  0.00    -0.283 OA
ATOM      4  C   UNL     1       5.469  -5.083  24.401  0.00  0.00    +0.109 A 
ATOM      5  C   UNL     1       4.844  -4.705  25.583  0.00  0.00    +0.147 A 
ATOM      6  C   UNL     1       3.978  -5.593  26.229  0.00  0.00    +0.092 A 
ATOM      7  C   UNL     1       3.691  -6.821  25.640  0.00  0.00    +0.124 A 
ATOM      8  C   UNL     1       4.255  -7.185  24.425  0.00  0.00    +0.091 A 
ATOM      9  O   UNL     1       5.003  -3.470  26.155  0.00  0.00    -0.451 OA
ATOM     10  C   UNL     1       5.154  -6.315  23.807  0.00  0.00    +0.135 A 
ATOM     11  C   UNL     1       5.849  -2.528  25.571  0.00  0.00    +0.181 A 
ENDROOT
BRANCH  11  12
ATOM     12  C   UNL     1       5.824  -1.278  26.373  0.00  0.00    +0.025 A 
ATOM     13  C   UNL     1       4.740  -0.419  26.215  0.00  0.00    +0.015 A 
ATOM     14  C   UNL     1       4.698   0.811  26.884  0.00  0.00    +0.050 A 
ATOM     15  C   UNL     1       5.765   1.289  27.655  0.00  0.00    +0.165 A 
ATOM     16  C   UNL     1       6.891   0.480  27.767  0.00  0.00    +0.159 A 
ATOM     17  C   UNL     1       6.918  -0.798  27.133  0.00  0.00    +0.060 A 
BRANCH  16  18
ATOM     18  O   UNL     1       7.954   0.891  28.517  0.00  0.00    -0.503 OA
ATOM     19  H   UNL     1       8.709   0.297  28.351  0.00  0.00    +0.292 HD
ENDBRANCH  16  18
BRANCH  15  20
ATOM     20  O   UNL     1       5.459   2.480  28.213  0.00  0.00    -0.457 OA
BRANCH  20  21
ATOM     21  C   UNL     1       5.563   2.933  29.565  0.00  0.00    +0.339 C 
ATOM     22  O   UNL     1       4.361   3.743  29.784  0.00  0.00    -0.331 OA
ATOM     23  C   UNL     1       4.247   4.832  28.818  0.00  0.00    +0.179 C 
ATOM     24  C   UNL     1       5.497   5.746  28.735  0.00  0.00    +0.177 C 
ATOM     25  C   UNL     1       6.805   4.938  28.773  0.00  0.00    +0.180 C 
ATOM     26  C   UNL     1       6.711   3.911  29.911  0.00  0.00    +0.214 C 
BRANCH  26  27
ATOM     27  O   UNL     1       7.960   3.286  30.193  0.00  0.00    -0.383 OA
ATOM     28  H   UNL     1       7.759   2.333  30.264  0.00  0.00    +0.210 HD
ENDBRANCH  26  27
BRANCH  25  29
ATOM     29  O   UNL     1       7.931   5.815  28.941  0.00  0.00    -0.386 OA
ATOM     30  H   UNL     1       7.938   6.427  28.195  0.00  0.00    +0.210 HD
ENDBRANCH  25  29
BRANCH  24  31
ATOM     31  O   UNL     1       5.535   6.680  29.835  0.00  0.00    -0.386 OA
ATOM     32  H   UNL     1       6.447   7.022  29.889  0.00  0.00    +0.210 HD
ENDBRANCH  24  31
BRANCH  23  33
ATOM     33  C   UNL     1       2.983   5.627  29.168  0.00  0.00    +0.190 C 
BRANCH  33  34
ATOM     34  O   UNL     1       2.997   6.878  28.479  0.00  0.00    -0.392 OA
ATOM     35  H   UNL     1       2.303   7.419  28.904  0.00  0.00    +0.210 HD
ENDBRANCH  33  34
ENDBRANCH  23  33
ENDBRANCH  20  21
ENDBRANCH  15  20
ENDBRANCH  11  12
BRANCH  10  36
ATOM     36  O   UNL     1       5.691  -6.685  22.608  0.00  0.00    -0.506 OA
ATOM     37  H   UNL     1       5.063  -6.521  21.886  0.00  0.00    +0.292 HD
ENDBRANCH  10  36
BRANCH   7  38
ATOM     38  O   UNL     1       2.838  -7.707  26.222  0.00  0.00    -0.507 OA
ATOM     39  H   UNL     1       3.038  -8.598  25.913  0.00  0.00    +0.292 HD
ENDBRANCH   7  38
BRANCH   1  40
ATOM     40  O   UNL     1       7.567  -2.105  23.825  0.00  0.00    -0.453 OA
BRANCH  40  43
ATOM     41  C   UNL     1       8.374   0.699  21.754  0.00  0.00    +0.179 C 
ATOM     42  O   UNL     1       7.902  -0.553  22.256  0.00  0.00    -0.331 OA
ATOM     43  C   UNL     1       7.969  -0.760  23.685  0.00  0.00    +0.340 C 
ATOM     44  C   UNL     1       9.442  -0.624  24.134  0.00  0.00    +0.214 C 
ATOM     45  C   UNL     1       9.967   0.765  23.761  0.00  0.00    +0.180 C 
ATOM     46  C   UNL     1       9.826   0.960  22.240  0.00  0.00    +0.177 C 
BRANCH  46  47
ATOM     47  O   UNL     1      10.322   2.237  21.852  0.00  0.00    -0.386 OA
ATOM     48  H   UNL     1      10.714   2.140  20.963  0.00  0.00    +0.210 HD
ENDBRANCH  46  47
BRANCH  45  49
ATOM     49  O   UNL     1      11.331   0.886  24.201  0.00  0.00    -0.386 OA
ATOM     50  H   UNL     1      11.618   1.805  24.068  0.00  0.00    +0.210 HD
ENDBRANCH  45  49
BRANCH  44  51
ATOM     51  O   UNL     1      10.277  -1.617  23.488  0.00  0.00    -0.383 OA
ATOM     52  H   UNL     1      10.779  -1.166  22.782  0.00  0.00    +0.210 HD
ENDBRANCH  44  51
BRANCH  41  53
ATOM     53  C   UNL     1       7.302   1.801  21.951  0.00  0.00    +0.197 C 
BRANCH  53  54
ATOM     54  O   UNL     1       7.742   3.159  21.651  0.00  0.00    -0.346 OA
BRANCH  54  58
ATOM     55  C   UNL     1       5.502   6.471  23.155  0.00  0.00    +0.041 C 
ATOM     56  C   UNL     1       7.003   6.545  22.883  0.00  0.00    +0.149 C 
ATOM     57  O   UNL     1       7.388   5.466  22.007  0.00  0.00    -0.343 OA
ATOM     58  C   UNL     1       7.380   4.169  22.611  0.00  0.00    +0.282 C 
ATOM     59  C   UNL     1       8.378   4.174  23.815  0.00  0.00    +0.201 C 
ATOM     60  C   UNL     1       7.888   5.210  24.849  0.00  0.00    +0.179 C 
ATOM     61  C   UNL     1       7.804   6.601  24.201  0.00  0.00    +0.174 C 
BRANCH  59  62
ATOM     62  O   UNL     1       9.706   4.550  23.380  0.00  0.00    -0.384 OA
ATOM     63  H   UNL     1       9.745   5.521  23.460  0.00  0.00    +0.210 HD
ENDBRANCH  59  62
BRANCH  60  64
ATOM     64  O   UNL     1       8.733   5.256  26.008  0.00  0.00    -0.386 OA
ATOM     65  H   UNL     1       9.253   6.082  25.954  0.00  0.00    +0.210 HD
ENDBRANCH  60  64
BRANCH  61  66
ATOM     66  O   UNL     1       9.133   7.108  23.987  0.00  0.00    -0.387 OA
ATOM     67  H   UNL     1       9.754   6.388  24.239  0.00  0.00    +0.210 HD
ENDBRANCH  61  66
ENDBRANCH  54  58
ENDBRANCH  53  54
ENDBRANCH  41  53
ENDBRANCH  40  43
ENDBRANCH   1  40
TORSDOF 22
ENDMDL
MODEL 4
REMARK VINA RESULT:      -6.8      2.216      6.470
REMARK  Name = 
REMARK  23 active torsions:
REMARK  status: ('A' for Active; 'I' for Inactive)
REMARK    1  A    between atoms: C_1  and  C_2
REMARK    2  A    between atoms: C_3  and  O_61
REMARK    3  A    between atoms: C_5  and  O_60
REMARK    4  A    between atoms: C_7  and  O_59
REMARK    5  A    between atoms: C_8  and  O_11
REMARK    6  A    between atoms: O_11  and  C_12
REMARK    7  A    between atoms: C_12  and  C_13
REMARK    8  A    between atoms: C_14  and  O_58
REMARK    9  A    between atoms: C_16  and  O_57
REMARK   10  A    between atoms: C_17  and  O_56
REMARK   11  A    between atoms: C_18  and  O_21
REMARK   12  A    between atoms: O_21  and  C_22
REMARK   13  A    between atoms: C_23  and  C_35
REMARK   14  A    between atoms: C_27  and  O_34
REMARK   15  A    between atoms: C_29  and  O_33
REMARK   16  A    between atoms: C_37  and  O_55
REMARK   17  A    between atoms: C_38  and  O_41
REMARK   18  A    between atoms: O_41  and  C_42
REMARK   19  A    between atoms: C_44  and  O_54
REMARK   20  A    between atoms: C_45  and  O_53
REMARK   21  A    between atoms: C_46  and  O_52
REMARK   22  A    between atoms: C_48  and  C_50
REMARK   23  A    between atoms: C_50  and  O_51
REMARK                            x       y       z     vdW  Elec       q    Type
REMARK                         _______ _______ _______ _____ _____    ______ ____
ROOT
ATOM      1  C   UNL     1       6.594   2.198  27.116  0.00  0.00    +0.214 A 
ATOM      2  C   UNL     1       6.638   3.626  27.567  0.00  0.00    +0.238 A 
ATOM      3  O   UNL     1       7.570   4.352  27.212  0.00  0.00    -0.283 OA
ATOM      4  C   UNL     1       5.546   4.142  28.402  0.00  0.00    +0.109 A 
ATOM      5  C   UNL     1       4.446   3.312  28.578  0.00  0.00    +0.147 A 
ATOM      6  C   UNL     1       3.315   3.786  29.250  0.00  0.00    +0.092 A 
ATOM      7  C   UNL     1       3.331   5.063  29.804  0.00  0.00    +0.124 A 
ATOM      8  C   UNL     1       4.449   5.880  29.694  0.00  0.00    +0.091 A 
ATOM      9  O   UNL     1       4.411   2.011  28.151  0.00  0.00    -0.451 OA
ATOM     10  C   UNL     1       5.558   5.420  28.984  0.00  0.00    +0.135 A 
ATOM     11  C   UNL     1       5.500   1.464  27.473  0.00  0.00    +0.181 A 
ENDROOT
BRANCH  11  12
ATOM     12  C   UNL     1       5.213   0.044  27.143  0.00  0.00    +0.025 A 
ATOM     13  C   UNL     1       5.305  -0.352  25.812  0.00  0.00    +0.015 A 
ATOM     14  C   UNL     1       4.969  -1.657  25.428  0.00  0.00    +0.050 A 
ATOM     15  C   UNL     1       4.434  -2.593  26.321  0.00  0.00    +0.165 A 
ATOM     16  C   UNL     1       4.261  -2.196  27.643  0.00  0.00    +0.159 A 
ATOM     17  C   UNL     1       4.653  -0.887  28.053  0.00  0.00    +0.060 A 
BRANCH  16  18
ATOM     18  O   UNL     1       3.757  -3.073  28.558  0.00  0.00    -0.503 OA
ATOM     19  H   UNL     1       4.265  -2.996  29.386  0.00  0.00    +0.292 HD
ENDBRANCH  16  18
BRANCH  15  20
ATOM     20  O   UNL     1       4.226  -3.778  25.708  0.00  0.00    -0.457 OA
BRANCH  20  21
ATOM     21  C   UNL     1       3.014  -4.439  25.337  0.00  0.00    +0.339 C 
ATOM     22  O   UNL     1       2.575  -5.132  26.550  0.00  0.00    -0.331 OA
ATOM     23  C   UNL     1       3.594  -6.043  27.064  0.00  0.00    +0.179 C 
ATOM     24  C   UNL     1       4.115  -7.069  26.024  0.00  0.00    +0.177 C 
ATOM     25  C   UNL     1       4.339  -6.428  24.645  0.00  0.00    +0.180 C 
ATOM     26  C   UNL     1       3.106  -5.580  24.296  0.00  0.00    +0.214 C 
BRANCH  26  27
ATOM     27  O   UNL     1       3.101  -5.149  22.938  0.00  0.00    -0.383 OA
ATOM     28  H   UNL     1       2.768  -5.913  22.428  0.00  0.00    +0.210 HD
ENDBRANCH  26  27
BRANCH  25  29
ATOM     29  O   UNL     1       4.583  -7.441  23.655  0.00  0.00    -0.386 OA
ATOM     30  H   UNL     1       4.811  -8.255  24.122  0.00  0.00    +0.210 HD
ENDBRANCH  25  29
BRANCH  24  31
ATOM     31  O   UNL     1       3.183  -8.156  25.850  0.00  0.00    -0.386 OA
ATOM     32  H   UNL     1       2.407  -7.961  26.410  0.00  0.00    +0.210 HD
ENDBRANCH  24  31
BRANCH  23  33
ATOM     33  C   UNL     1       3.011  -6.734  28.302  0.00  0.00    +0.190 C 
BRANCH  33  34
ATOM     34  O   UNL     1       4.011  -7.552  28.911  0.00  0.00    -0.392 OA
ATOM     35  H   UNL     1       3.595  -8.428  29.032  0.00  0.00    +0.210 HD
ENDBRANCH  33  34
ENDBRANCH  23  33
ENDBRANCH  20  21
ENDBRANCH  15  20
ENDBRANCH  11  12
BRANCH  10  36
ATOM     36  O   UNL     1       6.652   6.232  28.896  0.00  0.00    -0.506 OA
ATOM     37  H   UNL     1       6.879   6.401  27.968  0.00  0.00    +0.292 HD
ENDBRANCH  10  36
BRANCH   7  38
ATOM     38  O   UNL     1       2.262   5.558  30.484  0.00  0.00    -0.507 OA
ATOM     39  H   UNL     1       1.719   4.831  30.807  0.00  0.00    +0.292 HD
ENDBRANCH   7  38
BRANCH   1  40
ATOM     40  O   UNL     1       7.691   1.917  26.390  0.00  0.00    -0.453 OA
BRANCH  40  43
ATOM     41  C   UNL     1      10.107   1.155  23.863  0.00  0.00    +0.179 C 
ATOM     42  O   UNL     1       9.447   1.432  25.100  0.00  0.00    -0.331 OA
ATOM     43  C   UNL     1       8.003   1.505  25.077  0.00  0.00    +0.340 C 
ATOM     44  C   UNL     1       7.584   2.617  24.087  0.00  0.00    +0.214 C 
ATOM     45  C   UNL     1       8.133   2.299  22.694  0.00  0.00    +0.180 C 
ATOM     46  C   UNL     1       9.666   2.176  22.779  0.00  0.00    +0.177 C 
BRANCH  46  47
ATOM     47  O   UNL     1      10.216   1.898  21.495  0.00  0.00    -0.386 OA
ATOM     48  H   UNL     1       9.972   0.980  21.265  0.00  0.00    +0.210 HD
ENDBRANCH  46  47
BRANCH  45  49
ATOM     49  O   UNL     1       7.719   3.329  21.779  0.00  0.00    -0.386 OA
ATOM     50  H   UNL     1       6.966   2.997  21.262  0.00  0.00    +0.210 HD
ENDBRANCH  45  49
BRANCH  44  51
ATOM     51  O   UNL     1       8.102   3.906  24.500  0.00  0.00    -0.383 OA
ATOM     52  H   UNL     1       8.795   4.162  23.863  0.00  0.00    +0.210 HD
ENDBRANCH  44  51
BRANCH  41  53
ATOM     53  C   UNL     1      10.046  -0.361  23.543  0.00  0.00    +0.197 C 
BRANCH  53  54
ATOM     54  O   UNL     1       8.705  -0.912  23.392  0.00  0.00    -0.346 OA
BRANCH  54  58
ATOM     55  C   UNL     1       7.413  -4.799  22.179  0.00  0.00    +0.041 C 
ATOM     56  C   UNL     1       7.009  -4.174  23.513  0.00  0.00    +0.149 C 
ATOM     57  O   UNL     1       7.222  -2.749  23.461  0.00  0.00    -0.343 OA
ATOM     58  C   UNL     1       8.595  -2.345  23.484  0.00  0.00    +0.282 C 
ATOM     59  C   UNL     1       9.247  -2.869  24.805  0.00  0.00    +0.201 C 
ATOM     60  C   UNL     1       9.180  -4.411  24.803  0.00  0.00    +0.179 C 
ATOM     61  C   UNL     1       7.718  -4.874  24.692  0.00  0.00    +0.174 C 
BRANCH  59  62
ATOM     62  O   UNL     1       8.529  -2.378  25.962  0.00  0.00    -0.384 OA
ATOM     63  H   UNL     1       9.148  -1.784  26.424  0.00  0.00    +0.210 HD
ENDBRANCH  59  62
BRANCH  60  64
ATOM     64  O   UNL     1       9.789  -4.979  25.971  0.00  0.00    -0.386 OA
ATOM     65  H   UNL     1       9.281  -4.663  26.744  0.00  0.00    +0.210 HD
ENDBRANCH  60  64
BRANCH  61  66
ATOM     66  O   UNL     1       7.043  -4.621  25.936  0.00  0.00    -0.387 OA
ATOM     67  H   UNL     1       7.575  -5.056  26.640  0.00  0.00    +0.210 HD
ENDBRANCH  61  66
ENDBRANCH  54  58
ENDBRANCH  53  54
ENDBRANCH  41  53
ENDBRANCH  40  43
ENDBRANCH   1  40
TORSDOF 22
ENDMDL
MODEL 5
REMARK VINA RESULT:      -6.7      2.647      7.588
REMARK  Name = 
REMARK  23 active torsions:
REMARK  status: ('A' for Active; 'I' for Inactive)
REMARK    1  A    between atoms: C_1  and  C_2
REMARK    2  A    between atoms: C_3  and  O_61
REMARK    3  A    between atoms: C_5  and  O_60
REMARK    4  A    between atoms: C_7  and  O_59
REMARK    5  A    between atoms: C_8  and  O_11
REMARK    6  A    between atoms: O_11  and  C_12
REMARK    7  A    between atoms: C_12  and  C_13
REMARK    8  A    between atoms: C_14  and  O_58
REMARK    9  A    between atoms: C_16  and  O_57
REMARK   10  A    between atoms: C_17  and  O_56
REMARK   11  A    between atoms: C_18  and  O_21
REMARK   12  A    between atoms: O_21  and  C_22
REMARK   13  A    between atoms: C_23  and  C_35
REMARK   14  A    between atoms: C_27  and  O_34
REMARK   15  A    between atoms: C_29  and  O_33
REMARK   16  A    between atoms: C_37  and  O_55
REMARK   17  A    between atoms: C_38  and  O_41
REMARK   18  A    between atoms: O_41  and  C_42
REMARK   19  A    between atoms: C_44  and  O_54
REMARK   20  A    between atoms: C_45  and  O_53
REMARK   21  A    between atoms: C_46  and  O_52
REMARK   22  A    between atoms: C_48  and  C_50
REMARK   23  A    between atoms: C_50  and  O_51
REMARK                            x       y       z     vdW  Elec       q    Type
REMARK                         _______ _______ _______ _____ _____    ______ ____
ROOT
ATOM      1  C   UNL     1       6.281  -0.800  26.783  0.00  0.00    +0.214 A 
ATOM      2  C   UNL     1       6.806   0.573  27.071  0.00  0.00    +0.238 A 
ATOM      3  O   UNL     1       7.995   0.725  27.363  0.00  0.00    -0.283 OA
ATOM      4  C   UNL     1       5.894   1.720  26.969  0.00  0.00    +0.109 A 
ATOM      5  C   UNL     1       4.635   1.473  26.439  0.00  0.00    +0.147 A 
ATOM      6  C   UNL     1       3.762   2.538  26.190  0.00  0.00    +0.092 A 
ATOM      7  C   UNL     1       4.136   3.829  26.548  0.00  0.00    +0.124 A 
ATOM      8  C   UNL     1       5.366   4.083  27.141  0.00  0.00    +0.091 A 
ATOM      9  O   UNL     1       4.168   0.215  26.166  0.00  0.00    -0.451 OA
ATOM     10  C   UNL     1       6.251   3.025  27.345  0.00  0.00    +0.135 A 
ATOM     11  C   UNL     1       4.978  -0.899  26.388  0.00  0.00    +0.181 A 
ENDROOT
BRANCH  11  12
ATOM     12  C   UNL     1       4.228  -2.132  26.033  0.00  0.00    +0.025 A 
ATOM     13  C   UNL     1       3.560  -2.809  27.048  0.00  0.00    +0.015 A 
ATOM     14  C   UNL     1       2.902  -4.019  26.790  0.00  0.00    +0.050 A 
ATOM     15  C   UNL     1       2.961  -4.661  25.547  0.00  0.00    +0.165 A 
ATOM     16  C   UNL     1       3.688  -4.040  24.536  0.00  0.00    +0.159 A 
ATOM     17  C   UNL     1       4.313  -2.780  24.776  0.00  0.00    +0.060 A 
BRANCH  16  18
ATOM     18  O   UNL     1       3.766  -4.615  23.302  0.00  0.00    -0.503 OA
ATOM     19  H   UNL     1       4.692  -4.587  22.996  0.00  0.00    +0.292 HD
ENDBRANCH  16  18
BRANCH  15  20
ATOM     20  O   UNL     1       2.222  -5.790  25.554  0.00  0.00    -0.457 OA
BRANCH  20  21
ATOM     21  C   UNL     1       0.901  -6.046  25.070  0.00  0.00    +0.339 C 
ATOM     22  O   UNL     1       0.443  -7.216  25.824  0.00  0.00    -0.331 OA
ATOM     23  C   UNL     1       1.343  -8.356  25.673  0.00  0.00    +0.179 C 
ATOM     24  C   UNL     1       1.632  -8.751  24.202  0.00  0.00    +0.177 C 
ATOM     25  C   UNL     1       1.857  -7.520  23.308  0.00  0.00    +0.180 C 
ATOM     26  C   UNL     1       0.748  -6.498  23.598  0.00  0.00    +0.214 C 
BRANCH  26  27
ATOM     27  O   UNL     1       0.718  -5.435  22.649  0.00  0.00    -0.383 OA
ATOM     28  H   UNL     1       0.547  -5.865  21.789  0.00  0.00    +0.210 HD
ENDBRANCH  26  27
BRANCH  25  29
ATOM     29  O   UNL     1       1.878  -7.904  21.923  0.00  0.00    -0.386 OA
ATOM     30  H   UNL     1       1.913  -8.867  21.888  0.00  0.00    +0.210 HD
ENDBRANCH  25  29
BRANCH  24  31
ATOM     31  O   UNL     1       0.535  -9.499  23.638  0.00  0.00    -0.386 OA
ATOM     32  H   UNL     1      -0.079  -8.853  23.240  0.00  0.00    +0.210 HD
ENDBRANCH  24  31
BRANCH  23  33
ATOM     33  C   UNL     1       0.745  -9.522  26.469  0.00  0.00    +0.190 C 
BRANCH  33  34
ATOM     34  O   UNL     1       1.328 -10.751  26.031  0.00  0.00    -0.392 OA
ATOM     35  H   UNL     1       0.577 -11.352  25.864  0.00  0.00    +0.210 HD
ENDBRANCH  33  34
ENDBRANCH  23  33
ENDBRANCH  20  21
ENDBRANCH  15  20
ENDBRANCH  11  12
BRANCH  10  36
ATOM     36  O   UNL     1       7.451   3.291  27.940  0.00  0.00    -0.506 OA
ATOM     37  H   UNL     1       8.126   3.492  27.273  0.00  0.00    +0.292 HD
ENDBRANCH  10  36
BRANCH   7  38
ATOM     38  O   UNL     1       3.312   4.892  26.345  0.00  0.00    -0.507 OA
ATOM     39  H   UNL     1       3.210   5.046  25.399  0.00  0.00    +0.292 HD
ENDBRANCH   7  38
BRANCH   1  40
ATOM     40  O   UNL     1       7.258  -1.706  26.957  0.00  0.00    -0.453 OA
BRANCH  40  43
ATOM     41  C   UNL     1       7.993  -3.280  23.829  0.00  0.00    +0.179 C 
ATOM     42  O   UNL     1       7.455  -2.452  24.862  0.00  0.00    -0.331 OA
ATOM     43  C   UNL     1       8.095  -2.515  26.158  0.00  0.00    +0.340 C 
ATOM     44  C   UNL     1       8.027  -3.971  26.670  0.00  0.00    +0.214 C 
ATOM     45  C   UNL     1       8.728  -4.900  25.674  0.00  0.00    +0.180 C 
ATOM     46  C   UNL     1       8.049  -4.759  24.299  0.00  0.00    +0.177 C 
BRANCH  46  47
ATOM     47  O   UNL     1       8.664  -5.624  23.348  0.00  0.00    -0.386 OA
ATOM     48  H   UNL     1       9.535  -5.880  23.708  0.00  0.00    +0.210 HD
ENDBRANCH  46  47
BRANCH  45  49
ATOM     49  O   UNL     1       8.676  -6.248  26.172  0.00  0.00    -0.386 OA
ATOM     50  H   UNL     1       8.119  -6.776  25.575  0.00  0.00    +0.210 HD
ENDBRANCH  45  49
BRANCH  44  51
ATOM     51  O   UNL     1       6.653  -4.410  26.816  0.00  0.00    -0.383 OA
ATOM     52  H   UNL     1       6.613  -4.997  27.595  0.00  0.00    +0.210 HD
ENDBRANCH  44  51
BRANCH  41  53
ATOM     53  C   UNL     1       9.263  -2.632  23.220  0.00  0.00    +0.197 C 
BRANCH  53  54
ATOM     54  O   UNL     1       9.027  -1.742  22.090  0.00  0.00    -0.346 OA
BRANCH  54  58
ATOM     55  C   UNL     1       7.033   1.989  21.490  0.00  0.00    +0.041 C 
ATOM     56  C   UNL     1       8.555   1.866  21.548  0.00  0.00    +0.149 C 
ATOM     57  O   UNL     1       8.935   0.492  21.329  0.00  0.00    -0.343 OA
ATOM     58  C   UNL     1       8.644  -0.392  22.416  0.00  0.00    +0.282 C 
ATOM     59  C   UNL     1       9.406   0.109  23.686  0.00  0.00    +0.201 C 
ATOM     60  C   UNL     1       8.889   1.521  24.038  0.00  0.00    +0.179 C 
ATOM     61  C   UNL     1       9.112   2.474  22.853  0.00  0.00    +0.174 C 
BRANCH  59  62
ATOM     62  O   UNL     1      10.829   0.190  23.433  0.00  0.00    -0.384 OA
ATOM     63  H   UNL     1      11.067   1.126  23.566  0.00  0.00    +0.210 HD
ENDBRANCH  59  62
BRANCH  60  64
ATOM     64  O   UNL     1       9.515   2.045  25.217  0.00  0.00    -0.386 OA
ATOM     65  H   UNL     1      10.424   1.686  25.246  0.00  0.00    +0.210 HD
ENDBRANCH  60  64
BRANCH  61  66
ATOM     66  O   UNL     1      10.514   2.770  22.737  0.00  0.00    -0.387 OA
ATOM     67  H   UNL     1      10.585   3.733  22.548  0.00  0.00    +0.210 HD
ENDBRANCH  61  66
ENDBRANCH  54  58
ENDBRANCH  53  54
ENDBRANCH  41  53
ENDBRANCH  40  43
ENDBRANCH   1  40
TORSDOF 22
ENDMDL
MODEL 6
REMARK VINA RESULT:      -6.7      2.863      6.893
REMARK  Name = 
REMARK  23 active torsions:
REMARK  status: ('A' for Active; 'I' for Inactive)
REMARK    1  A    between atoms: C_1  and  C_2
REMARK    2  A    between atoms: C_3  and  O_61
REMARK    3  A    between atoms: C_5  and  O_60
REMARK    4  A    between atoms: C_7  and  O_59
REMARK    5  A    between atoms: C_8  and  O_11
REMARK    6  A    between atoms: O_11  and  C_12
REMARK    7  A    between atoms: C_12  and  C_13
REMARK    8  A    between atoms: C_14  and  O_58
REMARK    9  A    between atoms: C_16  and  O_57
REMARK   10  A    between atoms: C_17  and  O_56
REMARK   11  A    between atoms: C_18  and  O_21
REMARK   12  A    between atoms: O_21  and  C_22
REMARK   13  A    between atoms: C_23  and  C_35
REMARK   14  A    between atoms: C_27  and  O_34
REMARK   15  A    between atoms: C_29  and  O_33
REMARK   16  A    between atoms: C_37  and  O_55
REMARK   17  A    between atoms: C_38  and  O_41
REMARK   18  A    between atoms: O_41  and  C_42
REMARK   19  A    between atoms: C_44  and  O_54
REMARK   20  A    between atoms: C_45  and  O_53
REMARK   21  A    between atoms: C_46  and  O_52
REMARK   22  A    between atoms: C_48  and  C_50
REMARK   23  A    between atoms: C_50  and  O_51
REMARK                            x       y       z     vdW  Elec       q    Type
REMARK                         _______ _______ _______ _____ _____    ______ ____
ROOT
ATOM      1  C   UNL     1       5.841   1.910  24.553  0.00  0.00    +0.214 A 
ATOM      2  C   UNL     1       5.709   3.064  23.606  0.00  0.00    +0.238 A 
ATOM      3  O   UNL     1       6.625   3.319  22.821  0.00  0.00    -0.283 OA
ATOM      4  C   UNL     1       4.469   3.851  23.612  0.00  0.00    +0.109 A 
ATOM      5  C   UNL     1       3.421   3.363  24.382  0.00  0.00    +0.147 A 
ATOM      6  C   UNL     1       2.170   3.986  24.334  0.00  0.00    +0.092 A 
ATOM      7  C   UNL     1       2.007   5.138  23.570  0.00  0.00    +0.124 A 
ATOM      8  C   UNL     1       3.063   5.676  22.847  0.00  0.00    +0.091 A 
ATOM      9  O   UNL     1       3.549   2.299  25.236  0.00  0.00    -0.451 OA
ATOM     10  C   UNL     1       4.297   5.025  22.863  0.00  0.00    +0.135 A 
ATOM     11  C   UNL     1       4.765   1.624  25.342  0.00  0.00    +0.181 A 
ENDROOT
BRANCH  11  12
ATOM     12  C   UNL     1       4.638   0.534  26.343  0.00  0.00    +0.025 A 
ATOM     13  C   UNL     1       5.622  -0.449  26.372  0.00  0.00    +0.015 A 
ATOM     14  C   UNL     1       5.516  -1.544  27.240  0.00  0.00    +0.050 A 
ATOM     15  C   UNL     1       4.390  -1.768  28.041  0.00  0.00    +0.165 A 
ATOM     16  C   UNL     1       3.358  -0.837  27.974  0.00  0.00    +0.159 A 
ATOM     17  C   UNL     1       3.483   0.310  27.134  0.00  0.00    +0.060 A 
BRANCH  16  18
ATOM     18  O   UNL     1       2.243  -0.998  28.743  0.00  0.00    -0.503 OA
ATOM     19  H   UNL     1       2.185  -0.260  29.378  0.00  0.00    +0.292 HD
ENDBRANCH  16  18
BRANCH  15  20
ATOM     20  O   UNL     1       4.552  -2.870  28.801  0.00  0.00    -0.457 OA
BRANCH  20  21
ATOM     21  C   UNL     1       3.594  -3.689  29.478  0.00  0.00    +0.339 C 
ATOM     22  O   UNL     1       4.391  -4.680  30.205  0.00  0.00    -0.331 OA
ATOM     23  C   UNL     1       5.271  -5.436  29.319  0.00  0.00    +0.179 C 
ATOM     24  C   UNL     1       4.549  -6.108  28.122  0.00  0.00    +0.177 C 
ATOM     25  C   UNL     1       3.499  -5.181  27.489  0.00  0.00    +0.180 C 
ATOM     26  C   UNL     1       2.654  -4.562  28.613  0.00  0.00    +0.214 C 
BRANCH  26  27
ATOM     27  O   UNL     1       1.497  -3.889  28.125  0.00  0.00    -0.383 OA
ATOM     28  H   UNL     1       0.794  -4.084  28.776  0.00  0.00    +0.210 HD
ENDBRANCH  26  27
BRANCH  25  29
ATOM     29  O   UNL     1       2.686  -5.909  26.554  0.00  0.00    -0.386 OA
ATOM     30  H   UNL     1       2.263  -6.631  27.036  0.00  0.00    +0.210 HD
ENDBRANCH  25  29
BRANCH  24  31
ATOM     31  O   UNL     1       3.871  -7.314  28.532  0.00  0.00    -0.386 OA
ATOM     32  H   UNL     1       2.940  -7.228  28.252  0.00  0.00    +0.210 HD
ENDBRANCH  24  31
BRANCH  23  33
ATOM     33  C   UNL     1       6.021  -6.461  30.179  0.00  0.00    +0.190 C 
BRANCH  33  34
ATOM     34  O   UNL     1       6.668  -7.415  29.335  0.00  0.00    -0.392 OA
ATOM     35  H   UNL     1       6.799  -6.961  28.479  0.00  0.00    +0.210 HD
ENDBRANCH  33  34
ENDBRANCH  23  33
ENDBRANCH  20  21
ENDBRANCH  15  20
ENDBRANCH  11  12
BRANCH  10  36
ATOM     36  O   UNL     1       5.327   5.574  22.155  0.00  0.00    -0.506 OA
ATOM     37  H   UNL     1       5.544   5.026  21.384  0.00  0.00    +0.292 HD
ENDBRANCH  10  36
BRANCH   7  38
ATOM     38  O   UNL     1       0.815   5.790  23.509  0.00  0.00    -0.507 OA
ATOM     39  H   UNL     1       0.164   5.325  24.047  0.00  0.00    +0.292 HD
ENDBRANCH   7  38
BRANCH   1  40
ATOM     40  O   UNL     1       7.051   1.341  24.410  0.00  0.00    -0.453 OA
BRANCH  40  43
ATOM     41  C   UNL     1       9.545  -1.218  24.591  0.00  0.00    +0.179 C 
ATOM     42  O   UNL     1       8.694  -0.101  24.859  0.00  0.00    -0.331 OA
ATOM     43  C   UNL     1       7.589   0.119  23.953  0.00  0.00    +0.340 C 
ATOM     44  C   UNL     1       8.153   0.318  22.528  0.00  0.00    +0.214 C 
ATOM     45  C   UNL     1       8.954  -0.920  22.115  0.00  0.00    +0.180 C 
ATOM     46  C   UNL     1      10.084  -1.146  23.136  0.00  0.00    +0.177 C 
BRANCH  46  47
ATOM     47  O   UNL     1      10.865  -2.281  22.774  0.00  0.00    -0.386 OA
ATOM     48  H   UNL     1      11.803  -2.043  22.902  0.00  0.00    +0.210 HD
ENDBRANCH  46  47
BRANCH  45  49
ATOM     49  O   UNL     1       9.456  -0.731  20.780  0.00  0.00    -0.386 OA
ATOM     50  H   UNL     1      10.399  -0.967  20.768  0.00  0.00    +0.210 HD
ENDBRANCH  45  49
BRANCH  44  51
ATOM     51  O   UNL     1       9.029   1.471  22.469  0.00  0.00    -0.383 OA
ATOM     52  H   UNL     1       8.821   1.958  21.649  0.00  0.00    +0.210 HD
ENDBRANCH  44  51
BRANCH  41  53
ATOM     53  C   UNL     1       8.890  -2.532  25.090  0.00  0.00    +0.197 C 
BRANCH  53  54
ATOM     54  O   UNL     1       8.748  -3.577  24.083  0.00  0.00    -0.346 OA
BRANCH  54  58
ATOM     55  C   UNL     1       4.480  -3.492  24.250  0.00  0.00    +0.041 C 
ATOM     56  C   UNL     1       5.278  -4.793  24.189  0.00  0.00    +0.149 C 
ATOM     57  O   UNL     1       6.645  -4.537  24.568  0.00  0.00    -0.343 OA
ATOM     58  C   UNL     1       7.411  -3.813  23.600  0.00  0.00    +0.282 C 
ATOM     59  C   UNL     1       7.439  -4.633  22.270  0.00  0.00    +0.201 C 
ATOM     60  C   UNL     1       5.991  -4.775  21.755  0.00  0.00    +0.179 C 
ATOM     61  C   UNL     1       5.122  -5.475  22.813  0.00  0.00    +0.174 C 
BRANCH  59  62
ATOM     62  O   UNL     1       7.980  -5.957  22.494  0.00  0.00    -0.384 OA
ATOM     63  H   UNL     1       7.260  -6.470  22.903  0.00  0.00    +0.210 HD
ENDBRANCH  59  62
BRANCH  60  64
ATOM     64  O   UNL     1       5.927  -5.491  20.513  0.00  0.00    -0.386 OA
ATOM     65  H   UNL     1       5.001  -5.447  20.202  0.00  0.00    +0.210 HD
ENDBRANCH  60  64
BRANCH  61  66
ATOM     66  O   UNL     1       5.477  -6.868  22.875  0.00  0.00    -0.387 OA
ATOM     67  H   UNL     1       6.302  -6.973  22.350  0.00  0.00    +0.210 HD
ENDBRANCH  61  66
ENDBRANCH  54  58
ENDBRANCH  53  54
ENDBRANCH  41  53
ENDBRANCH  40  43
ENDBRANCH   1  40
TORSDOF 22
ENDMDL
MODEL 7
REMARK VINA RESULT:      -6.6      2.344      6.429
REMARK  Name = 
REMARK  23 active torsions:
REMARK  status: ('A' for Active; 'I' for Inactive)
REMARK    1  A    between atoms: C_1  and  C_2
REMARK    2  A    between atoms: C_3  and  O_61
REMARK    3  A    between atoms: C_5  and  O_60
REMARK    4  A    between atoms: C_7  and  O_59
REMARK    5  A    between atoms: C_8  and  O_11
REMARK    6  A    between atoms: O_11  and  C_12
REMARK    7  A    between atoms: C_12  and  C_13
REMARK    8  A    between atoms: C_14  and  O_58
REMARK    9  A    between atoms: C_16  and  O_57
REMARK   10  A    between atoms: C_17  and  O_56
REMARK   11  A    between atoms: C_18  and  O_21
REMARK   12  A    between atoms: O_21  and  C_22
REMARK   13  A    between atoms: C_23  and  C_35
REMARK   14  A    between atoms: C_27  and  O_34
REMARK   15  A    between atoms: C_29  and  O_33
REMARK   16  A    between atoms: C_37  and  O_55
REMARK   17  A    between atoms: C_38  and  O_41
REMARK   18  A    between atoms: O_41  and  C_42
REMARK   19  A    between atoms: C_44  and  O_54
REMARK   20  A    between atoms: C_45  and  O_53
REMARK   21  A    between atoms: C_46  and  O_52
REMARK   22  A    between atoms: C_48  and  C_50
REMARK   23  A    between atoms: C_50  and  O_51
REMARK                            x       y       z     vdW  Elec       q    Type
REMARK                         _______ _______ _______ _____ _____    ______ ____
ROOT
ATOM      1  C   UNL     1       7.026   2.443  26.508  0.00  0.00    +0.214 A 
ATOM      2  C   UNL     1       7.375   3.890  26.680  0.00  0.00    +0.238 A 
ATOM      3  O   UNL     1       8.312   4.373  26.040  0.00  0.00    -0.283 OA
ATOM      4  C   UNL     1       6.567   4.713  27.588  0.00  0.00    +0.109 A 
ATOM      5  C   UNL     1       5.414   4.133  28.102  0.00  0.00    +0.147 A 
ATOM      6  C   UNL     1       4.529   4.899  28.867  0.00  0.00    +0.092 A 
ATOM      7  C   UNL     1       4.850   6.219  29.170  0.00  0.00    +0.124 A 
ATOM      8  C   UNL     1       6.031   6.793  28.719  0.00  0.00    +0.091 A 
ATOM      9  O   UNL     1       5.098   2.812  27.929  0.00  0.00    -0.451 OA
ATOM     10  C   UNL     1       6.889   6.039  27.919  0.00  0.00    +0.135 A 
ATOM     11  C   UNL     1       5.930   1.981  27.179  0.00  0.00    +0.181 A 
ENDROOT
BRANCH  11  12
ATOM     12  C   UNL     1       5.371   0.605  27.166  0.00  0.00    +0.025 A 
ATOM     13  C   UNL     1       6.260  -0.465  27.210  0.00  0.00    +0.015 A 
ATOM     14  C   UNL     1       5.798  -1.785  27.121  0.00  0.00    +0.050 A 
ATOM     15  C   UNL     1       4.455  -2.101  26.884  0.00  0.00    +0.165 A 
ATOM     16  C   UNL     1       3.558  -1.045  26.761  0.00  0.00    +0.159 A 
ATOM     17  C   UNL     1       4.012   0.300  26.906  0.00  0.00    +0.060 A 
BRANCH  16  18
ATOM     18  O   UNL     1       2.235  -1.296  26.543  0.00  0.00    -0.503 OA
ATOM     19  H   UNL     1       1.932  -0.769  25.781  0.00  0.00    +0.292 HD
ENDBRANCH  16  18
BRANCH  15  20
ATOM     20  O   UNL     1       4.270  -3.437  26.872  0.00  0.00    -0.457 OA
BRANCH  20  21
ATOM     21  C   UNL     1       3.241  -4.245  27.450  0.00  0.00    +0.339 C 
ATOM     22  O   UNL     1       3.676  -4.479  28.830  0.00  0.00    -0.331 OA
ATOM     23  C   UNL     1       4.997  -5.096  28.894  0.00  0.00    +0.179 C 
ATOM     24  C   UNL     1       5.135  -6.399  28.064  0.00  0.00    +0.177 C 
ATOM     25  C   UNL     1       4.450  -6.284  26.693  0.00  0.00    +0.180 C 
ATOM     26  C   UNL     1       3.053  -5.677  26.895  0.00  0.00    +0.214 C 
BRANCH  26  27
ATOM     27  O   UNL     1       2.242  -5.761  25.727  0.00  0.00    -0.383 OA
ATOM     28  H   UNL     1       2.395  -4.923  25.248  0.00  0.00    +0.210 HD
ENDBRANCH  26  27
BRANCH  25  29
ATOM     29  O   UNL     1       4.382  -7.571  26.056  0.00  0.00    -0.386 OA
ATOM     30  H   UNL     1       4.037  -7.437  25.165  0.00  0.00    +0.210 HD
ENDBRANCH  25  29
BRANCH  24  31
ATOM     31  O   UNL     1       4.541  -7.521  28.751  0.00  0.00    -0.386 OA
ATOM     32  H   UNL     1       5.211  -8.230  28.776  0.00  0.00    +0.210 HD
ENDBRANCH  24  31
BRANCH  23  33
ATOM     33  C   UNL     1       5.327  -5.327  30.374  0.00  0.00    +0.190 C 
BRANCH  33  34
ATOM     34  O   UNL     1       6.458  -6.191  30.485  0.00  0.00    -0.392 OA
ATOM     35  H   UNL     1       6.646  -6.495  29.575  0.00  0.00    +0.210 HD
ENDBRANCH  33  34
ENDBRANCH  23  33
ENDBRANCH  20  21
ENDBRANCH  15  20
ENDBRANCH  11  12
BRANCH  10  36
ATOM     36  O   UNL     1       8.051   6.616  27.494  0.00  0.00    -0.506 OA
ATOM     37  H   UNL     1       7.871   7.300  26.829  0.00  0.00    +0.292 HD
ENDBRANCH  10  36
BRANCH   7  38
ATOM     38  O   UNL     1       4.029   6.995  29.928  0.00  0.00    -0.507 OA
ATOM     39  H   UNL     1       4.409   7.104  30.807  0.00  0.00    +0.292 HD
ENDBRANCH   7  38
BRANCH   1  40
ATOM     40  O   UNL     1       7.896   1.863  25.662  0.00  0.00    -0.453 OA
BRANCH  40  43
ATOM     41  C   UNL     1       8.541  -0.696  23.246  0.00  0.00    +0.179 C 
ATOM     42  O   UNL     1       8.300   0.031  24.453  0.00  0.00    -0.331 OA
ATOM     43  C   UNL     1       7.920   1.420  24.323  0.00  0.00    +0.340 C 
ATOM     44  C   UNL     1       9.041   2.168  23.565  0.00  0.00    +0.214 C 
ATOM     45  C   UNL     1       9.245   1.530  22.188  0.00  0.00    +0.180 C 
ATOM     46  C   UNL     1       9.593   0.041  22.374  0.00  0.00    +0.177 C 
BRANCH  46  47
ATOM     47  O   UNL     1       9.809  -0.583  21.112  0.00  0.00    -0.386 OA
ATOM     48  H   UNL     1       9.486   0.031  20.425  0.00  0.00    +0.210 HD
ENDBRANCH  46  47
BRANCH  45  49
ATOM     49  O   UNL     1      10.275   2.247  21.486  0.00  0.00    -0.386 OA
ATOM     50  H   UNL     1       9.921   2.535  20.628  0.00  0.00    +0.210 HD
ENDBRANCH  45  49
BRANCH  44  51
ATOM     51  O   UNL     1      10.294   2.102  24.290  0.00  0.00    -0.383 OA
ATOM     52  H   UNL     1      10.271   1.300  24.846  0.00  0.00    +0.210 HD
ENDBRANCH  44  51
BRANCH  41  53
ATOM     53  C   UNL     1       7.200  -1.136  22.601  0.00  0.00    +0.197 C 
BRANCH  53  54
ATOM     54  O   UNL     1       6.202  -1.651  23.531  0.00  0.00    -0.346 OA
BRANCH  54  58
ATOM     55  C   UNL     1       7.699  -5.348  25.063  0.00  0.00    +0.041 C 
ATOM     56  C   UNL     1       7.588  -5.059  23.567  0.00  0.00    +0.149 C 
ATOM     57  O   UNL     1       7.469  -3.637  23.359  0.00  0.00    -0.343 OA
ATOM     58  C   UNL     1       6.210  -3.076  23.742  0.00  0.00    +0.282 C 
ATOM     59  C   UNL     1       5.081  -3.767  22.911  0.00  0.00    +0.201 C 
ATOM     60  C   UNL     1       5.081  -5.274  23.248  0.00  0.00    +0.179 C 
ATOM     61  C   UNL     1       6.453  -5.886  22.925  0.00  0.00    +0.174 C 
BRANCH  59  62
ATOM     62  O   UNL     1       5.322  -3.613  21.491  0.00  0.00    -0.384 OA
ATOM     63  H   UNL     1       6.256  -3.855  21.355  0.00  0.00    +0.210 HD
ENDBRANCH  59  62
BRANCH  60  64
ATOM     64  O   UNL     1       4.048  -5.982  22.549  0.00  0.00    -0.386 OA
ATOM     65  H   UNL     1       4.156  -6.932  22.758  0.00  0.00    +0.210 HD
ENDBRANCH  60  64
BRANCH  61  66
ATOM     66  O   UNL     1       6.611  -5.975  21.498  0.00  0.00    -0.387 OA
ATOM     67  H   UNL     1       6.747  -6.926  21.288  0.00  0.00    +0.210 HD
ENDBRANCH  61  66
ENDBRANCH  54  58
ENDBRANCH  53  54
ENDBRANCH  41  53
ENDBRANCH  40  43
ENDBRANCH   1  40
TORSDOF 22
ENDMDL
MODEL 8
REMARK VINA RESULT:      -6.6      2.003      4.231
REMARK  Name = 
REMARK  23 active torsions:
REMARK  status: ('A' for Active; 'I' for Inactive)
REMARK    1  A    between atoms: C_1  and  C_2
REMARK    2  A    between atoms: C_3  and  O_61
REMARK    3  A    between atoms: C_5  and  O_60
REMARK    4  A    between atoms: C_7  and  O_59
REMARK    5  A    between atoms: C_8  and  O_11
REMARK    6  A    between atoms: O_11  and  C_12
REMARK    7  A    between atoms: C_12  and  C_13
REMARK    8  A    between atoms: C_14  and  O_58
REMARK    9  A    between atoms: C_16  and  O_57
REMARK   10  A    between atoms: C_17  and  O_56
REMARK   11  A    between atoms: C_18  and  O_21
REMARK   12  A    between atoms: O_21  and  C_22
REMARK   13  A    between atoms: C_23  and  C_35
REMARK   14  A    between atoms: C_27  and  O_34
REMARK   15  A    between atoms: C_29  and  O_33
REMARK   16  A    between atoms: C_37  and  O_55
REMARK   17  A    between atoms: C_38  and  O_41
REMARK   18  A    between atoms: O_41  and  C_42
REMARK   19  A    between atoms: C_44  and  O_54
REMARK   20  A    between atoms: C_45  and  O_53
REMARK   21  A    between atoms: C_46  and  O_52
REMARK   22  A    between atoms: C_48  and  C_50
REMARK   23  A    between atoms: C_50  and  O_51
REMARK                            x       y       z     vdW  Elec       q    Type
REMARK                         _______ _______ _______ _____ _____    ______ ____
ROOT
ATOM      1  C   UNL     1       7.950   2.222  25.329  0.00  0.00    +0.214 A 
ATOM      2  C   UNL     1       8.353   3.653  25.515  0.00  0.00    +0.238 A 
ATOM      3  O   UNL     1       7.838   4.322  26.414  0.00  0.00    -0.283 OA
ATOM      4  C   UNL     1       9.382   4.222  24.636  0.00  0.00    +0.109 A 
ATOM      5  C   UNL     1      10.046   3.338  23.794  0.00  0.00    +0.147 A 
ATOM      6  C   UNL     1      11.125   3.785  23.025  0.00  0.00    +0.092 A 
ATOM      7  C   UNL     1      11.478   5.130  23.055  0.00  0.00    +0.124 A 
ATOM      8  C   UNL     1      10.782   6.039  23.841  0.00  0.00    +0.091 A 
ATOM      9  O   UNL     1       9.677   2.028  23.640  0.00  0.00    -0.451 OA
ATOM     10  C   UNL     1       9.735   5.581  24.640  0.00  0.00    +0.135 A 
ATOM     11  C   UNL     1       8.609   1.507  24.371  0.00  0.00    +0.181 A 
ENDROOT
BRANCH  11  12
ATOM     12  C   UNL     1       8.409   0.082  24.003  0.00  0.00    +0.025 A 
ATOM     13  C   UNL     1       7.135  -0.324  23.618  0.00  0.00    +0.015 A 
ATOM     14  C   UNL     1       6.866  -1.670  23.337  0.00  0.00    +0.050 A 
ATOM     15  C   UNL     1       7.814  -2.684  23.519  0.00  0.00    +0.165 A 
ATOM     16  C   UNL     1       9.074  -2.312  23.976  0.00  0.00    +0.159 A 
ATOM     17  C   UNL     1       9.372  -0.937  24.212  0.00  0.00    +0.060 A 
BRANCH  16  18
ATOM     18  O   UNL     1      10.040  -3.258  24.158  0.00  0.00    -0.503 OA
ATOM     19  H   UNL     1       9.727  -4.106  23.793  0.00  0.00    +0.292 HD
ENDBRANCH  16  18
BRANCH  15  20
ATOM     20  O   UNL     1       7.314  -3.882  23.149  0.00  0.00    -0.457 OA
BRANCH  20  21
ATOM     21  C   UNL     1       7.421  -5.170  23.761  0.00  0.00    +0.339 C 
ATOM     22  O   UNL     1       6.206  -5.882  23.357  0.00  0.00    -0.331 OA
ATOM     23  C   UNL     1       4.994  -5.162  23.737  0.00  0.00    +0.179 C 
ATOM     24  C   UNL     1       4.917  -4.790  25.240  0.00  0.00    +0.177 C 
ATOM     25  C   UNL     1       6.265  -4.282  25.778  0.00  0.00    +0.180 C 
ATOM     26  C   UNL     1       7.370  -5.240  25.306  0.00  0.00    +0.214 C 
BRANCH  26  27
ATOM     27  O   UNL     1       8.617  -5.004  25.954  0.00  0.00    -0.383 OA
ATOM     28  H   UNL     1       8.848  -5.852  26.380  0.00  0.00    +0.210 HD
ENDBRANCH  26  27
BRANCH  25  29
ATOM     29  O   UNL     1       6.227  -4.180  27.211  0.00  0.00    -0.386 OA
ATOM     30  H   UNL     1       6.759  -4.902  27.568  0.00  0.00    +0.210 HD
ENDBRANCH  25  29
BRANCH  24  31
ATOM     31  O   UNL     1       4.534  -5.927  26.041  0.00  0.00    -0.386 OA
ATOM     32  H   UNL     1       4.727  -5.701  26.970  0.00  0.00    +0.210 HD
ENDBRANCH  24  31
BRANCH  23  33
ATOM     33  C   UNL     1       3.797  -6.015  23.300  0.00  0.00    +0.190 C 
BRANCH  33  34
ATOM     34  O   UNL     1       4.015  -7.377  23.675  0.00  0.00    -0.392 OA
ATOM     35  H   UNL     1       4.391  -7.342  24.577  0.00  0.00    +0.210 HD
ENDBRANCH  33  34
ENDBRANCH  23  33
ENDBRANCH  20  21
ENDBRANCH  15  20
ENDBRANCH  11  12
BRANCH  10  36
ATOM     36  O   UNL     1       9.054   6.490  25.398  0.00  0.00    -0.506 OA
ATOM     37  H   UNL     1       9.488   6.614  26.257  0.00  0.00    +0.292 HD
ENDBRANCH  10  36
BRANCH   7  38
ATOM     38  O   UNL     1      12.508   5.613  22.308  0.00  0.00    -0.507 OA
ATOM     39  H   UNL     1      12.232   5.690  21.388  0.00  0.00    +0.292 HD
ENDBRANCH   7  38
BRANCH   1  40
ATOM     40  O   UNL     1       6.983   1.904  26.208  0.00  0.00    -0.453 OA
BRANCH  40  43
ATOM     41  C   UNL     1       3.601   1.720  27.362  0.00  0.00    +0.179 C 
ATOM     42  O   UNL     1       4.932   2.142  27.056  0.00  0.00    -0.331 OA
ATOM     43  C   UNL     1       5.715   1.285  26.194  0.00  0.00    +0.340 C 
ATOM     44  C   UNL     1       5.827  -0.108  26.855  0.00  0.00    +0.214 C 
ATOM     45  C   UNL     1       4.427  -0.689  27.071  0.00  0.00    +0.180 C 
ATOM     46  C   UNL     1       3.614   0.282  27.948  0.00  0.00    +0.177 C 
BRANCH  46  47
ATOM     47  O   UNL     1       2.308  -0.235  28.186  0.00  0.00    -0.386 OA
ATOM     48  H   UNL     1       1.926  -0.474  27.319  0.00  0.00    +0.210 HD
ENDBRANCH  46  47
BRANCH  45  49
ATOM     49  O   UNL     1       4.546  -1.992  27.668  0.00  0.00    -0.386 OA
ATOM     50  H   UNL     1       3.825  -2.552  27.333  0.00  0.00    +0.210 HD
ENDBRANCH  45  49
BRANCH  44  51
ATOM     51  O   UNL     1       6.490  -0.023  28.141  0.00  0.00    -0.383 OA
ATOM     52  H   UNL     1       7.438  -0.206  27.996  0.00  0.00    +0.210 HD
ENDBRANCH  44  51
BRANCH  41  53
ATOM     53  C   UNL     1       2.644   2.049  26.186  0.00  0.00    +0.197 C 
BRANCH  53  54
ATOM     54  O   UNL     1       2.441   3.469  25.927  0.00  0.00    -0.346 OA
BRANCH  54  58
ATOM     55  C   UNL     1       2.653   3.492  21.660  0.00  0.00    +0.041 C 
ATOM     56  C   UNL     1       3.874   3.253  22.546  0.00  0.00    +0.149 C 
ATOM     57  O   UNL     1       3.443   2.881  23.871  0.00  0.00    -0.343 OA
ATOM     58  C   UNL     1       2.873   3.946  24.638  0.00  0.00    +0.282 C 
ATOM     59  C   UNL     1       3.940   5.077  24.793  0.00  0.00    +0.201 C 
ATOM     60  C   UNL     1       4.294   5.608  23.388  0.00  0.00    +0.179 C 
ATOM     61  C   UNL     1       4.831   4.465  22.512  0.00  0.00    +0.174 C 
BRANCH  59  62
ATOM     62  O   UNL     1       5.146   4.565  25.409  0.00  0.00    -0.384 OA
ATOM     63  H   UNL     1       5.283   3.681  25.023  0.00  0.00    +0.210 HD
ENDBRANCH  59  62
BRANCH  60  64
ATOM     64  O   UNL     1       5.248   6.678  23.440  0.00  0.00    -0.386 OA
ATOM     65  H   UNL     1       5.202   7.149  22.584  0.00  0.00    +0.210 HD
ENDBRANCH  60  64
BRANCH  61  66
ATOM     66  O   UNL     1       6.151   4.104  22.956  0.00  0.00    -0.387 OA
ATOM     67  H   UNL     1       6.103   4.005  23.933  0.00  0.00    +0.210 HD
ENDBRANCH  61  66
ENDBRANCH  54  58
ENDBRANCH  53  54
ENDBRANCH  41  53
ENDBRANCH  40  43
ENDBRANCH   1  40
TORSDOF 22
ENDMDL
MODEL 9
REMARK VINA RESULT:      -6.5      2.477      6.521
REMARK  Name = 
REMARK  23 active torsions:
REMARK  status: ('A' for Active; 'I' for Inactive)
REMARK    1  A    between atoms: C_1  and  C_2
REMARK    2  A    between atoms: C_3  and  O_61
REMARK    3  A    between atoms: C_5  and  O_60
REMARK    4  A    between atoms: C_7  and  O_59
REMARK    5  A    between atoms: C_8  and  O_11
REMARK    6  A    between atoms: O_11  and  C_12
REMARK    7  A    between atoms: C_12  and  C_13
REMARK    8  A    between atoms: C_14  and  O_58
REMARK    9  A    between atoms: C_16  and  O_57
REMARK   10  A    between atoms: C_17  and  O_56
REMARK   11  A    between atoms: C_18  and  O_21
REMARK   12  A    between atoms: O_21  and  C_22
REMARK   13  A    between atoms: C_23  and  C_35
REMARK   14  A    between atoms: C_27  and  O_34
REMARK   15  A    between atoms: C_29  and  O_33
REMARK   16  A    between atoms: C_37  and  O_55
REMARK   17  A    between atoms: C_38  and  O_41
REMARK   18  A    between atoms: O_41  and  C_42
REMARK   19  A    between atoms: C_44  and  O_54
REMARK   20  A    between atoms: C_45  and  O_53
REMARK   21  A    between atoms: C_46  and  O_52
REMARK   22  A    between atoms: C_48  and  C_50
REMARK   23  A    between atoms: C_50  and  O_51
REMARK                            x       y       z     vdW  Elec       q    Type
REMARK                         _______ _______ _______ _____ _____    ______ ____
ROOT
ATOM      1  C   UNL     1       6.588   2.675  27.188  0.00  0.00    +0.214 A 
ATOM      2  C   UNL     1       6.828   4.130  27.449  0.00  0.00    +0.238 A 
ATOM      3  O   UNL     1       7.789   4.696  26.921  0.00  0.00    -0.283 OA
ATOM      4  C   UNL     1       5.890   4.864  28.308  0.00  0.00    +0.109 A 
ATOM      5  C   UNL     1       4.733   4.194  28.687  0.00  0.00    +0.147 A 
ATOM      6  C   UNL     1       3.735   4.872  29.394  0.00  0.00    +0.092 A 
ATOM      7  C   UNL     1       3.943   6.193  29.778  0.00  0.00    +0.124 A 
ATOM      8  C   UNL     1       5.122   6.855  29.465  0.00  0.00    +0.091 A 
ATOM      9  O   UNL     1       4.518   2.866  28.433  0.00  0.00    -0.451 OA
ATOM     10  C   UNL     1       6.096   6.190  28.720  0.00  0.00    +0.135 A 
ATOM     11  C   UNL     1       5.466   2.120  27.733  0.00  0.00    +0.181 A 
ENDROOT
BRANCH  11  12
ATOM     12  C   UNL     1       4.998   0.715  27.613  0.00  0.00    +0.025 A 
ATOM     13  C   UNL     1       4.764  -0.001  28.783  0.00  0.00    +0.015 A 
ATOM     14  C   UNL     1       4.398  -1.353  28.735  0.00  0.00    +0.050 A 
ATOM     15  C   UNL     1       4.346  -2.079  27.540  0.00  0.00    +0.165 A 
ATOM     16  C   UNL     1       4.650  -1.403  26.362  0.00  0.00    +0.159 A 
ATOM     17  C   UNL     1       4.969  -0.013  26.398  0.00  0.00    +0.060 A 
BRANCH  16  18
ATOM     18  O   UNL     1       4.602  -2.060  25.167  0.00  0.00    -0.503 OA
ATOM     19  H   UNL     1       3.815  -1.764  24.674  0.00  0.00    +0.292 HD
ENDBRANCH  16  18
BRANCH  15  20
ATOM     20  O   UNL     1       3.941  -3.346  27.764  0.00  0.00    -0.457 OA
BRANCH  20  21
ATOM     21  C   UNL     1       3.229  -3.920  28.864  0.00  0.00    +0.339 C 
ATOM     22  O   UNL     1       4.256  -4.576  29.678  0.00  0.00    -0.331 OA
ATOM     23  C   UNL     1       5.021  -5.556  28.913  0.00  0.00    +0.179 C 
ATOM     24  C   UNL     1       4.155  -6.620  28.190  0.00  0.00    +0.177 C 
ATOM     25  C   UNL     1       2.907  -6.002  27.540  0.00  0.00    +0.180 C 
ATOM     26  C   UNL     1       2.237  -5.068  28.560  0.00  0.00    +0.214 C 
BRANCH  26  27
ATOM     27  O   UNL     1       0.941  -4.643  28.150  0.00  0.00    -0.383 OA
ATOM     28  H   UNL     1       0.320  -5.096  28.752  0.00  0.00    +0.210 HD
ENDBRANCH  26  27
BRANCH  25  29
ATOM     29  O   UNL     1       2.010  -7.033  27.096  0.00  0.00    -0.386 OA
ATOM     30  H   UNL     1       1.136  -6.636  26.998  0.00  0.00    +0.210 HD
ENDBRANCH  25  29
BRANCH  24  31
ATOM     31  O   UNL     1       3.705  -7.638  29.109  0.00  0.00    -0.386 OA
ATOM     32  H   UNL     1       4.242  -8.435  28.938  0.00  0.00    +0.210 HD
ENDBRANCH  24  31
BRANCH  23  33
ATOM     33  C   UNL     1       6.032  -6.199  29.871  0.00  0.00    +0.190 C 
BRANCH  33  34
ATOM     34  O   UNL     1       6.589  -7.368  29.266  0.00  0.00    -0.392 OA
ATOM     35  H   UNL     1       6.901  -7.923  30.008  0.00  0.00    +0.210 HD
ENDBRANCH  33  34
ENDBRANCH  23  33
ENDBRANCH  20  21
ENDBRANCH  15  20
ENDBRANCH  11  12
BRANCH  10  36
ATOM     36  O   UNL     1       7.254   6.853  28.430  0.00  0.00    -0.506 OA
ATOM     37  H   UNL     1       7.076   7.625  27.871  0.00  0.00    +0.292 HD
ENDBRANCH  10  36
BRANCH   7  38
ATOM     38  O   UNL     1       3.009   6.885  30.485  0.00  0.00    -0.507 OA
ATOM     39  H   UNL     1       3.335   7.773  30.668  0.00  0.00    +0.292 HD
ENDBRANCH   7  38
BRANCH   1  40
ATOM     40  O   UNL     1       7.567   2.186  26.407  0.00  0.00    -0.453 OA
BRANCH  40  43
ATOM     41  C   UNL     1       9.565   0.616  23.888  0.00  0.00    +0.179 C 
ATOM     42  O   UNL     1       9.054   1.130  25.119  0.00  0.00    -0.331 OA
ATOM     43  C   UNL     1       7.704   1.648  25.109  0.00  0.00    +0.340 C 
ATOM     44  C   UNL     1       7.626   2.797  24.078  0.00  0.00    +0.214 C 
ATOM     45  C   UNL     1       8.016   2.272  22.693  0.00  0.00    +0.180 C 
ATOM     46  C   UNL     1       9.437   1.681  22.766  0.00  0.00    +0.177 C 
BRANCH  46  47
ATOM     47  O   UNL     1       9.842   1.198  21.489  0.00  0.00    -0.386 OA
ATOM     48  H   UNL     1       9.919   0.227  21.555  0.00  0.00    +0.210 HD
ENDBRANCH  46  47
BRANCH  45  49
ATOM     49  O   UNL     1       7.920   3.344  21.739  0.00  0.00    -0.386 OA
ATOM     50  H   UNL     1       8.463   4.087  22.055  0.00  0.00    +0.210 HD
ENDBRANCH  45  49
BRANCH  44  51
ATOM     51  O   UNL     1       8.529   3.876  24.429  0.00  0.00    -0.383 OA
ATOM     52  H   UNL     1       8.903   3.672  25.307  0.00  0.00    +0.210 HD
ENDBRANCH  44  51
BRANCH  41  53
ATOM     53  C   UNL     1       9.030  -0.817  23.634  0.00  0.00    +0.197 C 
BRANCH  53  54
ATOM     54  O   UNL     1       9.265  -1.770  24.713  0.00  0.00    -0.346 OA
BRANCH  54  58
ATOM     55  C   UNL     1       7.514  -4.979  22.501  0.00  0.00    +0.041 C 
ATOM     56  C   UNL     1       6.792  -4.277  23.650  0.00  0.00    +0.149 C 
ATOM     57  O   UNL     1       7.419  -3.005  23.908  0.00  0.00    -0.343 OA
ATOM     58  C   UNL     1       8.706  -3.085  24.530  0.00  0.00    +0.282 C 
ATOM     59  C   UNL     1       8.554  -3.819  25.901  0.00  0.00    +0.201 C 
ATOM     60  C   UNL     1       8.039  -5.250  25.633  0.00  0.00    +0.179 C 
ATOM     61  C   UNL     1       6.696  -5.195  24.888  0.00  0.00    +0.174 C 
BRANCH  59  62
ATOM     62  O   UNL     1       7.597  -3.136  26.746  0.00  0.00    -0.384 OA
ATOM     63  H   UNL     1       6.829  -3.733  26.810  0.00  0.00    +0.210 HD
ENDBRANCH  59  62
BRANCH  60  64
ATOM     64  O   UNL     1       7.902  -6.009  26.842  0.00  0.00    -0.386 OA
ATOM     65  H   UNL     1       7.748  -6.939  26.583  0.00  0.00    +0.210 HD
ENDBRANCH  60  64
BRANCH  61  66
ATOM     66  O   UNL     1       5.668  -4.752  25.792  0.00  0.00    -0.387 OA
ATOM     67  H   UNL     1       6.126  -4.382  26.580  0.00  0.00    +0.210 HD
ENDBRANCH  61  66
ENDBRANCH  54  58
ENDBRANCH  53  54
ENDBRANCH  41  53
ENDBRANCH  40  43
ENDBRANCH   1  40
TORSDOF 22
ENDMDL
