MODEL 1
REMARK VINA RESULT:      -6.7      0.000      0.000
REMARK  Name = 
REMARK  18 active torsions:
REMARK  status: ('A' for Active; 'I' for Inactive)
REMARK    1  A    between atoms: C_1  and  C_2
REMARK    2  A    between atoms: C_3  and  O_45
REMARK    3  A    between atoms: C_4  and  O_44
REMARK    4  A    between atoms: C_5  and  O_43
REMARK    5  A    between atoms: C_6  and  O_8
REMARK    6  A    between atoms: O_8  and  C_9
REMARK    7  A    between atoms: C_11  and  O_42
REMARK    8  A    between atoms: C_16  and  C_34
REMARK    9  A    between atoms: C_17  and  O_20
REMARK   10  A    between atoms: O_20  and  C_21
REMARK   11  A    between atoms: C_22  and  O_33
REMARK   12  A    between atoms: C_23  and  O_32
REMARK   13  A    between atoms: C_24  and  O_28
REMARK   14  A    between atoms: C_25  and  C_27
REMARK   15  A    between atoms: O_28  and  C_29
REMARK   16  A    between atoms: C_29  and  C_31
REMARK   17  A    between atoms: C_36  and  O_41
REMARK   18  A    between atoms: C_37  and  O_40
REMARK                            x       y       z     vdW  Elec       q    Type
REMARK                         _______ _______ _______ _____ _____    ______ ____
ROOT
ATOM      1  C   UNL     1       6.369  -5.424  26.951  0.00  0.00    +0.131 A 
ATOM      2  C   UNL     1       6.223  -4.100  27.395  0.00  0.00    +0.093 A 
ATOM      3  C   UNL     1       6.752  -3.038  26.640  0.00  0.00    +0.147 A 
ATOM      4  O   UNL     1       6.600  -1.754  27.115  0.00  0.00    -0.451 OA
ATOM      5  C   UNL     1       6.969  -0.659  26.310  0.00  0.00    +0.181 A 
ATOM      6  C   UNL     1       7.670  -0.805  25.156  0.00  0.00    +0.214 A 
ATOM      7  C   UNL     1       8.086  -2.198  24.782  0.00  0.00    +0.238 A 
ATOM      8  O   UNL     1       8.973  -2.438  23.974  0.00  0.00    -0.283 OA
ATOM      9  C   UNL     1       7.424  -3.310  25.458  0.00  0.00    +0.109 A 
ATOM     10  C   UNL     1       7.515  -4.624  24.986  0.00  0.00    +0.135 A 
ATOM     11  C   UNL     1       6.998  -5.674  25.732  0.00  0.00    +0.092 A 
ENDROOT
BRANCH   5  12
ATOM     12  C   UNL     1       6.515   0.670  26.888  0.00  0.00    +0.025 A 
ATOM     13  C   UNL     1       5.393   1.388  26.412  0.00  0.00    +0.015 A 
ATOM     14  C   UNL     1       4.974   2.605  26.959  0.00  0.00    +0.050 A 
ATOM     15  C   UNL     1       5.687   3.150  27.999  0.00  0.00    +0.158 A 
ATOM     16  C   UNL     1       6.810   2.497  28.494  0.00  0.00    +0.159 A 
ATOM     17  C   UNL     1       7.224   1.271  27.951  0.00  0.00    +0.060 A 
BRANCH  15  18
ATOM     18  O   UNL     1       5.278   4.338  28.530  0.00  0.00    -0.503 OA
ATOM     19  H   UNL     1       4.673   4.094  29.256  0.00  0.00    +0.292 HD
ENDBRANCH  15  18
BRANCH  16  20
ATOM     20  O   UNL     1       7.484   3.107  29.515  0.00  0.00    -0.503 OA
ATOM     21  H   UNL     1       7.197   4.037  29.563  0.00  0.00    +0.292 HD
ENDBRANCH  16  20
ENDBRANCH   5  12
BRANCH  10  22
ATOM     22  O   UNL     1       8.083  -4.906  23.775  0.00  0.00    -0.506 OA
ATOM     23  H   UNL     1       8.499  -5.780  23.791  0.00  0.00    +0.292 HD
ENDBRANCH  10  22
BRANCH   1  24
ATOM     24  O   UNL     1       5.969  -6.569  27.580  0.00  0.00    -0.461 OA
BRANCH  24  28
ATOM     25  C   UNL     1       2.097  -7.407  25.955  0.00  0.00    +0.041 C 
ATOM     26  C   UNL     1       2.409  -6.197  26.838  0.00  0.00    +0.150 C 
ATOM     27  O   UNL     1       3.815  -5.931  26.874  0.00  0.00    -0.334 OA
ATOM     28  C   UNL     1       4.584  -6.912  27.580  0.00  0.00    +0.339 C 
ATOM     29  C   UNL     1       4.119  -6.949  29.055  0.00  0.00    +0.214 C 
ATOM     30  C   UNL     1       2.630  -7.297  29.105  0.00  0.00    +0.180 C 
ATOM     31  C   UNL     1       1.821  -6.306  28.253  0.00  0.00    +0.174 C 
BRANCH  29  32
ATOM     32  O   UNL     1       4.283  -5.669  29.711  0.00  0.00    -0.383 OA
ATOM     33  H   UNL     1       4.327  -4.993  29.004  0.00  0.00    +0.210 HD
ENDBRANCH  29  32
BRANCH  30  34
ATOM     34  O   UNL     1       2.148  -7.264  30.454  0.00  0.00    -0.386 OA
ATOM     35  H   UNL     1       2.930  -7.432  31.021  0.00  0.00    +0.210 HD
ENDBRANCH  30  34
BRANCH  31  36
ATOM     36  O   UNL     1       0.443  -6.690  28.170  0.00  0.00    -0.387 OA
ATOM     37  H   UNL     1      -0.089  -5.874  28.104  0.00  0.00    +0.210 HD
ENDBRANCH  31  36
ENDBRANCH  24  28
ENDBRANCH   1  24
BRANCH   6  38
ATOM     38  O   UNL     1       7.986   0.283  24.345  0.00  0.00    -0.453 OA
BRANCH  38  39
ATOM     39  C   UNL     1       9.141   1.070  24.663  0.00  0.00    +0.340 C 
ATOM     40  O   UNL     1       8.769   2.348  25.179  0.00  0.00    -0.333 OA
ATOM     41  C   UNL     1       8.263   3.268  24.210  0.00  0.00    +0.163 C 
ATOM     42  C   UNL     1       7.795   4.501  24.970  0.00  0.00    +0.042 C 
ATOM     43  C   UNL     1       9.362   3.574  23.189  0.00  0.00    +0.236 C 
ATOM     44  C   UNL     1       9.661   2.267  22.448  0.00  0.00    +0.192 C 
ATOM     45  C   UNL     1      10.091   1.173  23.439  0.00  0.00    +0.215 C 
BRANCH  44  46
ATOM     46  O   UNL     1      10.675   2.484  21.456  0.00  0.00    -0.385 OA
ATOM     47  H   UNL     1      11.077   1.621  21.250  0.00  0.00    +0.210 HD
ENDBRANCH  44  46
BRANCH  45  48
ATOM     48  O   UNL     1      10.247  -0.086  22.768  0.00  0.00    -0.383 OA
ATOM     49  H   UNL     1      11.182  -0.347  22.845  0.00  0.00    +0.210 HD
ENDBRANCH  45  48
BRANCH  43  50
ATOM     50  O   UNL     1      10.571   3.967  23.891  0.00  0.00    -0.456 OA
BRANCH  50  51
ATOM     51  C   UNL     1      11.114   5.177  23.608  0.00  0.00    +0.304 C 
ATOM     52  C   UNL     1      12.575   5.031  23.302  0.00  0.00    +0.136 C 
ATOM     53  O   UNL     1      10.523   6.245  23.631  0.00  0.00    -0.251 OA
ENDBRANCH  50  51
ENDBRANCH  43  50
ENDBRANCH  38  39
ENDBRANCH   6  38
TORSDOF 15
ENDMDL
MODEL 2
REMARK VINA RESULT:      -6.6      2.399     10.151
REMARK  Name = 
REMARK  18 active torsions:
REMARK  status: ('A' for Active; 'I' for Inactive)
REMARK    1  A    between atoms: C_1  and  C_2
REMARK    2  A    between atoms: C_3  and  O_45
REMARK    3  A    between atoms: C_4  and  O_44
REMARK    4  A    between atoms: C_5  and  O_43
REMARK    5  A    between atoms: C_6  and  O_8
REMARK    6  A    between atoms: O_8  and  C_9
REMARK    7  A    between atoms: C_11  and  O_42
REMARK    8  A    between atoms: C_16  and  C_34
REMARK    9  A    between atoms: C_17  and  O_20
REMARK   10  A    between atoms: O_20  and  C_21
REMARK   11  A    between atoms: C_22  and  O_33
REMARK   12  A    between atoms: C_23  and  O_32
REMARK   13  A    between atoms: C_24  and  O_28
REMARK   14  A    between atoms: C_25  and  C_27
REMARK   15  A    between atoms: O_28  and  C_29
REMARK   16  A    between atoms: C_29  and  C_31
REMARK   17  A    between atoms: C_36  and  O_41
REMARK   18  A    between atoms: C_37  and  O_40
REMARK                            x       y       z     vdW  Elec       q    Type
REMARK                         _______ _______ _______ _____ _____    ______ ____
ROOT
ATOM      1  C   UNL     1       9.260  -0.635  24.106  0.00  0.00    +0.131 A 
ATOM      2  C   UNL     1       7.978  -0.602  24.676  0.00  0.00    +0.093 A 
ATOM      3  C   UNL     1       7.385  -1.782  25.157  0.00  0.00    +0.147 A 
ATOM      4  O   UNL     1       6.120  -1.710  25.697  0.00  0.00    -0.451 OA
ATOM      5  C   UNL     1       5.563  -2.835  26.335  0.00  0.00    +0.181 A 
ATOM      6  C   UNL     1       6.128  -4.069  26.263  0.00  0.00    +0.214 A 
ATOM      7  C   UNL     1       7.368  -4.204  25.427  0.00  0.00    +0.238 A 
ATOM      8  O   UNL     1       7.784  -5.278  25.015  0.00  0.00    -0.283 OA
ATOM      9  C   UNL     1       8.074  -2.981  25.056  0.00  0.00    +0.109 A 
ATOM     10  C   UNL     1       9.376  -3.004  24.543  0.00  0.00    +0.135 A 
ATOM     11  C   UNL     1       9.961  -1.840  24.065  0.00  0.00    +0.092 A 
ENDROOT
BRANCH   5  12
ATOM     12  C   UNL     1       4.278  -2.511  27.075  0.00  0.00    +0.025 A 
ATOM     13  C   UNL     1       4.146  -2.579  28.482  0.00  0.00    +0.015 A 
ATOM     14  C   UNL     1       2.962  -2.265  29.156  0.00  0.00    +0.050 A 
ATOM     15  C   UNL     1       1.859  -1.888  28.429  0.00  0.00    +0.158 A 
ATOM     16  C   UNL     1       1.926  -1.823  27.042  0.00  0.00    +0.159 A 
ATOM     17  C   UNL     1       3.117  -2.129  26.366  0.00  0.00    +0.060 A 
BRANCH  15  18
ATOM     18  O   UNL     1       0.705  -1.584  29.089  0.00  0.00    -0.503 OA
ATOM     19  H   UNL     1       0.994  -1.185  29.931  0.00  0.00    +0.292 HD
ENDBRANCH  15  18
BRANCH  16  20
ATOM     20  O   UNL     1       0.785  -1.462  26.381  0.00  0.00    -0.503 OA
ATOM     21  H   UNL     1       0.175  -2.222  26.380  0.00  0.00    +0.292 HD
ENDBRANCH  16  20
ENDBRANCH   5  12
BRANCH  10  22
ATOM     22  O   UNL     1      10.113  -4.155  24.528  0.00  0.00    -0.506 OA
ATOM     23  H   UNL     1      10.371  -4.380  23.623  0.00  0.00    +0.292 HD
ENDBRANCH  10  22
BRANCH   1  24
ATOM     24  O   UNL     1       9.958   0.397  23.545  0.00  0.00    -0.461 OA
BRANCH  24  28
ATOM     25  C   UNL     1       7.946   3.567  25.602  0.00  0.00    +0.041 C 
ATOM     26  C   UNL     1       8.033   3.458  24.079  0.00  0.00    +0.150 C 
ATOM     27  O   UNL     1       8.365   2.126  23.673  0.00  0.00    -0.334 OA
ATOM     28  C   UNL     1       9.704   1.728  23.991  0.00  0.00    +0.339 C 
ATOM     29  C   UNL     1      10.694   2.659  23.251  0.00  0.00    +0.214 C 
ATOM     30  C   UNL     1      10.447   4.104  23.687  0.00  0.00    +0.180 C 
ATOM     31  C   UNL     1       8.979   4.491  23.447  0.00  0.00    +0.174 C 
BRANCH  29  32
ATOM     32  O   UNL     1      10.523   2.606  21.816  0.00  0.00    -0.383 OA
ATOM     33  H   UNL     1       9.643   2.212  21.650  0.00  0.00    +0.210 HD
ENDBRANCH  29  32
BRANCH  30  34
ATOM     34  O   UNL     1      11.297   5.002  22.963  0.00  0.00    -0.386 OA
ATOM     35  H   UNL     1      11.799   4.445  22.331  0.00  0.00    +0.210 HD
ENDBRANCH  30  34
BRANCH  31  36
ATOM     36  O   UNL     1       8.687   5.791  23.972  0.00  0.00    -0.387 OA
ATOM     37  H   UNL     1       9.517   6.304  23.973  0.00  0.00    +0.210 HD
ENDBRANCH  31  36
ENDBRANCH  24  28
ENDBRANCH   1  24
BRANCH   6  38
ATOM     38  O   UNL     1       5.592  -5.163  26.939  0.00  0.00    -0.453 OA
BRANCH  38  39
ATOM     39  C   UNL     1       5.309  -6.359  26.203  0.00  0.00    +0.340 C 
ATOM     40  O   UNL     1       4.759  -6.058  24.920  0.00  0.00    -0.333 OA
ATOM     41  C   UNL     1       3.405  -5.603  24.933  0.00  0.00    +0.163 C 
ATOM     42  C   UNL     1       3.056  -5.203  23.507  0.00  0.00    +0.042 C 
ATOM     43  C   UNL     1       2.509  -6.718  25.480  0.00  0.00    +0.236 C 
ATOM     44  C   UNL     1       2.916  -6.945  26.939  0.00  0.00    +0.192 C 
ATOM     45  C   UNL     1       4.406  -7.313  27.031  0.00  0.00    +0.215 C 
BRANCH  44  46
ATOM     46  O   UNL     1       2.099  -7.970  27.525  0.00  0.00    -0.385 OA
ATOM     47  H   UNL     1       1.937  -8.644  26.841  0.00  0.00    +0.210 HD
ENDBRANCH  44  46
BRANCH  45  48
ATOM     48  O   UNL     1       4.823  -7.401  28.401  0.00  0.00    -0.383 OA
ATOM     49  H   UNL     1       4.838  -8.343  28.645  0.00  0.00    +0.210 HD
ENDBRANCH  45  48
BRANCH  43  50
ATOM     50  O   UNL     1       2.776  -7.946  24.753  0.00  0.00    -0.456 OA
BRANCH  50  51
ATOM     51  C   UNL     1       1.727  -8.738  24.422  0.00  0.00    +0.304 C 
ATOM     52  C   UNL     1       1.251  -8.416  23.036  0.00  0.00    +0.136 C 
ATOM     53  O   UNL     1       1.206  -9.571  25.147  0.00  0.00    -0.251 OA
ENDBRANCH  50  51
ENDBRANCH  43  50
ENDBRANCH  38  39
ENDBRANCH   6  38
TORSDOF 15
ENDMDL
MODEL 3
REMARK VINA RESULT:      -6.4      2.483      5.116
REMARK  Name = 
REMARK  18 active torsions:
REMARK  status: ('A' for Active; 'I' for Inactive)
REMARK    1  A    between atoms: C_1  and  C_2
REMARK    2  A    between atoms: C_3  and  O_45
REMARK    3  A    between atoms: C_4  and  O_44
REMARK    4  A    between atoms: C_5  and  O_43
REMARK    5  A    between atoms: C_6  and  O_8
REMARK    6  A    between atoms: O_8  and  C_9
REMARK    7  A    between atoms: C_11  and  O_42
REMARK    8  A    between atoms: C_16  and  C_34
REMARK    9  A    between atoms: C_17  and  O_20
REMARK   10  A    between atoms: O_20  and  C_21
REMARK   11  A    between atoms: C_22  and  O_33
REMARK   12  A    between atoms: C_23  and  O_32
REMARK   13  A    between atoms: C_24  and  O_28
REMARK   14  A    between atoms: C_25  and  C_27
REMARK   15  A    between atoms: O_28  and  C_29
REMARK   16  A    between atoms: C_29  and  C_31
REMARK   17  A    between atoms: C_36  and  O_41
REMARK   18  A    between atoms: C_37  and  O_40
REMARK                            x       y       z     vdW  Elec       q    Type
REMARK                         _______ _______ _______ _____ _____    ______ ____
ROOT
ATOM      1  C   UNL     1       5.505  -4.917  25.570  0.00  0.00    +0.131 A 
ATOM      2  C   UNL     1       6.182  -3.933  24.833  0.00  0.00    +0.093 A 
ATOM      3  C   UNL     1       6.324  -2.633  25.350  0.00  0.00    +0.147 A 
ATOM      4  O   UNL     1       6.984  -1.692  24.590  0.00  0.00    -0.451 OA
ATOM      5  C   UNL     1       7.288  -0.433  25.141  0.00  0.00    +0.181 A 
ATOM      6  C   UNL     1       6.777  -0.012  26.328  0.00  0.00    +0.214 A 
ATOM      7  C   UNL     1       5.821  -0.936  27.025  0.00  0.00    +0.238 A 
ATOM      8  O   UNL     1       5.054  -0.568  27.903  0.00  0.00    -0.283 OA
ATOM      9  C   UNL     1       5.784  -2.330  26.590  0.00  0.00    +0.109 A 
ATOM     10  C   UNL     1       5.163  -3.327  27.351  0.00  0.00    +0.135 A 
ATOM     11  C   UNL     1       5.018  -4.609  26.841  0.00  0.00    +0.092 A 
ENDROOT
BRANCH   5  12
ATOM     12  C   UNL     1       8.217   0.382  24.259  0.00  0.00    +0.025 A 
ATOM     13  C   UNL     1       9.361   1.061  24.742  0.00  0.00    +0.015 A 
ATOM     14  C   UNL     1      10.218   1.797  23.920  0.00  0.00    +0.050 A 
ATOM     15  C   UNL     1       9.941   1.890  22.577  0.00  0.00    +0.158 A 
ATOM     16  C   UNL     1       8.819   1.259  22.051  0.00  0.00    +0.159 A 
ATOM     17  C   UNL     1       7.964   0.512  22.875  0.00  0.00    +0.060 A 
BRANCH  15  18
ATOM     18  O   UNL     1      10.778   2.611  21.778  0.00  0.00    -0.503 OA
ATOM     19  H   UNL     1      10.500   2.398  20.866  0.00  0.00    +0.292 HD
ENDBRANCH  15  18
BRANCH  16  20
ATOM     20  O   UNL     1       8.592   1.411  20.712  0.00  0.00    -0.503 OA
ATOM     21  H   UNL     1       8.043   0.665  20.405  0.00  0.00    +0.292 HD
ENDBRANCH  16  20
ENDBRANCH   5  12
BRANCH  10  22
ATOM     22  O   UNL     1       4.713  -3.077  28.618  0.00  0.00    -0.506 OA
ATOM     23  H   UNL     1       5.415  -2.681  29.154  0.00  0.00    +0.292 HD
ENDBRANCH  10  22
BRANCH   1  24
ATOM     24  O   UNL     1       5.230  -6.204  25.201  0.00  0.00    -0.461 OA
BRANCH  24  28
ATOM     25  C   UNL     1       1.589  -8.394  25.730  0.00  0.00    +0.041 C 
ATOM     26  C   UNL     1       2.443  -8.451  24.463  0.00  0.00    +0.150 C 
ATOM     27  O   UNL     1       3.775  -7.990  24.714  0.00  0.00    -0.334 OA
ATOM     28  C   UNL     1       3.874  -6.584  24.972  0.00  0.00    +0.339 C 
ATOM     29  C   UNL     1       3.381  -5.808  23.727  0.00  0.00    +0.214 C 
ATOM     30  C   UNL     1       1.931  -6.198  23.433  0.00  0.00    +0.180 C 
ATOM     31  C   UNL     1       1.812  -7.722  23.267  0.00  0.00    +0.174 C 
BRANCH  29  32
ATOM     32  O   UNL     1       4.159  -6.120  22.548  0.00  0.00    -0.383 OA
ATOM     33  H   UNL     1       3.635  -6.758  22.023  0.00  0.00    +0.210 HD
ENDBRANCH  29  32
BRANCH  30  34
ATOM     34  O   UNL     1       1.469  -5.555  22.239  0.00  0.00    -0.386 OA
ATOM     35  H   UNL     1       2.195  -4.962  21.956  0.00  0.00    +0.210 HD
ENDBRANCH  30  34
BRANCH  31  36
ATOM     36  O   UNL     1       0.445  -8.127  23.127  0.00  0.00    -0.387 OA
ATOM     37  H   UNL     1       0.082  -8.262  24.023  0.00  0.00    +0.210 HD
ENDBRANCH  31  36
ENDBRANCH  24  28
ENDBRANCH   1  24
BRANCH   6  38
ATOM     38  O   UNL     1       7.125   1.217  26.884  0.00  0.00    -0.453 OA
BRANCH  38  39
ATOM     39  C   UNL     1       6.118   2.228  27.011  0.00  0.00    +0.340 C 
ATOM     40  O   UNL     1       5.543   2.547  25.745  0.00  0.00    -0.333 OA
ATOM     41  C   UNL     1       6.377   3.320  24.878  0.00  0.00    +0.163 C 
ATOM     42  C   UNL     1       5.651   3.430  23.545  0.00  0.00    +0.042 C 
ATOM     43  C   UNL     1       6.647   4.679  25.528  0.00  0.00    +0.236 C 
ATOM     44  C   UNL     1       7.455   4.414  26.802  0.00  0.00    +0.192 C 
ATOM     45  C   UNL     1       6.682   3.476  27.743  0.00  0.00    +0.215 C 
BRANCH  44  46
ATOM     46  O   UNL     1       7.763   5.654  27.457  0.00  0.00    -0.385 OA
ATOM     47  H   UNL     1       7.521   6.376  26.850  0.00  0.00    +0.210 HD
ENDBRANCH  44  46
BRANCH  45  48
ATOM     48  O   UNL     1       7.485   3.121  28.878  0.00  0.00    -0.383 OA
ATOM     49  H   UNL     1       7.118   2.301  29.254  0.00  0.00    +0.210 HD
ENDBRANCH  45  48
BRANCH  43  50
ATOM     50  O   UNL     1       5.386   5.280  25.924  0.00  0.00    -0.456 OA
BRANCH  50  51
ATOM     51  C   UNL     1       5.055   6.485  25.397  0.00  0.00    +0.304 C 
ATOM     52  C   UNL     1       3.732   6.941  25.937  0.00  0.00    +0.136 C 
ATOM     53  O   UNL     1       5.707   7.105  24.572  0.00  0.00    -0.251 OA
ENDBRANCH  50  51
ENDBRANCH  43  50
ENDBRANCH  38  39
ENDBRANCH   6  38
TORSDOF 15
ENDMDL
MODEL 4
REMARK VINA RESULT:      -6.4      2.627      9.910
REMARK  Name = 
REMARK  18 active torsions:
REMARK  status: ('A' for Active; 'I' for Inactive)
REMARK    1  A    between atoms: C_1  and  C_2
REMARK    2  A    between atoms: C_3  and  O_45
REMARK    3  A    between atoms: C_4  and  O_44
REMARK    4  A    between atoms: C_5  and  O_43
REMARK    5  A    between atoms: C_6  and  O_8
REMARK    6  A    between atoms: O_8  and  C_9
REMARK    7  A    between atoms: C_11  and  O_42
REMARK    8  A    between atoms: C_16  and  C_34
REMARK    9  A    between atoms: C_17  and  O_20
REMARK   10  A    between atoms: O_20  and  C_21
REMARK   11  A    between atoms: C_22  and  O_33
REMARK   12  A    between atoms: C_23  and  O_32
REMARK   13  A    between atoms: C_24  and  O_28
REMARK   14  A    between atoms: C_25  and  C_27
REMARK   15  A    between atoms: O_28  and  C_29
REMARK   16  A    between atoms: C_29  and  C_31
REMARK   17  A    between atoms: C_36  and  O_41
REMARK   18  A    between atoms: C_37  and  O_40
REMARK                            x       y       z     vdW  Elec       q    Type
REMARK                         _______ _______ _______ _____ _____    ______ ____
ROOT
ATOM      1  C   UNL     1       9.579   1.453  23.885  0.00  0.00    +0.131 A 
ATOM      2  C   UNL     1       8.705   0.885  24.825  0.00  0.00    +0.093 A 
ATOM      3  C   UNL     1       8.064  -0.336  24.550  0.00  0.00    +0.147 A 
ATOM      4  O   UNL     1       7.204  -0.855  25.492  0.00  0.00    -0.451 OA
ATOM      5  C   UNL     1       6.674  -2.148  25.323  0.00  0.00    +0.181 A 
ATOM      6  C   UNL     1       6.801  -2.844  24.162  0.00  0.00    +0.214 A 
ATOM      7  C   UNL     1       7.501  -2.154  23.027  0.00  0.00    +0.238 A 
ATOM      8  O   UNL     1       7.402  -2.513  21.861  0.00  0.00    -0.283 OA
ATOM      9  C   UNL     1       8.297  -0.969  23.339  0.00  0.00    +0.109 A 
ATOM     10  C   UNL     1       9.214  -0.433  22.427  0.00  0.00    +0.135 A 
ATOM     11  C   UNL     1       9.845   0.773  22.697  0.00  0.00    +0.092 A 
ENDROOT
BRANCH   5  12
ATOM     12  C   UNL     1       5.946  -2.648  26.557  0.00  0.00    +0.025 A 
ATOM     13  C   UNL     1       4.950  -1.904  27.234  0.00  0.00    +0.015 A 
ATOM     14  C   UNL     1       4.275  -2.378  28.362  0.00  0.00    +0.050 A 
ATOM     15  C   UNL     1       4.594  -3.618  28.861  0.00  0.00    +0.158 A 
ATOM     16  C   UNL     1       5.578  -4.385  28.247  0.00  0.00    +0.159 A 
ATOM     17  C   UNL     1       6.250  -3.913  27.109  0.00  0.00    +0.060 A 
BRANCH  15  18
ATOM     18  O   UNL     1       3.935  -4.077  29.963  0.00  0.00    -0.503 OA
ATOM     19  H   UNL     1       3.768  -3.283  30.505  0.00  0.00    +0.292 HD
ENDBRANCH  15  18
BRANCH  16  20
ATOM     20  O   UNL     1       5.861  -5.599  28.808  0.00  0.00    -0.503 OA
ATOM     21  H   UNL     1       5.201  -5.779  29.503  0.00  0.00    +0.292 HD
ENDBRANCH  16  20
ENDBRANCH   5  12
BRANCH  10  22
ATOM     22  O   UNL     1       9.536  -1.091  21.273  0.00  0.00    -0.506 OA
ATOM     23  H   UNL     1      10.383  -1.550  21.370  0.00  0.00    +0.292 HD
ENDBRANCH  10  22
BRANCH   1  24
ATOM     24  O   UNL     1      10.238   2.647  23.965  0.00  0.00    -0.461 OA
BRANCH  24  28
ATOM     25  C   UNL     1       8.132   5.557  26.294  0.00  0.00    +0.041 C 
ATOM     26  C   UNL     1       7.471   4.668  25.240  0.00  0.00    +0.150 C 
ATOM     27  O   UNL     1       8.285   3.528  24.941  0.00  0.00    -0.334 OA
ATOM     28  C   UNL     1       9.492   3.834  24.234  0.00  0.00    +0.339 C 
ATOM     29  C   UNL     1       9.130   4.469  22.870  0.00  0.00    +0.214 C 
ATOM     30  C   UNL     1       8.313   5.740  23.109  0.00  0.00    +0.180 C 
ATOM     31  C   UNL     1       7.075   5.426  23.964  0.00  0.00    +0.174 C 
BRANCH  29  32
ATOM     32  O   UNL     1       8.326   3.586  22.054  0.00  0.00    -0.383 OA
ATOM     33  H   UNL     1       7.412   3.633  22.402  0.00  0.00    +0.210 HD
ENDBRANCH  29  32
BRANCH  30  34
ATOM     34  O   UNL     1       7.895   6.313  21.864  0.00  0.00    -0.386 OA
ATOM     35  H   UNL     1       8.636   6.882  21.569  0.00  0.00    +0.210 HD
ENDBRANCH  30  34
BRANCH  31  36
ATOM     36  O   UNL     1       6.366   6.620  24.317  0.00  0.00    -0.387 OA
ATOM     37  H   UNL     1       6.903   7.381  24.027  0.00  0.00    +0.210 HD
ENDBRANCH  31  36
ENDBRANCH  24  28
ENDBRANCH   1  24
BRANCH   6  38
ATOM     38  O   UNL     1       6.313  -4.141  24.025  0.00  0.00    -0.453 OA
BRANCH  38  39
ATOM     39  C   UNL     1       5.167  -4.365  23.195  0.00  0.00    +0.340 C 
ATOM     40  O   UNL     1       4.012  -3.713  23.722  0.00  0.00    -0.333 OA
ATOM     41  C   UNL     1       3.443  -4.329  24.880  0.00  0.00    +0.163 C 
ATOM     42  C   UNL     1       2.327  -3.417  25.366  0.00  0.00    +0.042 C 
ATOM     43  C   UNL     1       2.953  -5.731  24.507  0.00  0.00    +0.236 C 
ATOM     44  C   UNL     1       4.189  -6.552  24.128  0.00  0.00    +0.192 C 
ATOM     45  C   UNL     1       4.942  -5.885  22.966  0.00  0.00    +0.215 C 
BRANCH  44  46
ATOM     46  O   UNL     1       3.804  -7.892  23.784  0.00  0.00    -0.385 OA
ATOM     47  H   UNL     1       3.197  -7.838  23.025  0.00  0.00    +0.210 HD
ENDBRANCH  44  46
BRANCH  45  48
ATOM     48  O   UNL     1       6.168  -6.578  22.692  0.00  0.00    -0.383 OA
ATOM     49  H   UNL     1       6.351  -7.164  23.447  0.00  0.00    +0.210 HD
ENDBRANCH  45  48
BRANCH  43  50
ATOM     50  O   UNL     1       2.104  -5.645  23.332  0.00  0.00    -0.456 OA
BRANCH  50  51
ATOM     51  C   UNL     1       1.085  -6.530  23.209  0.00  0.00    +0.304 C 
ATOM     52  C   UNL     1       0.443  -6.398  21.860  0.00  0.00    +0.136 C 
ATOM     53  O   UNL     1       0.705  -7.303  24.075  0.00  0.00    -0.251 OA
ENDBRANCH  50  51
ENDBRANCH  43  50
ENDBRANCH  38  39
ENDBRANCH   6  38
TORSDOF 15
ENDMDL
MODEL 5
REMARK VINA RESULT:      -6.3      1.699      2.790
REMARK  Name = 
REMARK  18 active torsions:
REMARK  status: ('A' for Active; 'I' for Inactive)
REMARK    1  A    between atoms: C_1  and  C_2
REMARK    2  A    between atoms: C_3  and  O_45
REMARK    3  A    between atoms: C_4  and  O_44
REMARK    4  A    between atoms: C_5  and  O_43
REMARK    5  A    between atoms: C_6  and  O_8
REMARK    6  A    between atoms: O_8  and  C_9
REMARK    7  A    between atoms: C_11  and  O_42
REMARK    8  A    between atoms: C_16  and  C_34
REMARK    9  A    between atoms: C_17  and  O_20
REMARK   10  A    between atoms: O_20  and  C_21
REMARK   11  A    between atoms: C_22  and  O_33
REMARK   12  A    between atoms: C_23  and  O_32
REMARK   13  A    between atoms: C_24  and  O_28
REMARK   14  A    between atoms: C_25  and  C_27
REMARK   15  A    between atoms: O_28  and  C_29
REMARK   16  A    between atoms: C_29  and  C_31
REMARK   17  A    between atoms: C_36  and  O_41
REMARK   18  A    between atoms: C_37  and  O_40
REMARK                            x       y       z     vdW  Elec       q    Type
REMARK                         _______ _______ _______ _____ _____    ______ ____
ROOT
ATOM      1  C   UNL     1       7.524  -3.917  25.913  0.00  0.00    +0.131 A 
ATOM      2  C   UNL     1       7.261  -2.596  26.307  0.00  0.00    +0.093 A 
ATOM      3  C   UNL     1       7.266  -1.559  25.357  0.00  0.00    +0.147 A 
ATOM      4  O   UNL     1       7.016  -0.274  25.785  0.00  0.00    -0.451 OA
ATOM      5  C   UNL     1       6.852   0.760  24.844  0.00  0.00    +0.181 A 
ATOM      6  C   UNL     1       7.137   0.599  23.525  0.00  0.00    +0.214 A 
ATOM      7  C   UNL     1       7.687  -0.733  23.103  0.00  0.00    +0.238 A 
ATOM      8  O   UNL     1       8.280  -0.909  22.047  0.00  0.00    -0.283 OA
ATOM      9  C   UNL     1       7.542  -1.852  24.030  0.00  0.00    +0.109 A 
ATOM     10  C   UNL     1       7.745  -3.177  23.628  0.00  0.00    +0.135 A 
ATOM     11  C   UNL     1       7.743  -4.201  24.565  0.00  0.00    +0.092 A 
ENDROOT
BRANCH   5  12
ATOM     12  C   UNL     1       6.349   2.047  25.471  0.00  0.00    +0.025 A 
ATOM     13  C   UNL     1       5.240   2.777  24.981  0.00  0.00    +0.015 A 
ATOM     14  C   UNL     1       4.776   3.955  25.574  0.00  0.00    +0.050 A 
ATOM     15  C   UNL     1       5.428   4.450  26.678  0.00  0.00    +0.158 A 
ATOM     16  C   UNL     1       6.535   3.784  27.191  0.00  0.00    +0.159 A 
ATOM     17  C   UNL     1       6.996   2.597  26.601  0.00  0.00    +0.060 A 
BRANCH  15  18
ATOM     18  O   UNL     1       4.974   5.600  27.253  0.00  0.00    -0.503 OA
ATOM     19  H   UNL     1       5.754   5.983  27.698  0.00  0.00    +0.292 HD
ENDBRANCH  15  18
BRANCH  16  20
ATOM     20  O   UNL     1       7.149   4.343  28.277  0.00  0.00    -0.503 OA
ATOM     21  H   UNL     1       6.572   5.046  28.630  0.00  0.00    +0.292 HD
ENDBRANCH  16  20
ENDBRANCH   5  12
BRANCH  10  22
ATOM     22  O   UNL     1       7.918  -3.502  22.312  0.00  0.00    -0.506 OA
ATOM     23  H   UNL     1       7.109  -3.891  21.950  0.00  0.00    +0.292 HD
ENDBRANCH  10  22
BRANCH   1  24
ATOM     24  O   UNL     1       7.611  -5.028  26.704  0.00  0.00    -0.461 OA
BRANCH  24  28
ATOM     25  C   UNL     1       5.738  -5.753  30.485  0.00  0.00    +0.041 C 
ATOM     26  C   UNL     1       5.860  -6.801  29.378  0.00  0.00    +0.150 C 
ATOM     27  O   UNL     1       6.877  -6.444  28.436  0.00  0.00    -0.334 OA
ATOM     28  C   UNL     1       6.555  -5.312  27.620  0.00  0.00    +0.339 C 
ATOM     29  C   UNL     1       5.294  -5.636  26.784  0.00  0.00    +0.214 C 
ATOM     30  C   UNL     1       4.136  -5.964  27.728  0.00  0.00    +0.180 C 
ATOM     31  C   UNL     1       4.528  -7.107  28.678  0.00  0.00    +0.174 C 
BRANCH  29  32
ATOM     32  O   UNL     1       5.490  -6.785  25.927  0.00  0.00    -0.383 OA
ATOM     33  H   UNL     1       6.236  -6.571  25.331  0.00  0.00    +0.210 HD
ENDBRANCH  29  32
BRANCH  30  34
ATOM     34  O   UNL     1       2.972  -6.344  26.985  0.00  0.00    -0.386 OA
ATOM     35  H   UNL     1       2.295  -5.662  27.178  0.00  0.00    +0.210 HD
ENDBRANCH  30  34
BRANCH  31  36
ATOM     36  O   UNL     1       3.513  -7.342  29.662  0.00  0.00    -0.387 OA
ATOM     37  H   UNL     1       2.654  -7.106  29.264  0.00  0.00    +0.210 HD
ENDBRANCH  31  36
ENDBRANCH  24  28
ENDBRANCH   1  24
BRANCH   6  38
ATOM     38  O   UNL     1       6.924   1.617  22.597  0.00  0.00    -0.453 OA
BRANCH  38  39
ATOM     39  C   UNL     1       8.053   2.343  22.096  0.00  0.00    +0.340 C 
ATOM     40  O   UNL     1       9.270   1.865  22.670  0.00  0.00    -0.333 OA
ATOM     41  C   UNL     1       9.485   2.238  24.033  0.00  0.00    +0.163 C 
ATOM     42  C   UNL     1      10.745   1.523  24.496  0.00  0.00    +0.042 C 
ATOM     43  C   UNL     1       9.593   3.763  24.122  0.00  0.00    +0.236 C 
ATOM     44  C   UNL     1       8.231   4.333  23.713  0.00  0.00    +0.192 C 
ATOM     45  C   UNL     1       7.857   3.870  22.296  0.00  0.00    +0.215 C 
BRANCH  44  46
ATOM     46  O   UNL     1       8.254   5.767  23.792  0.00  0.00    -0.385 OA
ATOM     47  H   UNL     1       8.163   6.012  24.730  0.00  0.00    +0.210 HD
ENDBRANCH  44  46
BRANCH  45  48
ATOM     48  O   UNL     1       6.529   4.294  21.958  0.00  0.00    -0.383 OA
ATOM     49  H   UNL     1       5.917   3.584  22.220  0.00  0.00    +0.210 HD
ENDBRANCH  45  48
BRANCH  43  50
ATOM     50  O   UNL     1      10.573   4.230  23.157  0.00  0.00    -0.456 OA
BRANCH  50  51
ATOM     51  C   UNL     1      11.423   5.217  23.531  0.00  0.00    +0.304 C 
ATOM     52  C   UNL     1      12.807   4.928  23.031  0.00  0.00    +0.136 C 
ATOM     53  O   UNL     1      11.130   6.189  24.210  0.00  0.00    -0.251 OA
ENDBRANCH  50  51
ENDBRANCH  43  50
ENDBRANCH  38  39
ENDBRANCH   6  38
TORSDOF 15
ENDMDL
MODEL 6
REMARK VINA RESULT:      -6.2      2.856     10.450
REMARK  Name = 
REMARK  18 active torsions:
REMARK  status: ('A' for Active; 'I' for Inactive)
REMARK    1  A    between atoms: C_1  and  C_2
REMARK    2  A    between atoms: C_3  and  O_45
REMARK    3  A    between atoms: C_4  and  O_44
REMARK    4  A    between atoms: C_5  and  O_43
REMARK    5  A    between atoms: C_6  and  O_8
REMARK    6  A    between atoms: O_8  and  C_9
REMARK    7  A    between atoms: C_11  and  O_42
REMARK    8  A    between atoms: C_16  and  C_34
REMARK    9  A    between atoms: C_17  and  O_20
REMARK   10  A    between atoms: O_20  and  C_21
REMARK   11  A    between atoms: C_22  and  O_33
REMARK   12  A    between atoms: C_23  and  O_32
REMARK   13  A    between atoms: C_24  and  O_28
REMARK   14  A    between atoms: C_25  and  C_27
REMARK   15  A    between atoms: O_28  and  C_29
REMARK   16  A    between atoms: C_29  and  C_31
REMARK   17  A    between atoms: C_36  and  O_41
REMARK   18  A    between atoms: C_37  and  O_40
REMARK                            x       y       z     vdW  Elec       q    Type
REMARK                         _______ _______ _______ _____ _____    ______ ____
ROOT
ATOM      1  C   UNL     1       6.001   3.268  26.239  0.00  0.00    +0.131 A 
ATOM      2  C   UNL     1       6.787   2.105  26.222  0.00  0.00    +0.093 A 
ATOM      3  C   UNL     1       6.178   0.838  26.238  0.00  0.00    +0.147 A 
ATOM      4  O   UNL     1       6.984  -0.279  26.234  0.00  0.00    -0.451 OA
ATOM      5  C   UNL     1       6.412  -1.557  26.085  0.00  0.00    +0.181 A 
ATOM      6  C   UNL     1       5.072  -1.770  26.154  0.00  0.00    +0.214 A 
ATOM      7  C   UNL     1       4.206  -0.579  26.446  0.00  0.00    +0.238 A 
ATOM      8  O   UNL     1       3.055  -0.670  26.851  0.00  0.00    -0.283 OA
ATOM      9  C   UNL     1       4.795   0.747  26.278  0.00  0.00    +0.109 A 
ATOM     10  C   UNL     1       4.011   1.905  26.234  0.00  0.00    +0.135 A 
ATOM     11  C   UNL     1       4.611   3.157  26.221  0.00  0.00    +0.092 A 
ENDROOT
BRANCH   5  12
ATOM     12  C   UNL     1       7.452  -2.640  25.863  0.00  0.00    +0.025 A 
ATOM     13  C   UNL     1       8.503  -2.536  24.921  0.00  0.00    +0.015 A 
ATOM     14  C   UNL     1       9.464  -3.533  24.733  0.00  0.00    +0.050 A 
ATOM     15  C   UNL     1       9.390  -4.683  25.481  0.00  0.00    +0.158 A 
ATOM     16  C   UNL     1       8.367  -4.848  26.408  0.00  0.00    +0.159 A 
ATOM     17  C   UNL     1       7.407  -3.843  26.603  0.00  0.00    +0.060 A 
BRANCH  15  18
ATOM     18  O   UNL     1      10.328  -5.655  25.295  0.00  0.00    -0.503 OA
ATOM     19  H   UNL     1      10.952  -5.548  26.038  0.00  0.00    +0.292 HD
ENDBRANCH  15  18
BRANCH  16  20
ATOM     20  O   UNL     1       8.340  -6.025  27.102  0.00  0.00    -0.503 OA
ATOM     21  H   UNL     1       8.621  -6.742  26.504  0.00  0.00    +0.292 HD
ENDBRANCH  16  20
ENDBRANCH   5  12
BRANCH  10  22
ATOM     22  O   UNL     1       2.647   1.838  26.170  0.00  0.00    -0.506 OA
ATOM     23  H   UNL     1       2.249   2.316  26.911  0.00  0.00    +0.292 HD
ENDBRANCH  10  22
BRANCH   1  24
ATOM     24  O   UNL     1       6.422   4.567  26.281  0.00  0.00    -0.461 OA
BRANCH  24  28
ATOM     25  C   UNL     1       5.144   6.485  22.673  0.00  0.00    +0.041 C 
ATOM     26  C   UNL     1       6.031   5.240  22.709  0.00  0.00    +0.150 C 
ATOM     27  O   UNL     1       5.943   4.578  23.976  0.00  0.00    -0.334 OA
ATOM     28  C   UNL     1       6.542   5.296  25.060  0.00  0.00    +0.339 C 
ATOM     29  C   UNL     1       8.053   5.471  24.774  0.00  0.00    +0.214 C 
ATOM     30  C   UNL     1       8.231   6.236  23.461  0.00  0.00    +0.180 C 
ATOM     31  C   UNL     1       7.491   5.518  22.321  0.00  0.00    +0.174 C 
BRANCH  29  32
ATOM     32  O   UNL     1       8.730   4.201  24.628  0.00  0.00    -0.383 OA
ATOM     33  H   UNL     1       9.120   3.986  25.500  0.00  0.00    +0.210 HD
ENDBRANCH  29  32
BRANCH  30  34
ATOM     34  O   UNL     1       9.619   6.348  23.127  0.00  0.00    -0.386 OA
ATOM     35  H   UNL     1       9.723   5.901  22.261  0.00  0.00    +0.210 HD
ENDBRANCH  30  34
BRANCH  31  36
ATOM     36  O   UNL     1       7.526   6.284  21.111  0.00  0.00    -0.387 OA
ATOM     37  H   UNL     1       8.289   6.890  21.164  0.00  0.00    +0.210 HD
ENDBRANCH  31  36
ENDBRANCH  24  28
ENDBRANCH   1  24
BRANCH   6  38
ATOM     38  O   UNL     1       4.517  -3.033  25.956  0.00  0.00    -0.453 OA
BRANCH  38  39
ATOM     39  C   UNL     1       3.583  -3.217  24.885  0.00  0.00    +0.340 C 
ATOM     40  O   UNL     1       2.340  -3.731  25.366  0.00  0.00    -0.333 OA
ATOM     41  C   UNL     1       2.361  -5.109  25.744  0.00  0.00    +0.163 C 
ATOM     42  C   UNL     1       1.003  -5.422  26.355  0.00  0.00    +0.042 C 
ATOM     43  C   UNL     1       2.674  -5.960  24.510  0.00  0.00    +0.236 C 
ATOM     44  C   UNL     1       4.095  -5.600  24.067  0.00  0.00    +0.192 C 
ATOM     45  C   UNL     1       4.199  -4.096  23.763  0.00  0.00    +0.215 C 
BRANCH  44  46
ATOM     46  O   UNL     1       4.465  -6.379  22.919  0.00  0.00    -0.385 OA
ATOM     47  H   UNL     1       3.937  -6.062  22.165  0.00  0.00    +0.210 HD
ENDBRANCH  44  46
BRANCH  45  48
ATOM     48  O   UNL     1       5.555  -3.730  23.472  0.00  0.00    -0.383 OA
ATOM     49  H   UNL     1       5.606  -2.758  23.479  0.00  0.00    +0.210 HD
ENDBRANCH  45  48
BRANCH  43  50
ATOM     50  O   UNL     1       1.771  -5.593  23.434  0.00  0.00    -0.456 OA
BRANCH  50  51
ATOM     51  C   UNL     1       1.076  -6.578  22.815  0.00  0.00    +0.304 C 
ATOM     52  C   UNL     1       1.228  -7.870  23.562  0.00  0.00    +0.136 C 
ATOM     53  O   UNL     1       0.443  -6.460  21.777  0.00  0.00    -0.251 OA
ENDBRANCH  50  51
ENDBRANCH  43  50
ENDBRANCH  38  39
ENDBRANCH   6  38
TORSDOF 15
ENDMDL
MODEL 7
REMARK VINA RESULT:      -6.2      3.076      6.179
REMARK  Name = 
REMARK  18 active torsions:
REMARK  status: ('A' for Active; 'I' for Inactive)
REMARK    1  A    between atoms: C_1  and  C_2
REMARK    2  A    between atoms: C_3  and  O_45
REMARK    3  A    between atoms: C_4  and  O_44
REMARK    4  A    between atoms: C_5  and  O_43
REMARK    5  A    between atoms: C_6  and  O_8
REMARK    6  A    between atoms: O_8  and  C_9
REMARK    7  A    between atoms: C_11  and  O_42
REMARK    8  A    between atoms: C_16  and  C_34
REMARK    9  A    between atoms: C_17  and  O_20
REMARK   10  A    between atoms: O_20  and  C_21
REMARK   11  A    between atoms: C_22  and  O_33
REMARK   12  A    between atoms: C_23  and  O_32
REMARK   13  A    between atoms: C_24  and  O_28
REMARK   14  A    between atoms: C_25  and  C_27
REMARK   15  A    between atoms: O_28  and  C_29
REMARK   16  A    between atoms: C_29  and  C_31
REMARK   17  A    between atoms: C_36  and  O_41
REMARK   18  A    between atoms: C_37  and  O_40
REMARK                            x       y       z     vdW  Elec       q    Type
REMARK                         _______ _______ _______ _____ _____    ______ ____
ROOT
ATOM      1  C   UNL     1       9.317  -2.091  23.836  0.00  0.00    +0.131 A 
ATOM      2  C   UNL     1      10.041  -0.890  23.890  0.00  0.00    +0.093 A 
ATOM      3  C   UNL     1       9.450   0.314  23.467  0.00  0.00    +0.147 A 
ATOM      4  O   UNL     1      10.197   1.470  23.523  0.00  0.00    -0.451 OA
ATOM      5  C   UNL     1       9.589   2.713  23.265  0.00  0.00    +0.181 A 
ATOM      6  C   UNL     1       8.335   2.820  22.751  0.00  0.00    +0.214 A 
ATOM      7  C   UNL     1       7.622   1.540  22.420  0.00  0.00    +0.238 A 
ATOM      8  O   UNL     1       6.656   1.487  21.672  0.00  0.00    -0.283 OA
ATOM      9  C   UNL     1       8.148   0.303  22.989  0.00  0.00    +0.109 A 
ATOM     10  C   UNL     1       7.406  -0.884  22.992  0.00  0.00    +0.135 A 
ATOM     11  C   UNL     1       7.990  -2.074  23.406  0.00  0.00    +0.092 A 
ENDROOT
BRANCH   5  12
ATOM     12  C   UNL     1      10.491   3.886  23.603  0.00  0.00    +0.025 A 
ATOM     13  C   UNL     1      10.049   5.039  24.294  0.00  0.00    +0.015 A 
ATOM     14  C   UNL     1      10.891   6.109  24.613  0.00  0.00    +0.050 A 
ATOM     15  C   UNL     1      12.209   6.061  24.229  0.00  0.00    +0.158 A 
ATOM     16  C   UNL     1      12.692   4.961  23.530  0.00  0.00    +0.159 A 
ATOM     17  C   UNL     1      11.850   3.883  23.218  0.00  0.00    +0.060 A 
BRANCH  15  18
ATOM     18  O   UNL     1      13.027   7.107  24.540  0.00  0.00    -0.503 OA
ATOM     19  H   UNL     1      12.741   7.394  25.428  0.00  0.00    +0.292 HD
ENDBRANCH  15  18
BRANCH  16  20
ATOM     20  O   UNL     1      14.007   4.988  23.159  0.00  0.00    -0.503 OA
ATOM     21  H   UNL     1      14.108   5.620  22.423  0.00  0.00    +0.292 HD
ENDBRANCH  16  20
ENDBRANCH   5  12
BRANCH  10  22
ATOM     22  O   UNL     1       6.091  -0.901  22.622  0.00  0.00    -0.506 OA
ATOM     23  H   UNL     1       5.575  -1.450  23.229  0.00  0.00    +0.292 HD
ENDBRANCH  10  22
BRANCH   1  24
ATOM     24  O   UNL     1       9.749  -3.348  24.153  0.00  0.00    -0.461 OA
BRANCH  24  28
ATOM     25  C   UNL     1       6.472  -6.004  23.419  0.00  0.00    +0.041 C 
ATOM     26  C   UNL     1       6.429  -4.852  24.425  0.00  0.00    +0.150 C 
ATOM     27  O   UNL     1       7.459  -3.894  24.160  0.00  0.00    -0.334 OA
ATOM     28  C   UNL     1       8.785  -4.362  24.432  0.00  0.00    +0.339 C 
ATOM     29  C   UNL     1       8.899  -4.706  25.936  0.00  0.00    +0.214 C 
ATOM     30  C   UNL     1       7.869  -5.782  26.285  0.00  0.00    +0.180 C 
ATOM     31  C   UNL     1       6.458  -5.319  25.888  0.00  0.00    +0.174 C 
BRANCH  29  32
ATOM     32  O   UNL     1       8.629  -3.562  26.778  0.00  0.00    -0.383 OA
ATOM     33  H   UNL     1       9.198  -3.652  27.569  0.00  0.00    +0.210 HD
ENDBRANCH  29  32
BRANCH  30  34
ATOM     34  O   UNL     1       7.896  -6.069  27.688  0.00  0.00    -0.386 OA
ATOM     35  H   UNL     1       7.016  -5.807  28.032  0.00  0.00    +0.210 HD
ENDBRANCH  30  34
BRANCH  31  36
ATOM     36  O   UNL     1       5.493  -6.360  26.078  0.00  0.00    -0.387 OA
ATOM     37  H   UNL     1       5.568  -6.976  25.324  0.00  0.00    +0.210 HD
ENDBRANCH  31  36
ENDBRANCH  24  28
ENDBRANCH   1  24
BRANCH   6  38
ATOM     38  O   UNL     1       7.728   4.057  22.546  0.00  0.00    -0.453 OA
BRANCH  38  39
ATOM     39  C   UNL     1       7.162   4.744  23.669  0.00  0.00    +0.340 C 
ATOM     40  O   UNL     1       6.277   3.896  24.401  0.00  0.00    -0.333 OA
ATOM     41  C   UNL     1       5.019   3.645  23.769  0.00  0.00    +0.163 C 
ATOM     42  C   UNL     1       4.289   2.620  24.626  0.00  0.00    +0.042 C 
ATOM     43  C   UNL     1       4.257   4.965  23.632  0.00  0.00    +0.236 C 
ATOM     44  C   UNL     1       5.064   5.851  22.678  0.00  0.00    +0.192 C 
ATOM     45  C   UNL     1       6.486   6.068  23.219  0.00  0.00    +0.215 C 
BRANCH  44  46
ATOM     46  O   UNL     1       4.394   7.107  22.487  0.00  0.00    -0.385 OA
ATOM     47  H   UNL     1       4.217   7.484  23.367  0.00  0.00    +0.210 HD
ENDBRANCH  44  46
BRANCH  45  48
ATOM     48  O   UNL     1       7.286   6.788  22.270  0.00  0.00    -0.383 OA
ATOM     49  H   UNL     1       6.845   7.640  22.100  0.00  0.00    +0.210 HD
ENDBRANCH  45  48
BRANCH  43  50
ATOM     50  O   UNL     1       4.216   5.631  24.922  0.00  0.00    -0.456 OA
BRANCH  50  51
ATOM     51  C   UNL     1       3.036   6.149  25.341  0.00  0.00    +0.304 C 
ATOM     52  C   UNL     1       2.635   5.537  26.650  0.00  0.00    +0.136 C 
ATOM     53  O   UNL     1       2.363   6.969  24.734  0.00  0.00    -0.251 OA
ENDBRANCH  50  51
ENDBRANCH  43  50
ENDBRANCH  38  39
ENDBRANCH   6  38
TORSDOF 15
ENDMDL
MODEL 8
REMARK VINA RESULT:      -5.9      2.184     10.965
REMARK  Name = 
REMARK  18 active torsions:
REMARK  status: ('A' for Active; 'I' for Inactive)
REMARK    1  A    between atoms: C_1  and  C_2
REMARK    2  A    between atoms: C_3  and  O_45
REMARK    3  A    between atoms: C_4  and  O_44
REMARK    4  A    between atoms: C_5  and  O_43
REMARK    5  A    between atoms: C_6  and  O_8
REMARK    6  A    between atoms: O_8  and  C_9
REMARK    7  A    between atoms: C_11  and  O_42
REMARK    8  A    between atoms: C_16  and  C_34
REMARK    9  A    between atoms: C_17  and  O_20
REMARK   10  A    between atoms: O_20  and  C_21
REMARK   11  A    between atoms: C_22  and  O_33
REMARK   12  A    between atoms: C_23  and  O_32
REMARK   13  A    between atoms: C_24  and  O_28
REMARK   14  A    between atoms: C_25  and  C_27
REMARK   15  A    between atoms: O_28  and  C_29
REMARK   16  A    between atoms: C_29  and  C_31
REMARK   17  A    between atoms: C_36  and  O_41
REMARK   18  A    between atoms: C_37  and  O_40
REMARK                            x       y       z     vdW  Elec       q    Type
REMARK                         _______ _______ _______ _____ _____    ______ ____
ROOT
ATOM      1  C   UNL     1       7.146   2.643  26.413  0.00  0.00    +0.131 A 
ATOM      2  C   UNL     1       7.394   1.451  25.715  0.00  0.00    +0.093 A 
ATOM      3  C   UNL     1       6.545   0.343  25.881  0.00  0.00    +0.147 A 
ATOM      4  O   UNL     1       6.829  -0.813  25.188  0.00  0.00    -0.451 OA
ATOM      5  C   UNL     1       5.914  -1.883  25.203  0.00  0.00    +0.181 A 
ATOM      6  C   UNL     1       4.846  -1.920  26.042  0.00  0.00    +0.214 A 
ATOM      7  C   UNL     1       4.697  -0.779  27.006  0.00  0.00    +0.238 A 
ATOM      8  O   UNL     1       3.998  -0.836  28.009  0.00  0.00    -0.283 OA
ATOM      9  C   UNL     1       5.465   0.435  26.746  0.00  0.00    +0.109 A 
ATOM     10  C   UNL     1       5.183   1.643  27.395  0.00  0.00    +0.135 A 
ATOM     11  C   UNL     1       6.023   2.737  27.235  0.00  0.00    +0.092 A 
ENDROOT
BRANCH   5  12
ATOM     12  C   UNL     1       6.270  -2.970  24.204  0.00  0.00    +0.025 A 
ATOM     13  C   UNL     1       7.080  -4.087  24.519  0.00  0.00    +0.015 A 
ATOM     14  C   UNL     1       7.391  -5.090  23.597  0.00  0.00    +0.050 A 
ATOM     15  C   UNL     1       6.909  -4.993  22.314  0.00  0.00    +0.158 A 
ATOM     16  C   UNL     1       6.124  -3.907  21.945  0.00  0.00    +0.159 A 
ATOM     17  C   UNL     1       5.803  -2.904  22.872  0.00  0.00    +0.060 A 
BRANCH  15  18
ATOM     18  O   UNL     1       7.216  -5.972  21.416  0.00  0.00    -0.503 OA
ATOM     19  H   UNL     1       6.896  -5.635  20.558  0.00  0.00    +0.292 HD
ENDBRANCH  15  18
BRANCH  16  20
ATOM     20  O   UNL     1       5.696  -3.862  20.647  0.00  0.00    -0.503 OA
ATOM     21  H   UNL     1       5.276  -2.996  20.490  0.00  0.00    +0.292 HD
ENDBRANCH  16  20
ENDBRANCH   5  12
BRANCH  10  22
ATOM     22  O   UNL     1       4.068   1.789  28.172  0.00  0.00    -0.506 OA
ATOM     23  H   UNL     1       3.789   2.715  28.193  0.00  0.00    +0.292 HD
ENDBRANCH  10  22
BRANCH   1  24
ATOM     24  O   UNL     1       7.891   3.789  26.412  0.00  0.00    -0.461 OA
BRANCH  24  28
ATOM     25  C   UNL     1       5.801   6.382  23.722  0.00  0.00    +0.041 C 
ATOM     26  C   UNL     1       6.551   5.124  23.284  0.00  0.00    +0.150 C 
ATOM     27  O   UNL     1       6.774   4.242  24.390  0.00  0.00    -0.334 OA
ATOM     28  C   UNL     1       7.718   4.727  25.351  0.00  0.00    +0.339 C 
ATOM     29  C   UNL     1       9.092   4.902  24.662  0.00  0.00    +0.214 C 
ATOM     30  C   UNL     1       8.951   5.891  23.503  0.00  0.00    +0.180 C 
ATOM     31  C   UNL     1       7.857   5.422  22.531  0.00  0.00    +0.174 C 
BRANCH  29  32
ATOM     32  O   UNL     1       9.588   3.660  24.111  0.00  0.00    -0.383 OA
ATOM     33  H   UNL     1      10.147   3.895  23.343  0.00  0.00    +0.210 HD
ENDBRANCH  29  32
BRANCH  30  34
ATOM     34  O   UNL     1      10.190   6.018  22.795  0.00  0.00    -0.386 OA
ATOM     35  H   UNL     1      10.599   5.127  22.809  0.00  0.00    +0.210 HD
ENDBRANCH  30  34
BRANCH  31  36
ATOM     36  O   UNL     1       7.609   6.397  21.512  0.00  0.00    -0.387 OA
ATOM     37  H   UNL     1       8.377   6.400  20.910  0.00  0.00    +0.210 HD
ENDBRANCH  31  36
ENDBRANCH  24  28
ENDBRANCH   1  24
BRANCH   6  38
ATOM     38  O   UNL     1       3.922  -2.962  26.012  0.00  0.00    -0.453 OA
BRANCH  38  39
ATOM     39  C   UNL     1       3.973  -3.962  27.037  0.00  0.00    +0.340 C 
ATOM     40  O   UNL     1       4.431  -5.211  26.520  0.00  0.00    -0.333 OA
ATOM     41  C   UNL     1       3.485  -5.916  25.714  0.00  0.00    +0.163 C 
ATOM     42  C   UNL     1       4.204  -7.132  25.148  0.00  0.00    +0.042 C 
ATOM     43  C   UNL     1       2.272  -6.282  26.573  0.00  0.00    +0.236 C 
ATOM     44  C   UNL     1       1.607  -4.966  26.991  0.00  0.00    +0.192 C 
ATOM     45  C   UNL     1       2.602  -4.080  27.757  0.00  0.00    +0.215 C 
BRANCH  44  46
ATOM     46  O   UNL     1       0.443  -5.235  27.788  0.00  0.00    -0.385 OA
ATOM     47  H   UNL     1       0.698  -5.139  28.723  0.00  0.00    +0.210 HD
ENDBRANCH  44  46
BRANCH  45  48
ATOM     48  O   UNL     1       2.026  -2.797  28.039  0.00  0.00    -0.383 OA
ATOM     49  H   UNL     1       1.064  -2.870  27.907  0.00  0.00    +0.210 HD
ENDBRANCH  45  48
BRANCH  43  50
ATOM     50  O   UNL     1       2.724  -6.949  27.781  0.00  0.00    -0.456 OA
BRANCH  50  51
ATOM     51  C   UNL     1       1.847  -7.741  28.444  0.00  0.00    +0.304 C 
ATOM     52  C   UNL     1       2.271  -7.901  29.874  0.00  0.00    +0.136 C 
ATOM     53  O   UNL     1       0.869  -8.285  27.956  0.00  0.00    -0.251 OA
ENDBRANCH  50  51
ENDBRANCH  43  50
ENDBRANCH  38  39
ENDBRANCH   6  38
TORSDOF 15
ENDMDL
MODEL 9
REMARK VINA RESULT:      -5.9      2.543     10.652
REMARK  Name = 
REMARK  18 active torsions:
REMARK  status: ('A' for Active; 'I' for Inactive)
REMARK    1  A    between atoms: C_1  and  C_2
REMARK    2  A    between atoms: C_3  and  O_45
REMARK    3  A    between atoms: C_4  and  O_44
REMARK    4  A    between atoms: C_5  and  O_43
REMARK    5  A    between atoms: C_6  and  O_8
REMARK    6  A    between atoms: O_8  and  C_9
REMARK    7  A    between atoms: C_11  and  O_42
REMARK    8  A    between atoms: C_16  and  C_34
REMARK    9  A    between atoms: C_17  and  O_20
REMARK   10  A    between atoms: O_20  and  C_21
REMARK   11  A    between atoms: C_22  and  O_33
REMARK   12  A    between atoms: C_23  and  O_32
REMARK   13  A    between atoms: C_24  and  O_28
REMARK   14  A    between atoms: C_25  and  C_27
REMARK   15  A    between atoms: O_28  and  C_29
REMARK   16  A    between atoms: C_29  and  C_31
REMARK   17  A    between atoms: C_36  and  O_41
REMARK   18  A    between atoms: C_37  and  O_40
REMARK                            x       y       z     vdW  Elec       q    Type
REMARK                         _______ _______ _______ _____ _____    ______ ____
ROOT
ATOM      1  C   UNL     1       4.999   2.557  26.315  0.00  0.00    +0.131 A 
ATOM      2  C   UNL     1       5.937   1.514  26.279  0.00  0.00    +0.093 A 
ATOM      3  C   UNL     1       5.526   0.185  26.487  0.00  0.00    +0.147 A 
ATOM      4  O   UNL     1       6.479  -0.810  26.457  0.00  0.00    -0.451 OA
ATOM      5  C   UNL     1       6.084  -2.161  26.497  0.00  0.00    +0.181 A 
ATOM      6  C   UNL     1       4.810  -2.542  26.779  0.00  0.00    +0.214 A 
ATOM      7  C   UNL     1       3.827  -1.452  27.096  0.00  0.00    +0.238 A 
ATOM      8  O   UNL     1       2.766  -1.654  27.671  0.00  0.00    -0.283 OA
ATOM      9  C   UNL     1       4.190  -0.084  26.736  0.00  0.00    +0.109 A 
ATOM     10  C   UNL     1       3.246   0.950  26.712  0.00  0.00    +0.135 A 
ATOM     11  C   UNL     1       3.650   2.262  26.510  0.00  0.00    +0.092 A 
ENDROOT
BRANCH   5  12
ATOM     12  C   UNL     1       7.232  -3.114  26.215  0.00  0.00    +0.025 A 
ATOM     13  C   UNL     1       7.416  -4.340  26.897  0.00  0.00    +0.015 A 
ATOM     14  C   UNL     1       8.469  -5.218  26.621  0.00  0.00    +0.050 A 
ATOM     15  C   UNL     1       9.386  -4.880  25.655  0.00  0.00    +0.158 A 
ATOM     16  C   UNL     1       9.264  -3.678  24.967  0.00  0.00    +0.159 A 
ATOM     17  C   UNL     1       8.203  -2.801  25.238  0.00  0.00    +0.060 A 
BRANCH  15  18
ATOM     18  O   UNL     1      10.412  -5.737  25.389  0.00  0.00    -0.503 OA
ATOM     19  H   UNL     1      11.149  -5.165  25.099  0.00  0.00    +0.292 HD
ENDBRANCH  15  18
BRANCH  16  20
ATOM     20  O   UNL     1      10.223  -3.395  24.036  0.00  0.00    -0.503 OA
ATOM     21  H   UNL     1      11.097  -3.447  24.466  0.00  0.00    +0.292 HD
ENDBRANCH  16  20
ENDBRANCH   5  12
BRANCH  10  22
ATOM     22  O   UNL     1       1.910   0.696  26.854  0.00  0.00    -0.506 OA
ATOM     23  H   UNL     1       1.747  -0.257  26.876  0.00  0.00    +0.292 HD
ENDBRANCH  10  22
BRANCH   1  24
ATOM     24  O   UNL     1       5.229   3.899  26.188  0.00  0.00    -0.461 OA
BRANCH  24  28
ATOM     25  C   UNL     1       8.985   5.814  25.441  0.00  0.00    +0.041 C 
ATOM     26  C   UNL     1       7.656   6.279  24.844  0.00  0.00    +0.150 C 
ATOM     27  O   UNL     1       6.545   5.753  25.579  0.00  0.00    -0.334 OA
ATOM     28  C   UNL     1       6.359   4.340  25.436  0.00  0.00    +0.339 C 
ATOM     29  C   UNL     1       6.077   4.018  23.949  0.00  0.00    +0.214 C 
ATOM     30  C   UNL     1       7.258   4.490  23.100  0.00  0.00    +0.180 C 
ATOM     31  C   UNL     1       7.525   5.985  23.341  0.00  0.00    +0.174 C 
BRANCH  29  32
ATOM     32  O   UNL     1       4.896   4.694  23.459  0.00  0.00    -0.383 OA
ATOM     33  H   UNL     1       4.332   4.878  24.238  0.00  0.00    +0.210 HD
ENDBRANCH  29  32
BRANCH  30  34
ATOM     34  O   UNL     1       6.996   4.276  21.708  0.00  0.00    -0.386 OA
ATOM     35  H   UNL     1       6.225   4.841  21.491  0.00  0.00    +0.210 HD
ENDBRANCH  30  34
BRANCH  31  36
ATOM     36  O   UNL     1       8.710   6.421  22.664  0.00  0.00    -0.387 OA
ATOM     37  H   UNL     1       8.851   7.360  22.888  0.00  0.00    +0.210 HD
ENDBRANCH  31  36
ENDBRANCH  24  28
ENDBRANCH   1  24
BRANCH   6  38
ATOM     38  O   UNL     1       4.423  -3.880  26.768  0.00  0.00    -0.453 OA
BRANCH  38  39
ATOM     39  C   UNL     1       3.392  -4.294  25.863  0.00  0.00    +0.340 C 
ATOM     40  O   UNL     1       2.316  -4.922  26.560  0.00  0.00    -0.333 OA
ATOM     41  C   UNL     1       2.591  -6.241  27.038  0.00  0.00    +0.163 C 
ATOM     42  C   UNL     1       1.389  -6.674  27.864  0.00  0.00    +0.042 C 
ATOM     43  C   UNL     1       2.859  -7.159  25.842  0.00  0.00    +0.236 C 
ATOM     44  C   UNL     1       4.139  -6.654  25.168  0.00  0.00    +0.192 C 
ATOM     45  C   UNL     1       3.976  -5.188  24.736  0.00  0.00    +0.215 C 
BRANCH  44  46
ATOM     46  O   UNL     1       4.463  -7.485  24.043  0.00  0.00    -0.385 OA
ATOM     47  H   UNL     1       5.407  -7.715  24.109  0.00  0.00    +0.210 HD
ENDBRANCH  44  46
BRANCH  45  48
ATOM     48  O   UNL     1       5.211  -4.671  24.221  0.00  0.00    -0.383 OA
ATOM     49  H   UNL     1       5.933  -5.034  24.764  0.00  0.00    +0.210 HD
ENDBRANCH  45  48
BRANCH  43  50
ATOM     50  O   UNL     1       1.775  -7.026  24.884  0.00  0.00    -0.456 OA
BRANCH  50  51
ATOM     51  C   UNL     1       1.437  -8.109  24.143  0.00  0.00    +0.304 C 
ATOM     52  C   UNL     1       0.903  -9.197  25.026  0.00  0.00    +0.136 C 
ATOM     53  O   UNL     1       1.576  -8.216  22.934  0.00  0.00    -0.251 OA
ENDBRANCH  50  51
ENDBRANCH  43  50
ENDBRANCH  38  39
ENDBRANCH   6  38
TORSDOF 15
ENDMDL
