MODEL 1
REMARK VINA RESULT:      -6.7      0.000      0.000
REMARK  Name = 
REMARK  24 active torsions:
REMARK  status: ('A' for Active; 'I' for Inactive)
REMARK    1  A    between atoms: C_3  and  O_54
REMARK    2  A    between atoms: C_4  and  O_53
REMARK    3  A    between atoms: C_6  and  C_7
REMARK    4  A    between atoms: C_8  and  O_36
REMARK    5  A    between atoms: C_12  and  O_35
REMARK    6  A    between atoms: C_14  and  O_18
REMARK    7  A    between atoms: O_18  and  C_19
REMARK    8  A    between atoms: C_21  and  O_34
REMARK    9  A    between atoms: C_23  and  O_33
REMARK   10  A    between atoms: C_25  and  O_32
REMARK   11  A    between atoms: C_27  and  C_30
REMARK   12  A    between atoms: C_30  and  O_31
REMARK   13  A    between atoms: O_36  and  C_37
REMARK   14  A    between atoms: C_39  and  O_52
REMARK   15  A    between atoms: C_41  and  O_51
REMARK   16  A    between atoms: C_43  and  O_50
REMARK   17  A    between atoms: C_45  and  C_48
REMARK   18  A    between atoms: C_48  and  O_49
REMARK   19  A    between atoms: O_54  and  C_55
REMARK   20  A    between atoms: C_57  and  O_70
REMARK   21  A    between atoms: C_59  and  O_69
REMARK   22  A    between atoms: C_61  and  O_68
REMARK   23  A    between atoms: C_63  and  C_66
REMARK   24  A    between atoms: C_66  and  O_67
REMARK                            x       y       z     vdW  Elec       q    Type
REMARK                         _______ _______ _______ _____ _____    ______ ____
ROOT
ATOM      1  C   UNL     1       7.603  -2.698  26.001  0.00  0.00    +0.181 A 
ATOM      2  O   UNL     1       7.520  -1.316  26.208  0.00  0.00    -0.451 OA
ATOM      3  C   UNL     1       8.189  -0.458  25.379  0.00  0.00    +0.147 A 
ATOM      4  C   UNL     1       9.201  -0.878  24.540  0.00  0.00    +0.109 A 
ATOM      5  C   UNL     1       9.928   0.082  23.823  0.00  0.00    +0.135 A 
ATOM      6  C   UNL     1       9.630   1.449  23.946  0.00  0.00    +0.092 A 
ATOM      7  C   UNL     1       8.596   1.873  24.790  0.00  0.00    +0.131 A 
ATOM      8  C   UNL     1       9.420  -2.327  24.420  0.00  0.00    +0.238 A 
ATOM      9  O   UNL     1      10.383  -2.744  23.784  0.00  0.00    -0.283 OA
ATOM     10  C   UNL     1       7.848   0.896  25.461  0.00  0.00    +0.093 A 
ATOM     11  C   UNL     1       8.403  -3.239  25.051  0.00  0.00    +0.214 A 
ENDROOT
BRANCH   1  13
ATOM     12  C   UNL     1       7.072  -4.688  27.430  0.00  0.00    +0.015 A 
ATOM     13  C   UNL     1       6.682  -3.432  26.939  0.00  0.00    +0.025 A 
ATOM     14  C   UNL     1       5.419  -2.953  27.354  0.00  0.00    +0.060 A 
ATOM     15  C   UNL     1       4.597  -3.702  28.214  0.00  0.00    +0.159 A 
ATOM     16  C   UNL     1       4.956  -5.006  28.592  0.00  0.00    +0.165 A 
ATOM     17  C   UNL     1       6.231  -5.460  28.242  0.00  0.00    +0.050 A 
BRANCH  15  18
ATOM     18  O   UNL     1       3.421  -3.152  28.623  0.00  0.00    -0.503 OA
ATOM     19  H   UNL     1       3.650  -2.490  29.296  0.00  0.00    +0.292 HD
ENDBRANCH  15  18
BRANCH  16  20
ATOM     20  O   UNL     1       4.053  -5.757  29.306  0.00  0.00    -0.457 OA
BRANCH  20  21
ATOM     21  C   UNL     1       3.517  -6.874  28.543  0.00  0.00    +0.339 C 
ATOM     22  O   UNL     1       3.743  -6.670  27.151  0.00  0.00    -0.331 OA
ATOM     23  C   UNL     1       2.662  -6.627  26.220  0.00  0.00    +0.179 C 
ATOM     24  C   UNL     1       1.390  -7.379  26.649  0.00  0.00    +0.177 C 
ATOM     25  C   UNL     1       0.955  -6.920  28.035  0.00  0.00    +0.180 C 
ATOM     26  C   UNL     1       2.079  -7.209  29.033  0.00  0.00    +0.214 C 
BRANCH  26  27
ATOM     27  O   UNL     1       2.023  -8.620  29.355  0.00  0.00    -0.383 OA
ATOM     28  H   UNL     1       1.679  -9.067  28.548  0.00  0.00    +0.210 HD
ENDBRANCH  26  27
BRANCH  25  29
ATOM     29  O   UNL     1       0.550  -5.554  27.996  0.00  0.00    -0.386 OA
ATOM     30  H   UNL     1      -0.413  -5.500  28.133  0.00  0.00    +0.210 HD
ENDBRANCH  25  29
BRANCH  24  31
ATOM     31  O   UNL     1       1.651  -8.796  26.694  0.00  0.00    -0.386 OA
ATOM     32  H   UNL     1       2.383  -8.968  26.070  0.00  0.00    +0.210 HD
ENDBRANCH  24  31
BRANCH  23  33
ATOM     33  C   UNL     1       2.428  -5.163  25.807  0.00  0.00    +0.190 C 
BRANCH  33  34
ATOM     34  O   UNL     1       1.853  -5.061  24.510  0.00  0.00    -0.392 OA
ATOM     35  H   UNL     1       1.660  -4.120  24.351  0.00  0.00    +0.210 HD
ENDBRANCH  33  34
ENDBRANCH  23  33
ENDBRANCH  20  21
ENDBRANCH  16  20
ENDBRANCH   1  13
BRANCH   5  36
ATOM     36  O   UNL     1      10.961  -0.253  22.988  0.00  0.00    -0.506 OA
ATOM     37  H   UNL     1      11.444  -1.016  23.378  0.00  0.00    +0.292 HD
ENDBRANCH   5  36
BRANCH  11  38
ATOM     38  O   UNL     1       8.381  -4.558  24.588  0.00  0.00    -0.453 OA
BRANCH  38  39
ATOM     39  C   UNL     1       7.886  -4.667  23.239  0.00  0.00    +0.340 C 
ATOM     40  O   UNL     1       6.994  -3.602  22.918  0.00  0.00    -0.331 OA
ATOM     41  C   UNL     1       5.584  -3.790  22.765  0.00  0.00    +0.179 C 
ATOM     42  C   UNL     1       5.057  -5.231  22.631  0.00  0.00    +0.177 C 
ATOM     43  C   UNL     1       5.934  -6.237  23.376  0.00  0.00    +0.180 C 
ATOM     44  C   UNL     1       7.377  -6.077  22.905  0.00  0.00    +0.214 C 
BRANCH  44  45
ATOM     45  O   UNL     1       7.452  -6.300  21.481  0.00  0.00    -0.383 OA
ATOM     46  H   UNL     1       8.377  -6.134  21.191  0.00  0.00    +0.210 HD
ENDBRANCH  44  45
BRANCH  43  47
ATOM     47  O   UNL     1       5.782  -6.116  24.788  0.00  0.00    -0.386 OA
ATOM     48  H   UNL     1       5.483  -6.958  25.182  0.00  0.00    +0.210 HD
ENDBRANCH  43  47
BRANCH  42  49
ATOM     49  O   UNL     1       4.976  -5.552  21.229  0.00  0.00    -0.386 OA
ATOM     50  H   UNL     1       4.048  -5.783  21.014  0.00  0.00    +0.210 HD
ENDBRANCH  42  49
BRANCH  41  51
ATOM     51  C   UNL     1       4.817  -3.018  23.855  0.00  0.00    +0.190 C 
BRANCH  51  52
ATOM     52  O   UNL     1       5.262  -1.668  23.976  0.00  0.00    -0.392 OA
ATOM     53  H   UNL     1       4.752  -1.239  24.685  0.00  0.00    +0.210 HD
ENDBRANCH  51  52
ENDBRANCH  41  51
ENDBRANCH  38  39
ENDBRANCH  11  38
BRANCH   7  54
ATOM     54  O   UNL     1       8.404   3.240  24.912  0.00  0.00    -0.461 OA
BRANCH  54  55
ATOM     55  C   UNL     1       8.327   3.971  23.672  0.00  0.00    +0.339 C 
ATOM     56  O   UNL     1       9.240   5.071  23.651  0.00  0.00    -0.331 OA
ATOM     57  C   UNL     1       8.733   6.407  23.768  0.00  0.00    +0.179 C 
ATOM     58  C   UNL     1       7.459   6.641  22.948  0.00  0.00    +0.177 C 
ATOM     59  C   UNL     1       6.359   5.662  23.359  0.00  0.00    +0.180 C 
ATOM     60  C   UNL     1       6.860   4.219  23.215  0.00  0.00    +0.214 C 
BRANCH  60  61
ATOM     61  O   UNL     1       6.773   3.896  21.802  0.00  0.00    -0.383 OA
ATOM     62  H   UNL     1       7.557   3.342  21.597  0.00  0.00    +0.210 HD
ENDBRANCH  60  61
BRANCH  59  63
ATOM     63  O   UNL     1       5.859   5.988  24.650  0.00  0.00    -0.386 OA
ATOM     64  H   UNL     1       5.756   6.953  24.734  0.00  0.00    +0.210 HD
ENDBRANCH  59  63
BRANCH  58  65
ATOM     65  O   UNL     1       7.769   6.443  21.555  0.00  0.00    -0.386 OA
ATOM     66  H   UNL     1       8.108   5.532  21.462  0.00  0.00    +0.210 HD
ENDBRANCH  58  65
BRANCH  57  67
ATOM     67  C   UNL     1       8.614   6.849  25.237  0.00  0.00    +0.190 C 
BRANCH  67  68
ATOM     68  O   UNL     1       9.295   5.945  26.107  0.00  0.00    -0.392 OA
ATOM     69  H   UNL     1       9.016   5.042  25.867  0.00  0.00    +0.210 HD
ENDBRANCH  67  68
ENDBRANCH  57  67
ENDBRANCH  54  55
ENDBRANCH   7  54
TORSDOF 24
ENDMDL
MODEL 2
REMARK VINA RESULT:      -6.7      1.718     10.259
REMARK  Name = 
REMARK  24 active torsions:
REMARK  status: ('A' for Active; 'I' for Inactive)
REMARK    1  A    between atoms: C_3  and  O_54
REMARK    2  A    between atoms: C_4  and  O_53
REMARK    3  A    between atoms: C_6  and  C_7
REMARK    4  A    between atoms: C_8  and  O_36
REMARK    5  A    between atoms: C_12  and  O_35
REMARK    6  A    between atoms: C_14  and  O_18
REMARK    7  A    between atoms: O_18  and  C_19
REMARK    8  A    between atoms: C_21  and  O_34
REMARK    9  A    between atoms: C_23  and  O_33
REMARK   10  A    between atoms: C_25  and  O_32
REMARK   11  A    between atoms: C_27  and  C_30
REMARK   12  A    between atoms: C_30  and  O_31
REMARK   13  A    between atoms: O_36  and  C_37
REMARK   14  A    between atoms: C_39  and  O_52
REMARK   15  A    between atoms: C_41  and  O_51
REMARK   16  A    between atoms: C_43  and  O_50
REMARK   17  A    between atoms: C_45  and  C_48
REMARK   18  A    between atoms: C_48  and  O_49
REMARK   19  A    between atoms: O_54  and  C_55
REMARK   20  A    between atoms: C_57  and  O_70
REMARK   21  A    between atoms: C_59  and  O_69
REMARK   22  A    between atoms: C_61  and  O_68
REMARK   23  A    between atoms: C_63  and  C_66
REMARK   24  A    between atoms: C_66  and  O_67
REMARK                            x       y       z     vdW  Elec       q    Type
REMARK                         _______ _______ _______ _____ _____    ______ ____
ROOT
ATOM      1  C   UNL     1       6.915  -1.011  26.416  0.00  0.00    +0.181 A 
ATOM      2  O   UNL     1       5.892  -1.720  27.054  0.00  0.00    -0.451 OA
ATOM      3  C   UNL     1       6.081  -3.027  27.407  0.00  0.00    +0.147 A 
ATOM      4  C   UNL     1       7.106  -3.793  26.889  0.00  0.00    +0.109 A 
ATOM      5  C   UNL     1       7.151  -5.160  27.195  0.00  0.00    +0.135 A 
ATOM      6  C   UNL     1       6.178  -5.744  28.022  0.00  0.00    +0.092 A 
ATOM      7  C   UNL     1       5.144  -4.964  28.555  0.00  0.00    +0.131 A 
ATOM      8  C   UNL     1       8.119  -3.103  26.077  0.00  0.00    +0.238 A 
ATOM      9  O   UNL     1       8.979  -3.757  25.495  0.00  0.00    -0.283 OA
ATOM     10  C   UNL     1       5.143  -3.590  28.278  0.00  0.00    +0.093 A 
ATOM     11  C   UNL     1       8.078  -1.599  26.045  0.00  0.00    +0.214 A 
ENDROOT
BRANCH   1  13
ATOM     12  C   UNL     1       5.465   0.768  25.407  0.00  0.00    +0.015 A 
ATOM     13  C   UNL     1       6.537   0.437  26.252  0.00  0.00    +0.025 A 
ATOM     14  C   UNL     1       7.205   1.513  26.878  0.00  0.00    +0.060 A 
ATOM     15  C   UNL     1       6.814   2.846  26.662  0.00  0.00    +0.159 A 
ATOM     16  C   UNL     1       5.821   3.156  25.720  0.00  0.00    +0.165 A 
ATOM     17  C   UNL     1       5.109   2.098  25.147  0.00  0.00    +0.050 A 
BRANCH  15  18
ATOM     18  O   UNL     1       7.463   3.827  27.346  0.00  0.00    -0.503 OA
ATOM     19  H   UNL     1       6.906   4.620  27.277  0.00  0.00    +0.292 HD
ENDBRANCH  15  18
BRANCH  16  20
ATOM     20  O   UNL     1       5.579   4.478  25.429  0.00  0.00    -0.457 OA
BRANCH  20  21
ATOM     21  C   UNL     1       5.934   4.831  24.063  0.00  0.00    +0.339 C 
ATOM     22  O   UNL     1       7.029   4.034  23.620  0.00  0.00    -0.331 OA
ATOM     23  C   UNL     1       8.252   4.627  23.184  0.00  0.00    +0.179 C 
ATOM     24  C   UNL     1       8.137   6.065  22.652  0.00  0.00    +0.177 C 
ATOM     25  C   UNL     1       7.422   6.943  23.671  0.00  0.00    +0.180 C 
ATOM     26  C   UNL     1       6.021   6.378  23.922  0.00  0.00    +0.214 C 
BRANCH  26  27
ATOM     27  O   UNL     1       5.184   6.784  22.812  0.00  0.00    -0.383 OA
ATOM     28  H   UNL     1       5.541   6.320  22.022  0.00  0.00    +0.210 HD
ENDBRANCH  26  27
BRANCH  25  29
ATOM     29  O   UNL     1       8.215   7.074  24.848  0.00  0.00    -0.386 OA
ATOM     30  H   UNL     1       7.833   6.526  25.557  0.00  0.00    +0.210 HD
ENDBRANCH  25  29
BRANCH  24  31
ATOM     31  O   UNL     1       7.380   6.075  21.425  0.00  0.00    -0.386 OA
ATOM     32  H   UNL     1       6.448   5.907  21.667  0.00  0.00    +0.210 HD
ENDBRANCH  24  31
BRANCH  23  33
ATOM     33  C   UNL     1       9.310   4.437  24.284  0.00  0.00    +0.190 C 
BRANCH  33  34
ATOM     34  O   UNL     1      10.400   3.637  23.844  0.00  0.00    -0.392 OA
ATOM     35  H   UNL     1      10.247   3.429  22.905  0.00  0.00    +0.210 HD
ENDBRANCH  33  34
ENDBRANCH  23  33
ENDBRANCH  20  21
ENDBRANCH  16  20
ENDBRANCH   1  13
BRANCH   5  36
ATOM     36  O   UNL     1       8.124  -5.990  26.702  0.00  0.00    -0.506 OA
ATOM     37  H   UNL     1       7.933  -6.166  25.753  0.00  0.00    +0.292 HD
ENDBRANCH   5  36
BRANCH  11  38
ATOM     38  O   UNL     1       9.251  -0.955  25.639  0.00  0.00    -0.453 OA
BRANCH  38  39
ATOM     39  C   UNL     1       9.098  -0.257  24.387  0.00  0.00    +0.340 C 
ATOM     40  O   UNL     1       7.908  -0.651  23.707  0.00  0.00    -0.331 OA
ATOM     41  C   UNL     1       7.922  -1.449  22.519  0.00  0.00    +0.179 C 
ATOM     42  C   UNL     1       9.261  -1.623  21.780  0.00  0.00    +0.177 C 
ATOM     43  C   UNL     1      10.456  -1.562  22.731  0.00  0.00    +0.180 C 
ATOM     44  C   UNL     1      10.378  -0.270  23.539  0.00  0.00    +0.214 C 
BRANCH  44  45
ATOM     45  O   UNL     1      10.385   0.864  22.646  0.00  0.00    -0.383 OA
ATOM     46  H   UNL     1      10.991   0.664  21.897  0.00  0.00    +0.210 HD
ENDBRANCH  44  45
BRANCH  43  47
ATOM     47  O   UNL     1      10.540  -2.731  23.540  0.00  0.00    -0.386 OA
ATOM     48  H   UNL     1      11.463  -2.910  23.804  0.00  0.00    +0.210 HD
ENDBRANCH  43  47
BRANCH  42  49
ATOM     49  O   UNL     1       9.352  -0.603  20.767  0.00  0.00    -0.386 OA
ATOM     50  H   UNL     1      10.281  -0.548  20.461  0.00  0.00    +0.210 HD
ENDBRANCH  42  49
BRANCH  41  51
ATOM     51  C   UNL     1       7.251  -2.811  22.781  0.00  0.00    +0.190 C 
BRANCH  51  52
ATOM     52  O   UNL     1       8.170  -3.896  22.673  0.00  0.00    -0.392 OA
ATOM     53  H   UNL     1       9.055  -3.531  22.493  0.00  0.00    +0.210 HD
ENDBRANCH  51  52
ENDBRANCH  41  51
ENDBRANCH  38  39
ENDBRANCH  11  38
BRANCH   7  54
ATOM     54  O   UNL     1       4.184  -5.622  29.306  0.00  0.00    -0.461 OA
BRANCH  54  55
ATOM     55  C   UNL     1       3.563  -6.756  28.668  0.00  0.00    +0.339 C 
ATOM     56  O   UNL     1       3.507  -6.596  27.248  0.00  0.00    -0.331 OA
ATOM     57  C   UNL     1       2.247  -6.321  26.621  0.00  0.00    +0.179 C 
ATOM     58  C   UNL     1       1.093  -7.149  27.199  0.00  0.00    +0.177 C 
ATOM     59  C   UNL     1       0.954  -6.913  28.704  0.00  0.00    +0.180 C 
ATOM     60  C   UNL     1       2.278  -7.230  29.409  0.00  0.00    +0.214 C 
BRANCH  60  61
ATOM     61  O   UNL     1       2.341  -8.676  29.529  0.00  0.00    -0.383 OA
ATOM     62  H   UNL     1       1.572  -8.940  30.079  0.00  0.00    +0.210 HD
ENDBRANCH  60  61
BRANCH  59  63
ATOM     63  O   UNL     1       0.445  -5.610  28.958  0.00  0.00    -0.386 OA
ATOM     64  H   UNL     1      -0.435  -5.511  28.553  0.00  0.00    +0.210 HD
ENDBRANCH  59  63
BRANCH  58  65
ATOM     65  O   UNL     1       1.370  -8.543  26.965  0.00  0.00    -0.386 OA
ATOM     66  H   UNL     1       0.756  -9.057  27.523  0.00  0.00    +0.210 HD
ENDBRANCH  58  65
BRANCH  57  67
ATOM     67  C   UNL     1       1.955  -4.811  26.558  0.00  0.00    +0.190 C 
BRANCH  67  68
ATOM     68  O   UNL     1       2.901  -4.135  25.730  0.00  0.00    -0.392 OA
ATOM     69  H   UNL     1       3.305  -4.800  25.144  0.00  0.00    +0.210 HD
ENDBRANCH  67  68
ENDBRANCH  57  67
ENDBRANCH  54  55
ENDBRANCH   7  54
TORSDOF 24
ENDMDL
MODEL 3
REMARK VINA RESULT:      -6.6      1.705     10.126
REMARK  Name = 
REMARK  24 active torsions:
REMARK  status: ('A' for Active; 'I' for Inactive)
REMARK    1  A    between atoms: C_3  and  O_54
REMARK    2  A    between atoms: C_4  and  O_53
REMARK    3  A    between atoms: C_6  and  C_7
REMARK    4  A    between atoms: C_8  and  O_36
REMARK    5  A    between atoms: C_12  and  O_35
REMARK    6  A    between atoms: C_14  and  O_18
REMARK    7  A    between atoms: O_18  and  C_19
REMARK    8  A    between atoms: C_21  and  O_34
REMARK    9  A    between atoms: C_23  and  O_33
REMARK   10  A    between atoms: C_25  and  O_32
REMARK   11  A    between atoms: C_27  and  C_30
REMARK   12  A    between atoms: C_30  and  O_31
REMARK   13  A    between atoms: O_36  and  C_37
REMARK   14  A    between atoms: C_39  and  O_52
REMARK   15  A    between atoms: C_41  and  O_51
REMARK   16  A    between atoms: C_43  and  O_50
REMARK   17  A    between atoms: C_45  and  C_48
REMARK   18  A    between atoms: C_48  and  O_49
REMARK   19  A    between atoms: O_54  and  C_55
REMARK   20  A    between atoms: C_57  and  O_70
REMARK   21  A    between atoms: C_59  and  O_69
REMARK   22  A    between atoms: C_61  and  O_68
REMARK   23  A    between atoms: C_63  and  C_66
REMARK   24  A    between atoms: C_66  and  O_67
REMARK                            x       y       z     vdW  Elec       q    Type
REMARK                         _______ _______ _______ _____ _____    ______ ____
ROOT
ATOM      1  C   UNL     1       6.892  -1.019  26.448  0.00  0.00    +0.181 A 
ATOM      2  O   UNL     1       5.863  -1.733  27.071  0.00  0.00    -0.451 OA
ATOM      3  C   UNL     1       6.043  -3.047  27.402  0.00  0.00    +0.147 A 
ATOM      4  C   UNL     1       7.066  -3.810  26.875  0.00  0.00    +0.109 A 
ATOM      5  C   UNL     1       7.102  -5.182  27.158  0.00  0.00    +0.135 A 
ATOM      6  C   UNL     1       6.123  -5.774  27.972  0.00  0.00    +0.092 A 
ATOM      7  C   UNL     1       5.091  -4.998  28.514  0.00  0.00    +0.131 A 
ATOM      8  C   UNL     1       8.086  -3.112  26.078  0.00  0.00    +0.238 A 
ATOM      9  O   UNL     1       8.943  -3.761  25.488  0.00  0.00    -0.283 OA
ATOM     10  C   UNL     1       5.099  -3.619  28.261  0.00  0.00    +0.093 A 
ATOM     11  C   UNL     1       8.053  -1.608  26.071  0.00  0.00    +0.214 A 
ENDROOT
BRANCH   1  13
ATOM     12  C   UNL     1       5.554   0.799  25.359  0.00  0.00    +0.015 A 
ATOM     13  C   UNL     1       6.523   0.434  26.307  0.00  0.00    +0.025 A 
ATOM     14  C   UNL     1       7.103   1.481  27.056  0.00  0.00    +0.060 A 
ATOM     15  C   UNL     1       6.727   2.821  26.857  0.00  0.00    +0.159 A 
ATOM     16  C   UNL     1       5.849   3.172  25.820  0.00  0.00    +0.165 A 
ATOM     17  C   UNL     1       5.219   2.139  25.120  0.00  0.00    +0.050 A 
BRANCH  15  18
ATOM     18  O   UNL     1       7.283   3.772  27.657  0.00  0.00    -0.503 OA
ATOM     19  H   UNL     1       6.891   3.648  28.538  0.00  0.00    +0.292 HD
ENDBRANCH  15  18
BRANCH  16  20
ATOM     20  O   UNL     1       5.631   4.504  25.564  0.00  0.00    -0.457 OA
BRANCH  20  21
ATOM     21  C   UNL     1       6.724   5.127  24.833  0.00  0.00    +0.339 C 
ATOM     22  O   UNL     1       6.335   6.419  24.375  0.00  0.00    -0.331 OA
ATOM     23  C   UNL     1       6.351   6.753  22.987  0.00  0.00    +0.179 C 
ATOM     24  C   UNL     1       7.330   5.939  22.123  0.00  0.00    +0.177 C 
ATOM     25  C   UNL     1       7.100   4.448  22.338  0.00  0.00    +0.180 C 
ATOM     26  C   UNL     1       7.326   4.115  23.816  0.00  0.00    +0.214 C 
BRANCH  26  27
ATOM     27  O   UNL     1       8.756   4.044  24.032  0.00  0.00    -0.383 OA
ATOM     28  H   UNL     1       9.128   3.613  23.230  0.00  0.00    +0.210 HD
ENDBRANCH  26  27
BRANCH  25  29
ATOM     29  O   UNL     1       5.815   4.073  21.848  0.00  0.00    -0.386 OA
ATOM     30  H   UNL     1       5.918   3.375  21.177  0.00  0.00    +0.210 HD
ENDBRANCH  25  29
BRANCH  24  31
ATOM     31  O   UNL     1       8.687   6.253  22.493  0.00  0.00    -0.386 OA
ATOM     32  H   UNL     1       8.864   5.792  23.336  0.00  0.00    +0.210 HD
ENDBRANCH  24  31
BRANCH  23  33
ATOM     33  C   UNL     1       4.903   6.767  22.468  0.00  0.00    +0.190 C 
BRANCH  33  34
ATOM     34  O   UNL     1       4.042   5.968  23.270  0.00  0.00    -0.392 OA
ATOM     35  H   UNL     1       4.133   6.275  24.189  0.00  0.00    +0.210 HD
ENDBRANCH  33  34
ENDBRANCH  23  33
ENDBRANCH  20  21
ENDBRANCH  16  20
ENDBRANCH   1  13
BRANCH   5  36
ATOM     36  O   UNL     1       8.072  -6.009  26.654  0.00  0.00    -0.506 OA
ATOM     37  H   UNL     1       7.919  -6.917  27.000  0.00  0.00    +0.292 HD
ENDBRANCH   5  36
BRANCH  11  38
ATOM     38  O   UNL     1       9.231  -0.963  25.680  0.00  0.00    -0.453 OA
BRANCH  38  39
ATOM     39  C   UNL     1       9.084  -0.237  24.444  0.00  0.00    +0.340 C 
ATOM     40  O   UNL     1       7.888  -0.601  23.758  0.00  0.00    -0.331 OA
ATOM     41  C   UNL     1       7.889  -1.374  22.554  0.00  0.00    +0.179 C 
ATOM     42  C   UNL     1       9.224  -1.548  21.808  0.00  0.00    +0.177 C 
ATOM     43  C   UNL     1      10.423  -1.523  22.757  0.00  0.00    +0.180 C 
ATOM     44  C   UNL     1      10.362  -0.247  23.593  0.00  0.00    +0.214 C 
BRANCH  44  45
ATOM     45  O   UNL     1      10.381   0.906  22.724  0.00  0.00    -0.383 OA
ATOM     46  H   UNL     1      10.394   0.590  21.792  0.00  0.00    +0.210 HD
ENDBRANCH  44  45
BRANCH  43  47
ATOM     47  O   UNL     1      10.493  -2.710  23.540  0.00  0.00    -0.386 OA
ATOM     48  H   UNL     1       9.601  -3.037  23.763  0.00  0.00    +0.210 HD
ENDBRANCH  43  47
BRANCH  42  49
ATOM     49  O   UNL     1       9.325  -0.508  20.817  0.00  0.00    -0.386 OA
ATOM     50  H   UNL     1      10.152  -0.005  20.975  0.00  0.00    +0.210 HD
ENDBRANCH  42  49
BRANCH  41  51
ATOM     51  C   UNL     1       7.202  -2.733  22.788  0.00  0.00    +0.190 C 
BRANCH  51  52
ATOM     52  O   UNL     1       8.091  -3.830  22.586  0.00  0.00    -0.392 OA
ATOM     53  H   UNL     1       8.997  -3.481  22.513  0.00  0.00    +0.210 HD
ENDBRANCH  51  52
ENDBRANCH  41  51
ENDBRANCH  38  39
ENDBRANCH  11  38
BRANCH   7  54
ATOM     54  O   UNL     1       4.125  -5.663  29.251  0.00  0.00    -0.461 OA
BRANCH  54  55
ATOM     55  C   UNL     1       3.519  -6.799  28.601  0.00  0.00    +0.339 C 
ATOM     56  O   UNL     1       3.613  -6.704  27.178  0.00  0.00    -0.331 OA
ATOM     57  C   UNL     1       2.436  -6.406  26.414  0.00  0.00    +0.179 C 
ATOM     58  C   UNL     1       1.193  -7.157  26.907  0.00  0.00    +0.177 C 
ATOM     59  C   UNL     1       0.915  -6.845  28.377  0.00  0.00    +0.180 C 
ATOM     60  C   UNL     1       2.146  -7.183  29.227  0.00  0.00    +0.214 C 
BRANCH  60  61
ATOM     61  O   UNL     1       2.129  -8.623  29.415  0.00  0.00    -0.383 OA
ATOM     62  H   UNL     1       2.593  -9.007  28.639  0.00  0.00    +0.210 HD
ENDBRANCH  60  61
BRANCH  59  63
ATOM     63  O   UNL     1       0.444  -5.511  28.522  0.00  0.00    -0.386 OA
ATOM     64  H   UNL     1      -0.027  -5.233  27.716  0.00  0.00    +0.210 HD
ENDBRANCH  59  63
BRANCH  58  65
ATOM     65  O   UNL     1       1.427  -8.571  26.762  0.00  0.00    -0.386 OA
ATOM     66  H   UNL     1       2.393  -8.710  26.805  0.00  0.00    +0.210 HD
ENDBRANCH  58  65
BRANCH  57  67
ATOM     67  C   UNL     1       2.222  -4.890  26.257  0.00  0.00    +0.190 C 
BRANCH  67  68
ATOM     68  O   UNL     1       2.872  -4.394  25.086  0.00  0.00    -0.392 OA
ATOM     69  H   UNL     1       3.784  -4.738  25.090  0.00  0.00    +0.210 HD
ENDBRANCH  67  68
ENDBRANCH  57  67
ENDBRANCH  54  55
ENDBRANCH   7  54
TORSDOF 24
ENDMDL
MODEL 4
REMARK VINA RESULT:      -6.2      1.315      2.414
REMARK  Name = 
REMARK  24 active torsions:
REMARK  status: ('A' for Active; 'I' for Inactive)
REMARK    1  A    between atoms: C_3  and  O_54
REMARK    2  A    between atoms: C_4  and  O_53
REMARK    3  A    between atoms: C_6  and  C_7
REMARK    4  A    between atoms: C_8  and  O_36
REMARK    5  A    between atoms: C_12  and  O_35
REMARK    6  A    between atoms: C_14  and  O_18
REMARK    7  A    between atoms: O_18  and  C_19
REMARK    8  A    between atoms: C_21  and  O_34
REMARK    9  A    between atoms: C_23  and  O_33
REMARK   10  A    between atoms: C_25  and  O_32
REMARK   11  A    between atoms: C_27  and  C_30
REMARK   12  A    between atoms: C_30  and  O_31
REMARK   13  A    between atoms: O_36  and  C_37
REMARK   14  A    between atoms: C_39  and  O_52
REMARK   15  A    between atoms: C_41  and  O_51
REMARK   16  A    between atoms: C_43  and  O_50
REMARK   17  A    between atoms: C_45  and  C_48
REMARK   18  A    between atoms: C_48  and  O_49
REMARK   19  A    between atoms: O_54  and  C_55
REMARK   20  A    between atoms: C_57  and  O_70
REMARK   21  A    between atoms: C_59  and  O_69
REMARK   22  A    between atoms: C_61  and  O_68
REMARK   23  A    between atoms: C_63  and  C_66
REMARK   24  A    between atoms: C_66  and  O_67
REMARK                            x       y       z     vdW  Elec       q    Type
REMARK                         _______ _______ _______ _____ _____    ______ ____
ROOT
ATOM      1  C   UNL     1       6.691  -1.439  25.915  0.00  0.00    +0.181 A 
ATOM      2  O   UNL     1       6.788  -0.051  26.060  0.00  0.00    -0.451 OA
ATOM      3  C   UNL     1       7.746   0.645  25.376  0.00  0.00    +0.147 A 
ATOM      4  C   UNL     1       8.833   0.028  24.790  0.00  0.00    +0.109 A 
ATOM      5  C   UNL     1       9.840   0.822  24.225  0.00  0.00    +0.135 A 
ATOM      6  C   UNL     1       9.745   2.223  24.242  0.00  0.00    +0.092 A 
ATOM      7  C   UNL     1       8.637   2.849  24.827  0.00  0.00    +0.131 A 
ATOM      8  C   UNL     1       8.838  -1.443  24.761  0.00  0.00    +0.238 A 
ATOM      9  O   UNL     1       9.835  -2.038  24.364  0.00  0.00    -0.283 OA
ATOM     10  C   UNL     1       7.617   2.037  25.344  0.00  0.00    +0.093 A 
ATOM     11  C   UNL     1       7.578  -2.151  25.178  0.00  0.00    +0.214 A 
ENDROOT
BRANCH   1  13
ATOM     12  C   UNL     1       5.648  -3.045  27.533  0.00  0.00    +0.015 A 
ATOM     13  C   UNL     1       5.486  -1.967  26.647  0.00  0.00    +0.025 A 
ATOM     14  C   UNL     1       4.175  -1.466  26.491  0.00  0.00    +0.060 A 
ATOM     15  C   UNL     1       3.089  -2.022  27.190  0.00  0.00    +0.159 A 
ATOM     16  C   UNL     1       3.257  -3.175  27.973  0.00  0.00    +0.165 A 
ATOM     17  C   UNL     1       4.559  -3.636  28.186  0.00  0.00    +0.050 A 
BRANCH  15  18
ATOM     18  O   UNL     1       1.864  -1.449  27.039  0.00  0.00    -0.503 OA
ATOM     19  H   UNL     1       1.546  -1.715  26.160  0.00  0.00    +0.292 HD
ENDBRANCH  15  18
BRANCH  16  20
ATOM     20  O   UNL     1       2.143  -3.773  28.511  0.00  0.00    -0.457 OA
BRANCH  20  21
ATOM     21  C   UNL     1       1.469  -4.661  27.576  0.00  0.00    +0.339 C 
ATOM     22  O   UNL     1       0.585  -5.532  28.277  0.00  0.00    -0.331 OA
ATOM     23  C   UNL     1       0.721  -6.951  28.200  0.00  0.00    +0.179 C 
ATOM     24  C   UNL     1       1.409  -7.480  26.930  0.00  0.00    +0.177 C 
ATOM     25  C   UNL     1       2.746  -6.777  26.729  0.00  0.00    +0.180 C 
ATOM     26  C   UNL     1       2.503  -5.272  26.587  0.00  0.00    +0.214 C 
BRANCH  26  27
ATOM     27  O   UNL     1       2.041  -5.032  25.236  0.00  0.00    -0.383 OA
ATOM     28  H   UNL     1       1.076  -4.857  25.309  0.00  0.00    +0.210 HD
ENDBRANCH  26  27
BRANCH  25  29
ATOM     29  O   UNL     1       3.646  -7.124  27.778  0.00  0.00    -0.386 OA
ATOM     30  H   UNL     1       3.586  -6.460  28.487  0.00  0.00    +0.210 HD
ENDBRANCH  25  29
BRANCH  24  31
ATOM     31  O   UNL     1       0.578  -7.226  25.780  0.00  0.00    -0.386 OA
ATOM     32  H   UNL     1       0.246  -6.311  25.868  0.00  0.00    +0.210 HD
ENDBRANCH  24  31
BRANCH  23  33
ATOM     33  C   UNL     1       1.335  -7.457  29.516  0.00  0.00    +0.190 C 
BRANCH  33  34
ATOM     34  O   UNL     1       1.857  -8.774  29.388  0.00  0.00    -0.392 OA
ATOM     35  H   UNL     1       2.265  -8.841  28.507  0.00  0.00    +0.210 HD
ENDBRANCH  33  34
ENDBRANCH  23  33
ENDBRANCH  20  21
ENDBRANCH  16  20
ENDBRANCH   1  13
BRANCH   5  36
ATOM     36  O   UNL     1      10.959   0.284  23.646  0.00  0.00    -0.506 OA
ATOM     37  H   UNL     1      11.008  -0.669  23.885  0.00  0.00    +0.292 HD
ENDBRANCH   5  36
BRANCH  11  38
ATOM     38  O   UNL     1       7.444  -3.478  24.758  0.00  0.00    -0.453 OA
BRANCH  38  39
ATOM     39  C   UNL     1       6.518  -3.625  23.663  0.00  0.00    +0.340 C 
ATOM     40  O   UNL     1       5.394  -4.422  24.028  0.00  0.00    -0.331 OA
ATOM     41  C   UNL     1       5.190  -5.749  23.532  0.00  0.00    +0.179 C 
ATOM     42  C   UNL     1       6.037  -6.210  22.332  0.00  0.00    +0.177 C 
ATOM     43  C   UNL     1       7.406  -5.533  22.297  0.00  0.00    +0.180 C 
ATOM     44  C   UNL     1       7.209  -4.020  22.350  0.00  0.00    +0.214 C 
BRANCH  44  45
ATOM     45  O   UNL     1       6.407  -3.595  21.228  0.00  0.00    -0.383 OA
ATOM     46  H   UNL     1       6.639  -2.661  21.018  0.00  0.00    +0.210 HD
ENDBRANCH  44  45
BRANCH  43  47
ATOM     47  O   UNL     1       8.259  -6.028  23.325  0.00  0.00    -0.386 OA
ATOM     48  H   UNL     1       8.934  -5.366  23.570  0.00  0.00    +0.210 HD
ENDBRANCH  43  47
BRANCH  42  49
ATOM     49  O   UNL     1       5.294  -5.940  21.127  0.00  0.00    -0.386 OA
ATOM     50  H   UNL     1       4.859  -6.769  20.836  0.00  0.00    +0.210 HD
ENDBRANCH  42  49
BRANCH  41  51
ATOM     51  C   UNL     1       5.259  -6.769  24.685  0.00  0.00    +0.190 C 
BRANCH  51  52
ATOM     52  O   UNL     1       6.053  -6.301  25.774  0.00  0.00    -0.392 OA
ATOM     53  H   UNL     1       6.727  -6.974  25.972  0.00  0.00    +0.210 HD
ENDBRANCH  51  52
ENDBRANCH  41  51
ENDBRANCH  38  39
ENDBRANCH  11  38
BRANCH   7  54
ATOM     54  O   UNL     1       8.645   4.233  24.867  0.00  0.00    -0.461 OA
BRANCH  54  55
ATOM     55  C   UNL     1       8.352   4.894  23.619  0.00  0.00    +0.339 C 
ATOM     56  O   UNL     1       8.338   6.316  23.765  0.00  0.00    -0.331 OA
ATOM     57  C   UNL     1       7.086   7.014  23.731  0.00  0.00    +0.179 C 
ATOM     58  C   UNL     1       6.136   6.491  22.647  0.00  0.00    +0.177 C 
ATOM     59  C   UNL     1       5.861   5.000  22.837  0.00  0.00    +0.180 C 
ATOM     60  C   UNL     1       7.180   4.219  22.846  0.00  0.00    +0.214 C 
BRANCH  60  61
ATOM     61  O   UNL     1       7.583   4.081  21.458  0.00  0.00    -0.383 OA
ATOM     62  H   UNL     1       7.738   4.992  21.125  0.00  0.00    +0.210 HD
ENDBRANCH  60  61
BRANCH  59  63
ATOM     63  O   UNL     1       5.038   4.787  23.977  0.00  0.00    -0.386 OA
ATOM     64  H   UNL     1       5.350   4.010  24.474  0.00  0.00    +0.210 HD
ENDBRANCH  59  63
BRANCH  58  65
ATOM     65  O   UNL     1       6.754   6.696  21.362  0.00  0.00    -0.386 OA
ATOM     66  H   UNL     1       7.581   7.191  21.515  0.00  0.00    +0.210 HD
ENDBRANCH  58  65
BRANCH  57  67
ATOM     67  C   UNL     1       6.443   7.108  25.126  0.00  0.00    +0.190 C 
BRANCH  67  68
ATOM     68  O   UNL     1       6.911   6.068  25.984  0.00  0.00    -0.392 OA
ATOM     69  H   UNL     1       7.646   5.619  25.527  0.00  0.00    +0.210 HD
ENDBRANCH  67  68
ENDBRANCH  57  67
ENDBRANCH  54  55
ENDBRANCH   7  54
TORSDOF 24
ENDMDL
MODEL 5
REMARK VINA RESULT:      -5.8      2.167     10.111
REMARK  Name = 
REMARK  24 active torsions:
REMARK  status: ('A' for Active; 'I' for Inactive)
REMARK    1  A    between atoms: C_3  and  O_54
REMARK    2  A    between atoms: C_4  and  O_53
REMARK    3  A    between atoms: C_6  and  C_7
REMARK    4  A    between atoms: C_8  and  O_36
REMARK    5  A    between atoms: C_12  and  O_35
REMARK    6  A    between atoms: C_14  and  O_18
REMARK    7  A    between atoms: O_18  and  C_19
REMARK    8  A    between atoms: C_21  and  O_34
REMARK    9  A    between atoms: C_23  and  O_33
REMARK   10  A    between atoms: C_25  and  O_32
REMARK   11  A    between atoms: C_27  and  C_30
REMARK   12  A    between atoms: C_30  and  O_31
REMARK   13  A    between atoms: O_36  and  C_37
REMARK   14  A    between atoms: C_39  and  O_52
REMARK   15  A    between atoms: C_41  and  O_51
REMARK   16  A    between atoms: C_43  and  O_50
REMARK   17  A    between atoms: C_45  and  C_48
REMARK   18  A    between atoms: C_48  and  O_49
REMARK   19  A    between atoms: O_54  and  C_55
REMARK   20  A    between atoms: C_57  and  O_70
REMARK   21  A    between atoms: C_59  and  O_69
REMARK   22  A    between atoms: C_61  and  O_68
REMARK   23  A    between atoms: C_63  and  C_66
REMARK   24  A    between atoms: C_66  and  O_67
REMARK                            x       y       z     vdW  Elec       q    Type
REMARK                         _______ _______ _______ _____ _____    ______ ____
ROOT
ATOM      1  C   UNL     1       6.268  -0.285  26.307  0.00  0.00    +0.181 A 
ATOM      2  O   UNL     1       5.292  -1.171  26.776  0.00  0.00    -0.451 OA
ATOM      3  C   UNL     1       5.607  -2.483  26.999  0.00  0.00    +0.147 A 
ATOM      4  C   UNL     1       6.750  -3.067  26.491  0.00  0.00    +0.109 A 
ATOM      5  C   UNL     1       6.934  -4.447  26.649  0.00  0.00    +0.135 A 
ATOM      6  C   UNL     1       5.979  -5.227  27.322  0.00  0.00    +0.092 A 
ATOM      7  C   UNL     1       4.825  -4.632  27.847  0.00  0.00    +0.131 A 
ATOM      8  C   UNL     1       7.731  -2.180  25.847  0.00  0.00    +0.238 A 
ATOM      9  O   UNL     1       8.701  -2.664  25.272  0.00  0.00    -0.283 OA
ATOM     10  C   UNL     1       4.681  -3.243  27.722  0.00  0.00    +0.093 A 
ATOM     11  C   UNL     1       7.516  -0.696  25.975  0.00  0.00    +0.214 A 
ENDROOT
BRANCH   1  13
ATOM     12  C   UNL     1       4.774   1.459  25.302  0.00  0.00    +0.015 A 
ATOM     13  C   UNL     1       5.734   1.122  26.269  0.00  0.00    +0.025 A 
ATOM     14  C   UNL     1       6.150   2.157  27.136  0.00  0.00    +0.060 A 
ATOM     15  C   UNL     1       5.627   3.457  27.031  0.00  0.00    +0.159 A 
ATOM     16  C   UNL     1       4.762   3.797  25.979  0.00  0.00    +0.165 A 
ATOM     17  C   UNL     1       4.294   2.767  25.159  0.00  0.00    +0.050 A 
BRANCH  15  18
ATOM     18  O   UNL     1       6.027   4.388  27.939  0.00  0.00    -0.503 OA
ATOM     19  H   UNL     1       5.953   5.250  27.496  0.00  0.00    +0.292 HD
ENDBRANCH  15  18
BRANCH  16  20
ATOM     20  O   UNL     1       4.399   5.114  25.825  0.00  0.00    -0.457 OA
BRANCH  20  21
ATOM     21  C   UNL     1       5.358   5.878  25.042  0.00  0.00    +0.339 C 
ATOM     22  O   UNL     1       4.696   6.937  24.353  0.00  0.00    -0.331 OA
ATOM     23  C   UNL     1       4.742   7.042  22.931  0.00  0.00    +0.179 C 
ATOM     24  C   UNL     1       5.960   6.387  22.258  0.00  0.00    +0.177 C 
ATOM     25  C   UNL     1       6.094   4.940  22.717  0.00  0.00    +0.180 C 
ATOM     26  C   UNL     1       6.274   4.912  24.237  0.00  0.00    +0.214 C 
BRANCH  26  27
ATOM     27  O   UNL     1       7.654   5.251  24.518  0.00  0.00    -0.383 OA
ATOM     28  H   UNL     1       7.980   4.558  25.136  0.00  0.00    +0.210 HD
ENDBRANCH  26  27
BRANCH  25  29
ATOM     29  O   UNL     1       4.988   4.172  22.248  0.00  0.00    -0.386 OA
ATOM     30  H   UNL     1       5.250   3.236  22.185  0.00  0.00    +0.210 HD
ENDBRANCH  25  29
BRANCH  24  31
ATOM     31  O   UNL     1       7.161   7.098  22.621  0.00  0.00    -0.386 OA
ATOM     32  H   UNL     1       7.781   6.437  22.987  0.00  0.00    +0.210 HD
ENDBRANCH  24  31
BRANCH  23  33
ATOM     33  C   UNL     1       3.384   6.598  22.361  0.00  0.00    +0.190 C 
BRANCH  33  34
ATOM     34  O   UNL     1       3.446   6.358  20.961  0.00  0.00    -0.392 OA
ATOM     35  H   UNL     1       2.730   5.737  20.740  0.00  0.00    +0.210 HD
ENDBRANCH  33  34
ENDBRANCH  23  33
ENDBRANCH  20  21
ENDBRANCH  16  20
ENDBRANCH   1  13
BRANCH   5  36
ATOM     36  O   UNL     1       8.030  -5.102  26.154  0.00  0.00    -0.506 OA
ATOM     37  H   UNL     1       8.699  -4.433  25.884  0.00  0.00    +0.292 HD
ENDBRANCH   5  36
BRANCH  11  38
ATOM     38  O   UNL     1       8.631   0.115  25.741  0.00  0.00    -0.453 OA
BRANCH  38  39
ATOM     39  C   UNL     1       8.442   1.015  24.632  0.00  0.00    +0.340 C 
ATOM     40  O   UNL     1       7.980   0.329  23.470  0.00  0.00    -0.331 OA
ATOM     41  C   UNL     1       8.801   0.112  22.319  0.00  0.00    +0.179 C 
ATOM     42  C   UNL     1      10.113   0.911  22.206  0.00  0.00    +0.177 C 
ATOM     43  C   UNL     1      10.705   1.244  23.574  0.00  0.00    +0.180 C 
ATOM     44  C   UNL     1       9.642   1.948  24.413  0.00  0.00    +0.214 C 
BRANCH  44  45
ATOM     45  O   UNL     1       9.211   3.151  23.743  0.00  0.00    -0.383 OA
ATOM     46  H   UNL     1       9.797   3.889  24.026  0.00  0.00    +0.210 HD
ENDBRANCH  44  45
BRANCH  43  47
ATOM     47  O   UNL     1      11.249   0.088  24.204  0.00  0.00    -0.386 OA
ATOM     48  H   UNL     1      12.201   0.203  24.387  0.00  0.00    +0.210 HD
ENDBRANCH  43  47
BRANCH  42  49
ATOM     49  O   UNL     1       9.846   2.108  21.450  0.00  0.00    -0.386 OA
ATOM     50  H   UNL     1      10.696   2.564  21.276  0.00  0.00    +0.210 HD
ENDBRANCH  42  49
BRANCH  41  51
ATOM     51  C   UNL     1       9.050  -1.395  22.114  0.00  0.00    +0.190 C 
BRANCH  51  52
ATOM     52  O   UNL     1      10.276  -1.653  21.431  0.00  0.00    -0.392 OA
ATOM     53  H   UNL     1      10.214  -1.272  20.537  0.00  0.00    +0.210 HD
ENDBRANCH  51  52
ENDBRANCH  41  51
ENDBRANCH  38  39
ENDBRANCH  11  38
BRANCH   7  54
ATOM     54  O   UNL     1       3.897  -5.474  28.438  0.00  0.00    -0.461 OA
BRANCH  54  55
ATOM     55  C   UNL     1       2.631  -5.582  27.756  0.00  0.00    +0.339 C 
ATOM     56  O   UNL     1       2.412  -6.904  27.258  0.00  0.00    -0.331 OA
ATOM     57  C   UNL     1       2.505  -7.148  25.848  0.00  0.00    +0.179 C 
ATOM     58  C   UNL     1       1.851  -6.049  25.002  0.00  0.00    +0.177 C 
ATOM     59  C   UNL     1       2.472  -4.686  25.306  0.00  0.00    +0.180 C 
ATOM     60  C   UNL     1       2.360  -4.380  26.804  0.00  0.00    +0.214 C 
BRANCH  60  61
ATOM     61  O   UNL     1       0.997  -3.932  27.029  0.00  0.00    -0.383 OA
ATOM     62  H   UNL     1       0.882  -3.119  26.490  0.00  0.00    +0.210 HD
ENDBRANCH  60  61
BRANCH  59  63
ATOM     63  O   UNL     1       3.793  -4.614  24.784  0.00  0.00    -0.386 OA
ATOM     64  H   UNL     1       3.793  -4.127  23.941  0.00  0.00    +0.210 HD
ENDBRANCH  59  63
BRANCH  58  65
ATOM     65  O   UNL     1       0.446  -6.007  25.318  0.00  0.00    -0.386 OA
ATOM     66  H   UNL     1      -0.027  -5.767  24.498  0.00  0.00    +0.210 HD
ENDBRANCH  58  65
BRANCH  57  67
ATOM     67  C   UNL     1       3.944  -7.487  25.417  0.00  0.00    +0.190 C 
BRANCH  67  68
ATOM     68  O   UNL     1       4.064  -7.525  23.995  0.00  0.00    -0.392 OA
ATOM     69  H   UNL     1       3.950  -8.453  23.717  0.00  0.00    +0.210 HD
ENDBRANCH  67  68
ENDBRANCH  57  67
ENDBRANCH  54  55
ENDBRANCH   7  54
TORSDOF 24
ENDMDL
MODEL 6
REMARK VINA RESULT:      -5.5      2.711     10.112
REMARK  Name = 
REMARK  24 active torsions:
REMARK  status: ('A' for Active; 'I' for Inactive)
REMARK    1  A    between atoms: C_3  and  O_54
REMARK    2  A    between atoms: C_4  and  O_53
REMARK    3  A    between atoms: C_6  and  C_7
REMARK    4  A    between atoms: C_8  and  O_36
REMARK    5  A    between atoms: C_12  and  O_35
REMARK    6  A    between atoms: C_14  and  O_18
REMARK    7  A    between atoms: O_18  and  C_19
REMARK    8  A    between atoms: C_21  and  O_34
REMARK    9  A    between atoms: C_23  and  O_33
REMARK   10  A    between atoms: C_25  and  O_32
REMARK   11  A    between atoms: C_27  and  C_30
REMARK   12  A    between atoms: C_30  and  O_31
REMARK   13  A    between atoms: O_36  and  C_37
REMARK   14  A    between atoms: C_39  and  O_52
REMARK   15  A    between atoms: C_41  and  O_51
REMARK   16  A    between atoms: C_43  and  O_50
REMARK   17  A    between atoms: C_45  and  C_48
REMARK   18  A    between atoms: C_48  and  O_49
REMARK   19  A    between atoms: O_54  and  C_55
REMARK   20  A    between atoms: C_57  and  O_70
REMARK   21  A    between atoms: C_59  and  O_69
REMARK   22  A    between atoms: C_61  and  O_68
REMARK   23  A    between atoms: C_63  and  C_66
REMARK   24  A    between atoms: C_66  and  O_67
REMARK                            x       y       z     vdW  Elec       q    Type
REMARK                         _______ _______ _______ _____ _____    ______ ____
ROOT
ATOM      1  C   UNL     1       6.543  -1.506  25.921  0.00  0.00    +0.181 A 
ATOM      2  O   UNL     1       5.638  -2.525  26.236  0.00  0.00    -0.451 OA
ATOM      3  C   UNL     1       5.804  -3.776  25.708  0.00  0.00    +0.147 A 
ATOM      4  C   UNL     1       6.628  -4.020  24.628  0.00  0.00    +0.109 A 
ATOM      5  C   UNL     1       6.639  -5.302  24.061  0.00  0.00    +0.135 A 
ATOM      6  C   UNL     1       5.834  -6.327  24.585  0.00  0.00    +0.092 A 
ATOM      7  C   UNL     1       5.006  -6.081  25.687  0.00  0.00    +0.131 A 
ATOM      8  C   UNL     1       7.483  -2.915  24.168  0.00  0.00    +0.238 A 
ATOM      9  O   UNL     1       8.140  -3.044  23.140  0.00  0.00    -0.283 OA
ATOM     10  C   UNL     1       5.044  -4.807  26.271  0.00  0.00    +0.093 A 
ATOM     11  C   UNL     1       7.547  -1.682  25.028  0.00  0.00    +0.214 A 
ENDROOT
BRANCH   1  13
ATOM     12  C   UNL     1       5.024   0.397  26.518  0.00  0.00    +0.015 A 
ATOM     13  C   UNL     1       6.245  -0.265  26.720  0.00  0.00    +0.025 A 
ATOM     14  C   UNL     1       7.128   0.308  27.663  0.00  0.00    +0.060 A 
ATOM     15  C   UNL     1       6.797   1.483  28.359  0.00  0.00    +0.159 A 
ATOM     16  C   UNL     1       5.626   2.192  28.049  0.00  0.00    +0.165 A 
ATOM     17  C   UNL     1       4.716   1.599  27.169  0.00  0.00    +0.050 A 
BRANCH  15  18
ATOM     18  O   UNL     1       7.669   1.944  29.297  0.00  0.00    -0.503 OA
ATOM     19  H   UNL     1       8.549   1.639  29.022  0.00  0.00    +0.292 HD
ENDBRANCH  15  18
BRANCH  16  20
ATOM     20  O   UNL     1       5.419   3.414  28.643  0.00  0.00    -0.457 OA
BRANCH  20  21
ATOM     21  C   UNL     1       4.655   4.328  27.808  0.00  0.00    +0.339 C 
ATOM     22  O   UNL     1       5.239   4.411  26.510  0.00  0.00    -0.331 OA
ATOM     23  C   UNL     1       5.690   5.655  25.975  0.00  0.00    +0.179 C 
ATOM     24  C   UNL     1       5.002   6.908  26.545  0.00  0.00    +0.177 C 
ATOM     25  C   UNL     1       5.072   6.894  28.067  0.00  0.00    +0.180 C 
ATOM     26  C   UNL     1       4.363   5.642  28.589  0.00  0.00    +0.214 C 
BRANCH  26  27
ATOM     27  O   UNL     1       2.938   5.896  28.541  0.00  0.00    -0.383 OA
ATOM     28  H   UNL     1       2.545   5.132  28.062  0.00  0.00    +0.210 HD
ENDBRANCH  26  27
BRANCH  25  29
ATOM     29  O   UNL     1       6.425   7.019  28.498  0.00  0.00    -0.386 OA
ATOM     30  H   UNL     1       7.019   6.753  27.774  0.00  0.00    +0.210 HD
ENDBRANCH  25  29
BRANCH  24  31
ATOM     31  O   UNL     1       3.616   6.929  26.148  0.00  0.00    -0.386 OA
ATOM     32  H   UNL     1       3.244   6.055  26.376  0.00  0.00    +0.210 HD
ENDBRANCH  24  31
BRANCH  23  33
ATOM     33  C   UNL     1       7.227   5.688  26.036  0.00  0.00    +0.190 C 
BRANCH  33  34
ATOM     34  O   UNL     1       7.735   4.872  27.084  0.00  0.00    -0.392 OA
ATOM     35  H   UNL     1       8.296   4.189  26.676  0.00  0.00    +0.210 HD
ENDBRANCH  33  34
ENDBRANCH  23  33
ENDBRANCH  20  21
ENDBRANCH  16  20
ENDBRANCH   1  13
BRANCH   5  36
ATOM     36  O   UNL     1       7.413  -5.616  22.975  0.00  0.00    -0.506 OA
ATOM     37  H   UNL     1       8.292  -5.188  23.083  0.00  0.00    +0.292 HD
ENDBRANCH   5  36
BRANCH  11  38
ATOM     38  O   UNL     1       8.644  -0.840  24.824  0.00  0.00    -0.453 OA
BRANCH  38  39
ATOM     39  C   UNL     1       8.262   0.467  24.351  0.00  0.00    +0.340 C 
ATOM     40  O   UNL     1       8.047   0.474  22.941  0.00  0.00    -0.331 OA
ATOM     41  C   UNL     1       8.940   1.112  22.023  0.00  0.00    +0.179 C 
ATOM     42  C   UNL     1       9.990   2.083  22.593  0.00  0.00    +0.177 C 
ATOM     43  C   UNL     1      10.418   1.703  24.010  0.00  0.00    +0.180 C 
ATOM     44  C   UNL     1       9.173   1.582  24.884  0.00  0.00    +0.214 C 
BRANCH  44  45
ATOM     45  O   UNL     1       8.459   2.836  24.892  0.00  0.00    -0.383 OA
ATOM     46  H   UNL     1       9.042   3.526  24.500  0.00  0.00    +0.210 HD
ENDBRANCH  44  45
BRANCH  43  47
ATOM     47  O   UNL     1      11.229   0.532  24.014  0.00  0.00    -0.386 OA
ATOM     48  H   UNL     1      11.180   0.068  23.157  0.00  0.00    +0.210 HD
ENDBRANCH  43  47
BRANCH  42  49
ATOM     49  O   UNL     1       9.439   3.414  22.556  0.00  0.00    -0.386 OA
ATOM     50  H   UNL     1       9.063   3.572  21.665  0.00  0.00    +0.210 HD
ENDBRANCH  42  49
BRANCH  41  51
ATOM     51  C   UNL     1       9.593   0.068  21.097  0.00  0.00    +0.190 C 
BRANCH  51  52
ATOM     52  O   UNL     1       9.299  -1.269  21.498  0.00  0.00    -0.392 OA
ATOM     53  H   UNL     1       9.874  -1.873  20.995  0.00  0.00    +0.210 HD
ENDBRANCH  51  52
ENDBRANCH  41  51
ENDBRANCH  38  39
ENDBRANCH  11  38
BRANCH   7  54
ATOM     54  O   UNL     1       4.191  -7.120  26.105  0.00  0.00    -0.461 OA
BRANCH  54  55
ATOM     55  C   UNL     1       3.551  -7.871  25.054  0.00  0.00    +0.339 C 
ATOM     56  O   UNL     1       3.502  -7.131  23.832  0.00  0.00    -0.331 OA
ATOM     57  C   UNL     1       2.249  -6.596  23.384  0.00  0.00    +0.179 C 
ATOM     58  C   UNL     1       1.079  -7.569  23.569  0.00  0.00    +0.177 C 
ATOM     59  C   UNL     1       0.940  -7.982  25.034  0.00  0.00    +0.180 C 
ATOM     60  C   UNL     1       2.256  -8.588  25.536  0.00  0.00    +0.214 C 
BRANCH  60  61
ATOM     61  O   UNL     1       2.291  -9.953  25.040  0.00  0.00    -0.383 OA
ATOM     62  H   UNL     1       1.985 -10.522  25.780  0.00  0.00    +0.210 HD
ENDBRANCH  60  61
BRANCH  59  63
ATOM     63  O   UNL     1       0.454  -6.895  25.813  0.00  0.00    -0.386 OA
ATOM     64  H   UNL     1      -0.394  -6.579  25.453  0.00  0.00    +0.210 HD
ENDBRANCH  59  63
BRANCH  58  65
ATOM     65  O   UNL     1       1.330  -8.742  22.771  0.00  0.00    -0.386 OA
ATOM     66  H   UNL     1       2.118  -8.557  22.226  0.00  0.00    +0.210 HD
ENDBRANCH  58  65
BRANCH  57  67
ATOM     67  C   UNL     1       1.986  -5.193  23.959  0.00  0.00    +0.190 C 
BRANCH  67  68
ATOM     68  O   UNL     1       3.057  -4.300  23.657  0.00  0.00    -0.392 OA
ATOM     69  H   UNL     1       3.841  -4.605  24.149  0.00  0.00    +0.210 HD
ENDBRANCH  67  68
ENDBRANCH  57  67
ENDBRANCH  54  55
ENDBRANCH   7  54
TORSDOF 24
ENDMDL
MODEL 7
REMARK VINA RESULT:      -5.3      2.777     10.709
REMARK  Name = 
REMARK  24 active torsions:
REMARK  status: ('A' for Active; 'I' for Inactive)
REMARK    1  A    between atoms: C_3  and  O_54
REMARK    2  A    between atoms: C_4  and  O_53
REMARK    3  A    between atoms: C_6  and  C_7
REMARK    4  A    between atoms: C_8  and  O_36
REMARK    5  A    between atoms: C_12  and  O_35
REMARK    6  A    between atoms: C_14  and  O_18
REMARK    7  A    between atoms: O_18  and  C_19
REMARK    8  A    between atoms: C_21  and  O_34
REMARK    9  A    between atoms: C_23  and  O_33
REMARK   10  A    between atoms: C_25  and  O_32
REMARK   11  A    between atoms: C_27  and  C_30
REMARK   12  A    between atoms: C_30  and  O_31
REMARK   13  A    between atoms: O_36  and  C_37
REMARK   14  A    between atoms: C_39  and  O_52
REMARK   15  A    between atoms: C_41  and  O_51
REMARK   16  A    between atoms: C_43  and  O_50
REMARK   17  A    between atoms: C_45  and  C_48
REMARK   18  A    between atoms: C_48  and  O_49
REMARK   19  A    between atoms: O_54  and  C_55
REMARK   20  A    between atoms: C_57  and  O_70
REMARK   21  A    between atoms: C_59  and  O_69
REMARK   22  A    between atoms: C_61  and  O_68
REMARK   23  A    between atoms: C_63  and  C_66
REMARK   24  A    between atoms: C_66  and  O_67
REMARK                            x       y       z     vdW  Elec       q    Type
REMARK                         _______ _______ _______ _____ _____    ______ ____
ROOT
ATOM      1  C   UNL     1       5.552  -0.402  27.239  0.00  0.00    +0.181 A 
ATOM      2  O   UNL     1       5.883  -1.701  26.840  0.00  0.00    -0.451 OA
ATOM      3  C   UNL     1       5.123  -2.760  27.252  0.00  0.00    +0.147 A 
ATOM      4  C   UNL     1       4.230  -2.667  28.300  0.00  0.00    +0.109 A 
ATOM      5  C   UNL     1       3.589  -3.829  28.750  0.00  0.00    +0.135 A 
ATOM      6  C   UNL     1       3.841  -5.070  28.141  0.00  0.00    +0.092 A 
ATOM      7  C   UNL     1       4.739  -5.162  27.071  0.00  0.00    +0.131 A 
ATOM      8  C   UNL     1       3.976  -1.327  28.852  0.00  0.00    +0.238 A 
ATOM      9  O   UNL     1       3.287  -1.207  29.860  0.00  0.00    -0.283 OA
ATOM     10  C   UNL     1       5.333  -3.982  26.604  0.00  0.00    +0.093 A 
ATOM     11  C   UNL     1       4.541  -0.149  28.106  0.00  0.00    +0.214 A 
ENDROOT
BRANCH   1  13
ATOM     12  C   UNL     1       7.068   0.253  25.352  0.00  0.00    +0.015 A 
ATOM     13  C   UNL     1       6.437   0.607  26.556  0.00  0.00    +0.025 A 
ATOM     14  C   UNL     1       6.703   1.901  27.055  0.00  0.00    +0.060 A 
ATOM     15  C   UNL     1       7.560   2.786  26.377  0.00  0.00    +0.159 A 
ATOM     16  C   UNL     1       8.273   2.365  25.244  0.00  0.00    +0.165 A 
ATOM     17  C   UNL     1       7.965   1.113  24.706  0.00  0.00    +0.050 A 
BRANCH  15  18
ATOM     18  O   UNL     1       7.722   4.040  26.883  0.00  0.00    -0.503 OA
ATOM     19  H   UNL     1       7.532   3.975  27.833  0.00  0.00    +0.292 HD
ENDBRANCH  15  18
BRANCH  16  20
ATOM     20  O   UNL     1       9.214   3.211  24.706  0.00  0.00    -0.457 OA
BRANCH  20  21
ATOM     21  C   UNL     1       8.752   3.876  23.497  0.00  0.00    +0.339 C 
ATOM     22  O   UNL     1       9.499   5.070  23.278  0.00  0.00    -0.331 OA
ATOM     23  C   UNL     1       8.859   6.343  23.197  0.00  0.00    +0.179 C 
ATOM     24  C   UNL     1       7.385   6.315  22.757  0.00  0.00    +0.177 C 
ATOM     25  C   UNL     1       6.597   5.347  23.631  0.00  0.00    +0.180 C 
ATOM     26  C   UNL     1       7.198   3.946  23.491  0.00  0.00    +0.214 C 
BRANCH  26  27
ATOM     27  O   UNL     1       6.719   3.390  22.242  0.00  0.00    -0.383 OA
ATOM     28  H   UNL     1       6.177   2.607  22.487  0.00  0.00    +0.210 HD
ENDBRANCH  26  27
BRANCH  25  29
ATOM     29  O   UNL     1       6.546   5.826  24.972  0.00  0.00    -0.386 OA
ATOM     30  H   UNL     1       7.153   5.303  25.525  0.00  0.00    +0.210 HD
ENDBRANCH  25  29
BRANCH  24  31
ATOM     31  O   UNL     1       7.292   5.878  21.386  0.00  0.00    -0.386 OA
ATOM     32  H   UNL     1       8.198   5.653  21.099  0.00  0.00    +0.210 HD
ENDBRANCH  24  31
BRANCH  23  33
ATOM     33  C   UNL     1       9.118   7.108  24.507  0.00  0.00    +0.190 C 
BRANCH  33  34
ATOM     34  O   UNL     1       9.364   6.228  25.597  0.00  0.00    -0.392 OA
ATOM     35  H   UNL     1      10.236   5.820  25.450  0.00  0.00    +0.210 HD
ENDBRANCH  33  34
ENDBRANCH  23  33
ENDBRANCH  20  21
ENDBRANCH  16  20
ENDBRANCH   1  13
BRANCH   5  36
ATOM     36  O   UNL     1       2.707  -3.821  29.798  0.00  0.00    -0.506 OA
ATOM     37  H   UNL     1       2.256  -4.695  29.834  0.00  0.00    +0.292 HD
ENDBRANCH   5  36
BRANCH  11  38
ATOM     38  O   UNL     1       3.962   1.094  28.378  0.00  0.00    -0.453 OA
BRANCH  38  39
ATOM     39  C   UNL     1       2.690   1.271  27.726  0.00  0.00    +0.340 C 
ATOM     40  O   UNL     1       2.831   1.350  26.309  0.00  0.00    -0.331 OA
ATOM     41  C   UNL     1       2.648   2.566  25.577  0.00  0.00    +0.179 C 
ATOM     42  C   UNL     1       1.973   3.748  26.297  0.00  0.00    +0.177 C 
ATOM     43  C   UNL     1       2.245   3.739  27.801  0.00  0.00    +0.180 C 
ATOM     44  C   UNL     1       1.842   2.379  28.366  0.00  0.00    +0.214 C 
BRANCH  44  45
ATOM     45  O   UNL     1       0.443   2.139  28.105  0.00  0.00    -0.383 OA
ATOM     46  H   UNL     1      -0.078   2.865  28.518  0.00  0.00    +0.210 HD
ENDBRANCH  44  45
BRANCH  43  47
ATOM     47  O   UNL     1       3.594   4.094  28.090  0.00  0.00    -0.386 OA
ATOM     48  H   UNL     1       3.870   4.874  27.571  0.00  0.00    +0.210 HD
ENDBRANCH  43  47
BRANCH  42  49
ATOM     49  O   UNL     1       0.559   3.692  26.026  0.00  0.00    -0.386 OA
ATOM     50  H   UNL     1       0.355   2.828  25.610  0.00  0.00    +0.210 HD
ENDBRANCH  42  49
BRANCH  41  51
ATOM     51  C   UNL     1       3.971   3.000  24.918  0.00  0.00    +0.190 C 
BRANCH  51  52
ATOM     52  O   UNL     1       4.284   2.216  23.768  0.00  0.00    -0.392 OA
ATOM     53  H   UNL     1       3.507   1.673  23.546  0.00  0.00    +0.210 HD
ENDBRANCH  51  52
ENDBRANCH  41  51
ENDBRANCH  38  39
ENDBRANCH  11  38
BRANCH   7  54
ATOM     54  O   UNL     1       4.987  -6.428  26.566  0.00  0.00    -0.461 OA
BRANCH  54  55
ATOM     55  C   UNL     1       3.995  -6.940  25.654  0.00  0.00    +0.339 C 
ATOM     56  O   UNL     1       4.588  -7.421  24.445  0.00  0.00    -0.331 OA
ATOM     57  C   UNL     1       4.432  -6.665  23.237  0.00  0.00    +0.179 C 
ATOM     58  C   UNL     1       3.015  -6.108  23.055  0.00  0.00    +0.177 C 
ATOM     59  C   UNL     1       2.621  -5.225  24.239  0.00  0.00    +0.180 C 
ATOM     60  C   UNL     1       2.747  -6.015  25.548  0.00  0.00    +0.214 C 
BRANCH  60  61
ATOM     61  O   UNL     1       1.563  -6.851  25.635  0.00  0.00    -0.383 OA
ATOM     62  H   UNL     1       1.879  -7.751  25.870  0.00  0.00    +0.210 HD
ENDBRANCH  60  61
BRANCH  59  63
ATOM     63  O   UNL     1       3.349  -4.003  24.213  0.00  0.00    -0.386 OA
ATOM     64  H   UNL     1       4.292  -4.172  24.386  0.00  0.00    +0.210 HD
ENDBRANCH  59  63
BRANCH  58  65
ATOM     65  O   UNL     1       2.097  -7.214  22.967  0.00  0.00    -0.386 OA
ATOM     66  H   UNL     1       1.524  -7.177  23.756  0.00  0.00    +0.210 HD
ENDBRANCH  58  65
BRANCH  57  67
ATOM     67  C   UNL     1       5.539  -5.610  23.073  0.00  0.00    +0.190 C 
BRANCH  67  68
ATOM     68  O   UNL     1       5.293  -4.772  21.943  0.00  0.00    -0.392 OA
ATOM     69  H   UNL     1       5.912  -4.020  21.996  0.00  0.00    +0.210 HD
ENDBRANCH  67  68
ENDBRANCH  57  67
ENDBRANCH  54  55
ENDBRANCH   7  54
TORSDOF 24
ENDMDL
MODEL 8
REMARK VINA RESULT:      -5.3      1.814      3.139
REMARK  Name = 
REMARK  24 active torsions:
REMARK  status: ('A' for Active; 'I' for Inactive)
REMARK    1  A    between atoms: C_3  and  O_54
REMARK    2  A    between atoms: C_4  and  O_53
REMARK    3  A    between atoms: C_6  and  C_7
REMARK    4  A    between atoms: C_8  and  O_36
REMARK    5  A    between atoms: C_12  and  O_35
REMARK    6  A    between atoms: C_14  and  O_18
REMARK    7  A    between atoms: O_18  and  C_19
REMARK    8  A    between atoms: C_21  and  O_34
REMARK    9  A    between atoms: C_23  and  O_33
REMARK   10  A    between atoms: C_25  and  O_32
REMARK   11  A    between atoms: C_27  and  C_30
REMARK   12  A    between atoms: C_30  and  O_31
REMARK   13  A    between atoms: O_36  and  C_37
REMARK   14  A    between atoms: C_39  and  O_52
REMARK   15  A    between atoms: C_41  and  O_51
REMARK   16  A    between atoms: C_43  and  O_50
REMARK   17  A    between atoms: C_45  and  C_48
REMARK   18  A    between atoms: C_48  and  O_49
REMARK   19  A    between atoms: O_54  and  C_55
REMARK   20  A    between atoms: C_57  and  O_70
REMARK   21  A    between atoms: C_59  and  O_69
REMARK   22  A    between atoms: C_61  and  O_68
REMARK   23  A    between atoms: C_63  and  C_66
REMARK   24  A    between atoms: C_66  and  O_67
REMARK                            x       y       z     vdW  Elec       q    Type
REMARK                         _______ _______ _______ _____ _____    ______ ____
ROOT
ATOM      1  C   UNL     1       5.756  -0.391  24.868  0.00  0.00    +0.181 A 
ATOM      2  O   UNL     1       5.675   1.002  24.956  0.00  0.00    -0.451 OA
ATOM      3  C   UNL     1       6.140   1.783  23.935  0.00  0.00    +0.147 A 
ATOM      4  C   UNL     1       6.977   1.295  22.952  0.00  0.00    +0.109 A 
ATOM      5  C   UNL     1       7.519   2.188  22.018  0.00  0.00    +0.135 A 
ATOM      6  C   UNL     1       7.210   3.557  22.070  0.00  0.00    +0.092 A 
ATOM      7  C   UNL     1       6.352   4.050  23.061  0.00  0.00    +0.131 A 
ATOM      8  C   UNL     1       7.212  -0.157  22.926  0.00  0.00    +0.238 A 
ATOM      9  O   UNL     1       8.042  -0.624  22.153  0.00  0.00    -0.283 OA
ATOM     10  C   UNL     1       5.782   3.135  23.957  0.00  0.00    +0.093 A 
ATOM     11  C   UNL     1       6.368  -1.014  23.831  0.00  0.00    +0.214 A 
ENDROOT
BRANCH   1  13
ATOM     12  C   UNL     1       5.832  -1.730  26.986  0.00  0.00    +0.015 A 
ATOM     13  C   UNL     1       5.062  -1.041  26.035  0.00  0.00    +0.025 A 
ATOM     14  C   UNL     1       3.664  -1.027  26.240  0.00  0.00    +0.060 A 
ATOM     15  C   UNL     1       3.078  -1.675  27.342  0.00  0.00    +0.159 A 
ATOM     16  C   UNL     1       3.856  -2.459  28.208  0.00  0.00    +0.165 A 
ATOM     17  C   UNL     1       5.245  -2.423  28.053  0.00  0.00    +0.050 A 
BRANCH  15  18
ATOM     18  O   UNL     1       1.732  -1.569  27.510  0.00  0.00    -0.503 OA
ATOM     19  H   UNL     1       1.513  -0.634  27.362  0.00  0.00    +0.292 HD
ENDBRANCH  15  18
BRANCH  16  20
ATOM     20  O   UNL     1       3.220  -3.198  29.177  0.00  0.00    -0.457 OA
BRANCH  20  21
ATOM     21  C   UNL     1       3.261  -4.629  28.917  0.00  0.00    +0.339 C 
ATOM     22  O   UNL     1       3.900  -4.881  27.668  0.00  0.00    -0.331 OA
ATOM     23  C   UNL     1       3.230  -5.576  26.617  0.00  0.00    +0.179 C 
ATOM     24  C   UNL     1       2.103  -6.524  27.063  0.00  0.00    +0.177 C 
ATOM     25  C   UNL     1       1.120  -5.780  27.959  0.00  0.00    +0.180 C 
ATOM     26  C   UNL     1       1.864  -5.257  29.191  0.00  0.00    +0.214 C 
BRANCH  26  27
ATOM     27  O   UNL     1       2.034  -6.369  30.102  0.00  0.00    -0.383 OA
ATOM     28  H   UNL     1       2.464  -5.997  30.904  0.00  0.00    +0.210 HD
ENDBRANCH  26  27
BRANCH  25  29
ATOM     29  O   UNL     1       0.444  -4.770  27.215  0.00  0.00    -0.386 OA
ATOM     30  H   UNL     1      -0.518  -4.898  27.299  0.00  0.00    +0.210 HD
ENDBRANCH  25  29
BRANCH  24  31
ATOM     31  O   UNL     1       2.658  -7.628  27.805  0.00  0.00    -0.386 OA
ATOM     32  H   UNL     1       1.904  -8.127  28.175  0.00  0.00    +0.210 HD
ENDBRANCH  24  31
BRANCH  23  33
ATOM     33  C   UNL     1       2.816  -4.556  25.541  0.00  0.00    +0.190 C 
BRANCH  33  34
ATOM     34  O   UNL     1       3.890  -4.244  24.662  0.00  0.00    -0.392 OA
ATOM     35  H   UNL     1       4.554  -3.753  25.178  0.00  0.00    +0.210 HD
ENDBRANCH  33  34
ENDBRANCH  23  33
ENDBRANCH  20  21
ENDBRANCH  16  20
ENDBRANCH   1  13
BRANCH   5  36
ATOM     36  O   UNL     1       8.374   1.784  21.027  0.00  0.00    -0.506 OA
ATOM     37  H   UNL     1       9.268   1.656  21.419  0.00  0.00    +0.292 HD
ENDBRANCH   5  36
BRANCH  11  38
ATOM     38  O   UNL     1       6.294  -2.372  23.507  0.00  0.00    -0.453 OA
BRANCH  38  39
ATOM     39  C   UNL     1       7.592  -2.985  23.377  0.00  0.00    +0.340 C 
ATOM     40  O   UNL     1       7.555  -4.116  22.508  0.00  0.00    -0.331 OA
ATOM     41  C   UNL     1       7.681  -5.461  22.980  0.00  0.00    +0.179 C 
ATOM     42  C   UNL     1       8.184  -5.678  24.419  0.00  0.00    +0.177 C 
ATOM     43  C   UNL     1       7.797  -4.526  25.346  0.00  0.00    +0.180 C 
ATOM     44  C   UNL     1       8.279  -3.215  24.730  0.00  0.00    +0.214 C 
BRANCH  44  45
ATOM     45  O   UNL     1       9.711  -3.259  24.551  0.00  0.00    -0.383 OA
ATOM     46  H   UNL     1       9.904  -3.197  23.588  0.00  0.00    +0.210 HD
ENDBRANCH  44  45
BRANCH  43  47
ATOM     47  O   UNL     1       6.402  -4.536  25.635  0.00  0.00    -0.386 OA
ATOM     48  H   UNL     1       6.239  -4.764  26.571  0.00  0.00    +0.210 HD
ENDBRANCH  43  47
BRANCH  42  49
ATOM     49  O   UNL     1       9.614  -5.849  24.375  0.00  0.00    -0.386 OA
ATOM     50  H   UNL     1      10.022  -5.240  25.025  0.00  0.00    +0.210 HD
ENDBRANCH  42  49
BRANCH  41  51
ATOM     51  C   UNL     1       6.380  -6.244  22.723  0.00  0.00    +0.190 C 
BRANCH  51  52
ATOM     52  O   UNL     1       5.973  -6.183  21.356  0.00  0.00    -0.392 OA
ATOM     53  H   UNL     1       5.587  -5.305  21.191  0.00  0.00    +0.210 HD
ENDBRANCH  51  52
ENDBRANCH  41  51
ENDBRANCH  38  39
ENDBRANCH  11  38
BRANCH   7  54
ATOM     54  O   UNL     1       6.147   5.420  23.091  0.00  0.00    -0.461 OA
BRANCH  54  55
ATOM     55  C   UNL     1       6.663   6.101  24.253  0.00  0.00    +0.339 C 
ATOM     56  O   UNL     1       7.652   7.071  23.899  0.00  0.00    -0.331 OA
ATOM     57  C   UNL     1       9.031   6.806  24.192  0.00  0.00    +0.179 C 
ATOM     58  C   UNL     1       9.242   6.177  25.574  0.00  0.00    +0.177 C 
ATOM     59  C   UNL     1       8.454   4.874  25.706  0.00  0.00    +0.180 C 
ATOM     60  C   UNL     1       6.968   5.129  25.429  0.00  0.00    +0.214 C 
BRANCH  60  61
ATOM     61  O   UNL     1       6.421   5.712  26.642  0.00  0.00    -0.383 OA
ATOM     62  H   UNL     1       6.270   6.662  26.447  0.00  0.00    +0.210 HD
ENDBRANCH  60  61
BRANCH  59  63
ATOM     63  O   UNL     1       9.040   3.856  24.904  0.00  0.00    -0.386 OA
ATOM     64  H   UNL     1       8.739   2.980  25.204  0.00  0.00    +0.210 HD
ENDBRANCH  59  63
BRANCH  58  65
ATOM     65  O   UNL     1       8.784   7.108  26.574  0.00  0.00    -0.386 OA
ATOM     66  H   UNL     1       9.024   6.737  27.444  0.00  0.00    +0.210 HD
ENDBRANCH  58  65
BRANCH  57  67
ATOM     67  C   UNL     1       9.724   6.041  23.051  0.00  0.00    +0.190 C 
BRANCH  67  68
ATOM     68  O   UNL     1      10.997   5.541  23.460  0.00  0.00    -0.392 OA
ATOM     69  H   UNL     1      11.675   6.149  23.112  0.00  0.00    +0.210 HD
ENDBRANCH  67  68
ENDBRANCH  57  67
ENDBRANCH  54  55
ENDBRANCH   7  54
TORSDOF 24
ENDMDL
MODEL 9
REMARK VINA RESULT:      -5.3      2.709     10.967
REMARK  Name = 
REMARK  24 active torsions:
REMARK  status: ('A' for Active; 'I' for Inactive)
REMARK    1  A    between atoms: C_3  and  O_54
REMARK    2  A    between atoms: C_4  and  O_53
REMARK    3  A    between atoms: C_6  and  C_7
REMARK    4  A    between atoms: C_8  and  O_36
REMARK    5  A    between atoms: C_12  and  O_35
REMARK    6  A    between atoms: C_14  and  O_18
REMARK    7  A    between atoms: O_18  and  C_19
REMARK    8  A    between atoms: C_21  and  O_34
REMARK    9  A    between atoms: C_23  and  O_33
REMARK   10  A    between atoms: C_25  and  O_32
REMARK   11  A    between atoms: C_27  and  C_30
REMARK   12  A    between atoms: C_30  and  O_31
REMARK   13  A    between atoms: O_36  and  C_37
REMARK   14  A    between atoms: C_39  and  O_52
REMARK   15  A    between atoms: C_41  and  O_51
REMARK   16  A    between atoms: C_43  and  O_50
REMARK   17  A    between atoms: C_45  and  C_48
REMARK   18  A    between atoms: C_48  and  O_49
REMARK   19  A    between atoms: O_54  and  C_55
REMARK   20  A    between atoms: C_57  and  O_70
REMARK   21  A    between atoms: C_59  and  O_69
REMARK   22  A    between atoms: C_61  and  O_68
REMARK   23  A    between atoms: C_63  and  C_66
REMARK   24  A    between atoms: C_66  and  O_67
REMARK                            x       y       z     vdW  Elec       q    Type
REMARK                         _______ _______ _______ _____ _____    ______ ____
ROOT
ATOM      1  C   UNL     1       6.088  -0.777  26.387  0.00  0.00    +0.181 A 
ATOM      2  O   UNL     1       6.328  -2.118  26.067  0.00  0.00    -0.451 OA
ATOM      3  C   UNL     1       5.579  -3.105  26.645  0.00  0.00    +0.147 A 
ATOM      4  C   UNL     1       4.809  -2.888  27.769  0.00  0.00    +0.109 A 
ATOM      5  C   UNL     1       4.179  -3.981  28.381  0.00  0.00    +0.135 A 
ATOM      6  C   UNL     1       4.319  -5.276  27.856  0.00  0.00    +0.092 A 
ATOM      7  C   UNL     1       5.092  -5.495  26.710  0.00  0.00    +0.131 A 
ATOM      8  C   UNL     1       4.664  -1.499  28.229  0.00  0.00    +0.238 A 
ATOM      9  O   UNL     1       4.093  -1.267  29.290  0.00  0.00    -0.283 OA
ATOM     10  C   UNL     1       5.674  -4.383  26.084  0.00  0.00    +0.093 A 
ATOM     11  C   UNL     1       5.187  -0.411  27.331  0.00  0.00    +0.214 A 
ENDROOT
BRANCH   1  13
ATOM     12  C   UNL     1       8.305   0.234  25.797  0.00  0.00    +0.015 A 
ATOM     13  C   UNL     1       6.929   0.133  25.532  0.00  0.00    +0.025 A 
ATOM     14  C   UNL     1       6.427   0.925  24.476  0.00  0.00    +0.060 A 
ATOM     15  C   UNL     1       7.266   1.773  23.732  0.00  0.00    +0.159 A 
ATOM     16  C   UNL     1       8.610   1.948  24.095  0.00  0.00    +0.165 A 
ATOM     17  C   UNL     1       9.131   1.120  25.093  0.00  0.00    +0.050 A 
BRANCH  15  18
ATOM     18  O   UNL     1       6.725   2.460  22.689  0.00  0.00    -0.503 OA
ATOM     19  H   UNL     1       7.329   2.333  21.938  0.00  0.00    +0.292 HD
ENDBRANCH  15  18
BRANCH  16  20
ATOM     20  O   UNL     1       9.351   2.901  23.437  0.00  0.00    -0.457 OA
BRANCH  20  21
ATOM     21  C   UNL     1       9.705   4.029  24.285  0.00  0.00    +0.339 C 
ATOM     22  O   UNL     1       8.643   4.310  25.194  0.00  0.00    -0.331 OA
ATOM     23  C   UNL     1       8.007   5.587  25.222  0.00  0.00    +0.179 C 
ATOM     24  C   UNL     1       8.859   6.762  24.713  0.00  0.00    +0.177 C 
ATOM     25  C   UNL     1       9.413   6.443  23.330  0.00  0.00    +0.180 C 
ATOM     26  C   UNL     1      10.281   5.184  23.417  0.00  0.00    +0.214 C 
BRANCH  26  27
ATOM     27  O   UNL     1      11.561   5.576  23.968  0.00  0.00    -0.383 OA
ATOM     28  H   UNL     1      12.111   5.853  23.200  0.00  0.00    +0.210 HD
ENDBRANCH  26  27
BRANCH  25  29
ATOM     29  O   UNL     1       8.352   6.353  22.383  0.00  0.00    -0.386 OA
ATOM     30  H   UNL     1       8.138   7.244  22.053  0.00  0.00    +0.210 HD
ENDBRANCH  25  29
BRANCH  24  31
ATOM     31  O   UNL     1       9.964   6.991  25.610  0.00  0.00    -0.386 OA
ATOM     32  H   UNL     1       9.877   6.343  26.336  0.00  0.00    +0.210 HD
ENDBRANCH  24  31
BRANCH  23  33
ATOM     33  C   UNL     1       6.627   5.463  24.553  0.00  0.00    +0.190 C 
BRANCH  33  34
ATOM     34  O   UNL     1       6.050   6.735  24.282  0.00  0.00    -0.392 OA
ATOM     35  H   UNL     1       6.767   7.393  24.319  0.00  0.00    +0.210 HD
ENDBRANCH  33  34
ENDBRANCH  23  33
ENDBRANCH  20  21
ENDBRANCH  16  20
ENDBRANCH   1  13
BRANCH   5  36
ATOM     36  O   UNL     1       3.417  -3.849  29.511  0.00  0.00    -0.506 OA
ATOM     37  H   UNL     1       2.847  -4.647  29.599  0.00  0.00    +0.292 HD
ENDBRANCH   5  36
BRANCH  11  38
ATOM     38  O   UNL     1       4.686   0.875  27.556  0.00  0.00    -0.453 OA
BRANCH  38  39
ATOM     39  C   UNL     1       5.515   1.648  28.445  0.00  0.00    +0.340 C 
ATOM     40  O   UNL     1       4.822   1.998  29.641  0.00  0.00    -0.331 OA
ATOM     41  C   UNL     1       4.390   3.333  29.926  0.00  0.00    +0.179 C 
ATOM     42  C   UNL     1       4.964   4.476  29.068  0.00  0.00    +0.177 C 
ATOM     43  C   UNL     1       5.306   4.018  27.651  0.00  0.00    +0.180 C 
ATOM     44  C   UNL     1       6.230   2.806  27.734  0.00  0.00    +0.214 C 
BRANCH  44  45
ATOM     45  O   UNL     1       7.430   3.157  28.455  0.00  0.00    -0.383 OA
ATOM     46  H   UNL     1       7.291   2.950  29.407  0.00  0.00    +0.210 HD
ENDBRANCH  44  45
BRANCH  43  47
ATOM     47  O   UNL     1       4.131   3.783  26.880  0.00  0.00    -0.386 OA
ATOM     48  H   UNL     1       3.460   4.472  27.045  0.00  0.00    +0.210 HD
ENDBRANCH  43  47
BRANCH  42  49
ATOM     49  O   UNL     1       6.126   5.001  29.739  0.00  0.00    -0.386 OA
ATOM     50  H   UNL     1       6.650   5.521  29.094  0.00  0.00    +0.210 HD
ENDBRANCH  42  49
BRANCH  41  51
ATOM     51  C   UNL     1       2.852   3.398  29.982  0.00  0.00    +0.190 C 
BRANCH  51  52
ATOM     52  O   UNL     1       2.240   2.652  28.931  0.00  0.00    -0.392 OA
ATOM     53  H   UNL     1       2.762   1.843  28.786  0.00  0.00    +0.210 HD
ENDBRANCH  51  52
ENDBRANCH  41  51
ENDBRANCH  38  39
ENDBRANCH  11  38
BRANCH   7  54
ATOM     54  O   UNL     1       5.239  -6.807  26.290  0.00  0.00    -0.461 OA
BRANCH  54  55
ATOM     55  C   UNL     1       4.260  -7.269  25.338  0.00  0.00    +0.339 C 
ATOM     56  O   UNL     1       4.780  -7.271  24.006  0.00  0.00    -0.331 OA
ATOM     57  C   UNL     1       4.329  -6.279  23.074  0.00  0.00    +0.179 C 
ATOM     58  C   UNL     1       2.819  -6.023  23.152  0.00  0.00    +0.177 C 
ATOM     59  C   UNL     1       2.411  -5.594  24.561  0.00  0.00    +0.180 C 
ATOM     60  C   UNL     1       2.852  -6.651  25.581  0.00  0.00    +0.214 C 
BRANCH  60  61
ATOM     61  O   UNL     1       1.876  -7.723  25.505  0.00  0.00    -0.383 OA
ATOM     62  H   UNL     1       2.037  -8.182  24.651  0.00  0.00    +0.210 HD
ENDBRANCH  60  61
BRANCH  59  63
ATOM     63  O   UNL     1       2.876  -4.278  24.834  0.00  0.00    -0.386 OA
ATOM     64  H   UNL     1       2.727  -3.704  24.062  0.00  0.00    +0.210 HD
ENDBRANCH  59  63
BRANCH  58  65
ATOM     65  O   UNL     1       2.132  -7.244  22.814  0.00  0.00    -0.386 OA
ATOM     66  H   UNL     1       1.514  -7.438  23.544  0.00  0.00    +0.210 HD
ENDBRANCH  58  65
BRANCH  57  67
ATOM     67  C   UNL     1       5.178  -4.998  23.143  0.00  0.00    +0.190 C 
BRANCH  67  68
ATOM     68  O   UNL     1       5.027  -4.211  21.962  0.00  0.00    -0.392 OA
ATOM     69  H   UNL     1       4.451  -3.457  22.184  0.00  0.00    +0.210 HD
ENDBRANCH  67  68
ENDBRANCH  57  67
ENDBRANCH  54  55
ENDBRANCH   7  54
TORSDOF 24
ENDMDL
