MODEL 1
REMARK VINA RESULT:      -7.3      0.000      0.000
REMARK  Name = 
REMARK  8 active torsions:
REMARK  status: ('A' for Active; 'I' for Inactive)
REMARK    1  A    between atoms: C_4  and  O_29
REMARK    2  A    between atoms: C_6  and  C_7
REMARK    3  A    between atoms: C_8  and  O_24
REMARK    4  A    between atoms: C_12  and  O_23
REMARK    5  A    between atoms: C_14  and  O_18
REMARK    6  A    between atoms: O_18  and  S_19
REMARK    7  A    between atoms: O_24  and  S_25
REMARK    8  A    between atoms: O_29  and  S_30
REMARK                            x       y       z     vdW  Elec       q    Type
REMARK                         _______ _______ _______ _____ _____    ______ ____
ROOT
ATOM      1  C   UNL     1       6.501  -2.430  24.335  0.00  0.00    +0.184 A 
ATOM      2  O   UNL     1       6.160  -1.132  23.939  0.00  0.00    -0.451 OA
ATOM      3  C   UNL     1       7.019  -0.416  23.150  0.00  0.00    +0.147 A 
ATOM      4  C   UNL     1       8.222  -0.937  22.711  0.00  0.00    +0.109 A 
ATOM      5  C   UNL     1       9.076  -0.147  21.925  0.00  0.00    +0.135 A 
ATOM      6  C   UNL     1       8.730   1.157  21.575  0.00  0.00    +0.095 A 
ATOM      7  C   UNL     1       7.515   1.686  22.002  0.00  0.00    +0.162 A 
ATOM      8  C   UNL     1       8.594  -2.297  23.117  0.00  0.00    +0.241 A 
ATOM      9  O   UNL     1       9.705  -2.672  22.755  0.00  0.00    -0.283 OA
ATOM     10  C   UNL     1       6.663   0.897  22.798  0.00  0.00    +0.095 A 
ATOM     11  C   UNL     1       7.634  -3.075  23.961  0.00  0.00    +0.244 A 
ENDROOT
BRANCH   1  13
ATOM     12  C   UNL     1       5.469  -2.909  26.545  0.00  0.00    +0.011 A 
ATOM     13  C   UNL     1       5.406  -3.019  25.156  0.00  0.00    +0.025 A 
ATOM     14  C   UNL     1       4.414  -3.852  24.611  0.00  0.00    +0.059 A 
ATOM     15  C   UNL     1       3.552  -4.612  25.447  0.00  0.00    +0.148 A 
ATOM     16  C   UNL     1       3.632  -4.553  26.879  0.00  0.00    -0.062 A 
ATOM     17  O   UNL     1       2.916  -5.232  27.700  0.00  0.00    -0.871 OA
ATOM     18  C   UNL     1       4.609  -3.660  27.364  0.00  0.00    -0.004 A 
BRANCH  15  19
ATOM     19  O   UNL     1       2.567  -5.462  24.945  0.00  0.00    -0.361 OA
BRANCH  19  20
ATOM     20  S   UNL     1       2.805  -6.765  23.991  0.00  0.00    +0.042 S 
ATOM     21  O   UNL     1       2.862  -6.250  22.619  0.00  0.00    -0.259 OA
ATOM     22  O   UNL     1       1.632  -7.614  24.220  0.00  0.00    -0.336 OA
ATOM     23  O   UNL     1       4.054  -7.399  24.434  0.00  0.00    -0.336 OA
ENDBRANCH  19  20
ENDBRANCH  15  19
ENDBRANCH   1  13
BRANCH   5  24
ATOM     24  O   UNL     1      10.297  -0.594  21.475  0.00  0.00    -0.506 OA
ATOM     25  H   UNL     1      10.893   0.195  21.457  0.00  0.00    +0.292 HD
ENDBRANCH   5  24
BRANCH   7  26
ATOM     26  O   UNL     1       7.108   2.980  21.765  0.00  0.00    -0.360 OA
BRANCH  26  27
ATOM     27  S   UNL     1       7.354   4.220  22.818  0.00  0.00    +0.042 S 
ATOM     28  O   UNL     1       7.373   5.406  21.957  0.00  0.00    -0.259 OA
ATOM     29  O   UNL     1       8.644   3.939  23.448  0.00  0.00    -0.336 OA
ATOM     30  O   UNL     1       6.215   4.205  23.735  0.00  0.00    -0.336 OA
ENDBRANCH  26  27
ENDBRANCH   7  26
BRANCH  11  31
ATOM     31  O   UNL     1       7.907  -4.381  24.364  0.00  0.00    -0.353 OA
BRANCH  31  32
ATOM     32  S   UNL     1       8.774  -4.795  25.697  0.00  0.00    +0.043 S 
ATOM     33  O   UNL     1       8.872  -3.548  26.458  0.00  0.00    -0.259 OA
ATOM     34  O   UNL     1      10.076  -5.246  25.205  0.00  0.00    -0.336 OA
ATOM     35  O   UNL     1       7.971  -5.807  26.386  0.00  0.00    -0.336 OA
ENDBRANCH  31  32
ENDBRANCH  11  31
TORSDOF 8
ENDMDL
MODEL 2
REMARK VINA RESULT:      -7.3      2.221      3.399
REMARK  Name = 
REMARK  8 active torsions:
REMARK  status: ('A' for Active; 'I' for Inactive)
REMARK    1  A    between atoms: C_4  and  O_29
REMARK    2  A    between atoms: C_6  and  C_7
REMARK    3  A    between atoms: C_8  and  O_24
REMARK    4  A    between atoms: C_12  and  O_23
REMARK    5  A    between atoms: C_14  and  O_18
REMARK    6  A    between atoms: O_18  and  S_19
REMARK    7  A    between atoms: O_24  and  S_25
REMARK    8  A    between atoms: O_29  and  S_30
REMARK                            x       y       z     vdW  Elec       q    Type
REMARK                         _______ _______ _______ _____ _____    ______ ____
ROOT
ATOM      1  C   UNL     1       6.981  -2.541  24.865  0.00  0.00    +0.184 A 
ATOM      2  O   UNL     1       7.368  -1.233  25.176  0.00  0.00    -0.451 OA
ATOM      3  C   UNL     1       8.197  -0.550  24.327  0.00  0.00    +0.147 A 
ATOM      4  C   UNL     1       8.662  -1.106  23.150  0.00  0.00    +0.109 A 
ATOM      5  C   UNL     1       9.532  -0.368  22.330  0.00  0.00    +0.135 A 
ATOM      6  C   UNL     1       9.932   0.920  22.682  0.00  0.00    +0.095 A 
ATOM      7  C   UNL     1       9.458   1.491  23.859  0.00  0.00    +0.162 A 
ATOM      8  C   UNL     1       8.266  -2.476  22.809  0.00  0.00    +0.241 A 
ATOM      9  O   UNL     1       8.771  -2.934  21.789  0.00  0.00    -0.283 OA
ATOM     10  C   UNL     1       8.594   0.749  24.685  0.00  0.00    +0.095 A 
ATOM     11  C   UNL     1       7.342  -3.200  23.736  0.00  0.00    +0.244 A 
ENDROOT
BRANCH   1  13
ATOM     12  C   UNL     1       4.821  -2.450  26.091  0.00  0.00    +0.011 A 
ATOM     13  C   UNL     1       6.060  -3.065  25.911  0.00  0.00    +0.025 A 
ATOM     14  C   UNL     1       6.456  -4.024  26.859  0.00  0.00    +0.059 A 
ATOM     15  C   UNL     1       5.656  -4.303  28.000  0.00  0.00    +0.148 A 
ATOM     16  C   UNL     1       4.402  -3.645  28.231  0.00  0.00    -0.062 A 
ATOM     17  O   UNL     1       3.640  -3.816  29.251  0.00  0.00    -0.871 OA
ATOM     18  C   UNL     1       4.033  -2.736  27.218  0.00  0.00    -0.004 A 
BRANCH  15  19
ATOM     19  O   UNL     1       6.022  -5.234  28.972  0.00  0.00    -0.361 OA
BRANCH  19  20
ATOM     20  S   UNL     1       5.655  -6.824  28.978  0.00  0.00    +0.042 S 
ATOM     21  O   UNL     1       6.877  -7.515  29.400  0.00  0.00    -0.259 OA
ATOM     22  O   UNL     1       5.294  -7.129  27.589  0.00  0.00    -0.336 OA
ATOM     23  O   UNL     1       4.529  -7.002  29.903  0.00  0.00    -0.336 OA
ENDBRANCH  19  20
ENDBRANCH  15  19
ENDBRANCH   1  13
BRANCH   5  24
ATOM     24  O   UNL     1      10.051  -0.868  21.158  0.00  0.00    -0.506 OA
ATOM     25  H   UNL     1       9.496  -0.501  20.427  0.00  0.00    +0.292 HD
ENDBRANCH   5  24
BRANCH   7  26
ATOM     26  O   UNL     1       9.841   2.729  24.327  0.00  0.00    -0.360 OA
BRANCH  26  27
ATOM     27  S   UNL     1       8.932   4.089  24.156  0.00  0.00    +0.042 S 
ATOM     28  O   UNL     1       9.923   5.139  23.906  0.00  0.00    -0.259 OA
ATOM     29  O   UNL     1       8.230   4.245  25.429  0.00  0.00    -0.336 OA
ATOM     30  O   UNL     1       8.059   3.851  23.007  0.00  0.00    -0.336 OA
ENDBRANCH  26  27
ENDBRANCH   7  26
BRANCH  11  31
ATOM     31  O   UNL     1       6.901  -4.494  23.465  0.00  0.00    -0.353 OA
BRANCH  31  32
ATOM     32  S   UNL     1       5.722  -4.883  22.387  0.00  0.00    +0.043 S 
ATOM     33  O   UNL     1       4.982  -3.634  22.205  0.00  0.00    -0.259 OA
ATOM     34  O   UNL     1       4.912  -5.917  23.034  0.00  0.00    -0.336 OA
ATOM     35  O   UNL     1       6.425  -5.297  21.171  0.00  0.00    -0.336 OA
ENDBRANCH  31  32
ENDBRANCH  11  31
TORSDOF 8
ENDMDL
MODEL 3
REMARK VINA RESULT:      -7.3      2.265      3.431
REMARK  Name = 
REMARK  8 active torsions:
REMARK  status: ('A' for Active; 'I' for Inactive)
REMARK    1  A    between atoms: C_4  and  O_29
REMARK    2  A    between atoms: C_6  and  C_7
REMARK    3  A    between atoms: C_8  and  O_24
REMARK    4  A    between atoms: C_12  and  O_23
REMARK    5  A    between atoms: C_14  and  O_18
REMARK    6  A    between atoms: O_18  and  S_19
REMARK    7  A    between atoms: O_24  and  S_25
REMARK    8  A    between atoms: O_29  and  S_30
REMARK                            x       y       z     vdW  Elec       q    Type
REMARK                         _______ _______ _______ _____ _____    ______ ____
ROOT
ATOM      1  C   UNL     1       7.045  -2.450  24.879  0.00  0.00    +0.184 A 
ATOM      2  O   UNL     1       7.426  -1.141  25.191  0.00  0.00    -0.451 OA
ATOM      3  C   UNL     1       8.259  -0.456  24.346  0.00  0.00    +0.147 A 
ATOM      4  C   UNL     1       8.733  -1.013  23.173  0.00  0.00    +0.109 A 
ATOM      5  C   UNL     1       9.606  -0.274  22.357  0.00  0.00    +0.135 A 
ATOM      6  C   UNL     1      10.001   1.015  22.710  0.00  0.00    +0.095 A 
ATOM      7  C   UNL     1       9.518   1.587  23.882  0.00  0.00    +0.162 A 
ATOM      8  C   UNL     1       8.343  -2.385  22.831  0.00  0.00    +0.241 A 
ATOM      9  O   UNL     1       8.856  -2.844  21.815  0.00  0.00    -0.283 OA
ATOM     10  C   UNL     1       8.650   0.844  24.705  0.00  0.00    +0.095 A 
ATOM     11  C   UNL     1       7.414  -3.110  23.754  0.00  0.00    +0.244 A 
ENDROOT
BRANCH   1  13
ATOM     12  C   UNL     1       4.902  -2.325  26.132  0.00  0.00    +0.011 A 
ATOM     13  C   UNL     1       6.118  -2.975  25.920  0.00  0.00    +0.025 A 
ATOM     14  C   UNL     1       6.493  -3.973  26.835  0.00  0.00    +0.059 A 
ATOM     15  C   UNL     1       5.696  -4.260  27.977  0.00  0.00    +0.148 A 
ATOM     16  C   UNL     1       4.467  -3.569  28.242  0.00  0.00    -0.062 A 
ATOM     17  O   UNL     1       3.711  -3.744  29.265  0.00  0.00    -0.871 OA
ATOM     18  C   UNL     1       4.117  -2.619  27.260  0.00  0.00    -0.004 A 
BRANCH  15  19
ATOM     19  O   UNL     1       6.042  -5.230  28.917  0.00  0.00    -0.361 OA
BRANCH  19  20
ATOM     20  S   UNL     1       5.632  -6.810  28.875  0.00  0.00    +0.042 S 
ATOM     21  O   UNL     1       4.488  -6.949  29.782  0.00  0.00    -0.259 OA
ATOM     22  O   UNL     1       6.820  -7.517  29.363  0.00  0.00    -0.336 OA
ATOM     23  O   UNL     1       5.317  -7.135  27.478  0.00  0.00    -0.336 OA
ENDBRANCH  19  20
ENDBRANCH  15  19
ENDBRANCH   1  13
BRANCH   5  24
ATOM     24  O   UNL     1      10.135  -0.775  21.190  0.00  0.00    -0.506 OA
ATOM     25  H   UNL     1      10.036  -0.063  20.511  0.00  0.00    +0.292 HD
ENDBRANCH   5  24
BRANCH   7  26
ATOM     26  O   UNL     1       9.895   2.827  24.351  0.00  0.00    -0.360 OA
BRANCH  26  27
ATOM     27  S   UNL     1       9.012   4.196  24.119  0.00  0.00    +0.042 S 
ATOM     28  O   UNL     1       8.306   4.373  25.391  0.00  0.00    -0.259 OA
ATOM     29  O   UNL     1       8.123   3.894  22.998  0.00  0.00    -0.336 OA
ATOM     30  O   UNL     1       9.979   5.261  23.856  0.00  0.00    -0.336 OA
ENDBRANCH  26  27
ENDBRANCH   7  26
BRANCH  11  31
ATOM     31  O   UNL     1       6.978  -4.406  23.482  0.00  0.00    -0.353 OA
BRANCH  31  32
ATOM     32  S   UNL     1       5.923  -4.816  22.289  0.00  0.00    +0.043 S 
ATOM     33  O   UNL     1       4.962  -5.697  22.954  0.00  0.00    -0.259 OA
ATOM     34  O   UNL     1       6.714  -5.520  21.279  0.00  0.00    -0.336 OA
ATOM     35  O   UNL     1       5.317  -3.556  21.854  0.00  0.00    -0.336 OA
ENDBRANCH  31  32
ENDBRANCH  11  31
TORSDOF 8
ENDMDL
MODEL 4
REMARK VINA RESULT:      -7.3      2.328      7.854
REMARK  Name = 
REMARK  8 active torsions:
REMARK  status: ('A' for Active; 'I' for Inactive)
REMARK    1  A    between atoms: C_4  and  O_29
REMARK    2  A    between atoms: C_6  and  C_7
REMARK    3  A    between atoms: C_8  and  O_24
REMARK    4  A    between atoms: C_12  and  O_23
REMARK    5  A    between atoms: C_14  and  O_18
REMARK    6  A    between atoms: O_18  and  S_19
REMARK    7  A    between atoms: O_24  and  S_25
REMARK    8  A    between atoms: O_29  and  S_30
REMARK                            x       y       z     vdW  Elec       q    Type
REMARK                         _______ _______ _______ _____ _____    ______ ____
ROOT
ATOM      1  C   UNL     1       7.543  -0.704  22.867  0.00  0.00    +0.184 A 
ATOM      2  O   UNL     1       6.417  -1.513  22.677  0.00  0.00    -0.451 OA
ATOM      3  C   UNL     1       6.501  -2.859  22.912  0.00  0.00    +0.147 A 
ATOM      4  C   UNL     1       7.668  -3.457  23.347  0.00  0.00    +0.109 A 
ATOM      5  C   UNL     1       7.704  -4.848  23.546  0.00  0.00    +0.135 A 
ATOM      6  C   UNL     1       6.578  -5.636  23.314  0.00  0.00    +0.095 A 
ATOM      7  C   UNL     1       5.396  -5.040  22.887  0.00  0.00    +0.162 A 
ATOM      8  C   UNL     1       8.858  -2.624  23.551  0.00  0.00    +0.241 A 
ATOM      9  O   UNL     1       9.879  -3.227  23.867  0.00  0.00    -0.283 OA
ATOM     10  C   UNL     1       5.362  -3.648  22.679  0.00  0.00    +0.095 A 
ATOM     11  C   UNL     1       8.743  -1.151  23.313  0.00  0.00    +0.244 A 
ENDROOT
BRANCH   1  13
ATOM     12  C   UNL     1       8.003   1.438  21.694  0.00  0.00    +0.011 A 
ATOM     13  C   UNL     1       7.206   0.719  22.584  0.00  0.00    +0.025 A 
ATOM     14  C   UNL     1       6.242   1.430  23.318  0.00  0.00    +0.059 A 
ATOM     15  C   UNL     1       6.132   2.843  23.213  0.00  0.00    +0.148 A 
ATOM     16  C   UNL     1       6.976   3.609  22.341  0.00  0.00    -0.062 A 
ATOM     17  O   UNL     1       6.964   4.887  22.215  0.00  0.00    -0.871 OA
ATOM     18  C   UNL     1       7.884   2.835  21.591  0.00  0.00    -0.004 A 
BRANCH  15  19
ATOM     19  O   UNL     1       5.201   3.586  23.937  0.00  0.00    -0.361 OA
BRANCH  19  20
ATOM     20  S   UNL     1       3.592   3.648  23.670  0.00  0.00    +0.042 S 
ATOM     21  O   UNL     1       3.161   4.971  24.132  0.00  0.00    -0.259 OA
ATOM     22  O   UNL     1       3.037   2.564  24.487  0.00  0.00    -0.336 OA
ATOM     23  O   UNL     1       3.386   3.431  22.233  0.00  0.00    -0.336 OA
ENDBRANCH  19  20
ENDBRANCH  15  19
ENDBRANCH   1  13
BRANCH   5  24
ATOM     24  O   UNL     1       8.838  -5.511  23.955  0.00  0.00    -0.506 OA
ATOM     25  H   UNL     1       8.586  -6.022  24.763  0.00  0.00    +0.292 HD
ENDBRANCH   5  24
BRANCH   7  26
ATOM     26  O   UNL     1       4.249  -5.734  22.570  0.00  0.00    -0.360 OA
BRANCH  26  27
ATOM     27  S   UNL     1       3.187  -6.300  23.692  0.00  0.00    +0.042 S 
ATOM     28  O   UNL     1       3.800  -7.549  24.151  0.00  0.00    -0.259 OA
ATOM     29  O   UNL     1       1.933  -6.501  22.967  0.00  0.00    -0.336 OA
ATOM     30  O   UNL     1       3.125  -5.282  24.740  0.00  0.00    -0.336 OA
ENDBRANCH  26  27
ENDBRANCH   7  26
BRANCH  11  31
ATOM     31  O   UNL     1       9.823  -0.293  23.510  0.00  0.00    -0.353 OA
BRANCH  31  32
ATOM     32  S   UNL     1      10.139   0.521  24.904  0.00  0.00    +0.043 S 
ATOM     33  O   UNL     1      11.599   0.618  24.935  0.00  0.00    -0.259 OA
ATOM     34  O   UNL     1       9.617  -0.316  25.984  0.00  0.00    -0.336 OA
ATOM     35  O   UNL     1       9.496   1.827  24.747  0.00  0.00    -0.336 OA
ENDBRANCH  31  32
ENDBRANCH  11  31
TORSDOF 8
ENDMDL
MODEL 5
REMARK VINA RESULT:      -7.1      2.849      8.542
REMARK  Name = 
REMARK  8 active torsions:
REMARK  status: ('A' for Active; 'I' for Inactive)
REMARK    1  A    between atoms: C_4  and  O_29
REMARK    2  A    between atoms: C_6  and  C_7
REMARK    3  A    between atoms: C_8  and  O_24
REMARK    4  A    between atoms: C_12  and  O_23
REMARK    5  A    between atoms: C_14  and  O_18
REMARK    6  A    between atoms: O_18  and  S_19
REMARK    7  A    between atoms: O_24  and  S_25
REMARK    8  A    between atoms: O_29  and  S_30
REMARK                            x       y       z     vdW  Elec       q    Type
REMARK                         _______ _______ _______ _____ _____    ______ ____
ROOT
ATOM      1  C   UNL     1       7.251  -0.602  24.843  0.00  0.00    +0.184 A 
ATOM      2  O   UNL     1       7.199  -1.469  25.940  0.00  0.00    -0.451 OA
ATOM      3  C   UNL     1       7.445  -2.804  25.763  0.00  0.00    +0.147 A 
ATOM      4  C   UNL     1       7.759  -3.335  24.525  0.00  0.00    +0.109 A 
ATOM      5  C   UNL     1       7.975  -4.718  24.397  0.00  0.00    +0.135 A 
ATOM      6  C   UNL     1       7.881  -5.565  25.500  0.00  0.00    +0.095 A 
ATOM      7  C   UNL     1       7.577  -5.037  26.751  0.00  0.00    +0.162 A 
ATOM      8  C   UNL     1       7.817  -2.440  23.365  0.00  0.00    +0.241 A 
ATOM      9  O   UNL     1       8.029  -2.985  22.286  0.00  0.00    -0.283 OA
ATOM     10  C   UNL     1       7.352  -3.653  26.878  0.00  0.00    +0.095 A 
ATOM     11  C   UNL     1       7.569  -0.980  23.580  0.00  0.00    +0.244 A 
ENDROOT
BRANCH   1  13
ATOM     12  C   UNL     1       5.667   1.190  25.515  0.00  0.00    +0.011 A 
ATOM     13  C   UNL     1       6.984   0.796  25.282  0.00  0.00    +0.025 A 
ATOM     14  C   UNL     1       7.974   1.792  25.283  0.00  0.00    +0.059 A 
ATOM     15  C   UNL     1       7.636   3.164  25.442  0.00  0.00    +0.148 A 
ATOM     16  C   UNL     1       6.282   3.598  25.633  0.00  0.00    -0.062 A 
ATOM     17  O   UNL     1       5.892   4.816  25.750  0.00  0.00    -0.871 OA
ATOM     18  C   UNL     1       5.342   2.548  25.679  0.00  0.00    -0.004 A 
BRANCH  15  19
ATOM     19  O   UNL     1       8.587   4.184  25.431  0.00  0.00    -0.361 OA
BRANCH  19  20
ATOM     20  S   UNL     1       9.294   4.836  24.112  0.00  0.00    +0.042 S 
ATOM     21  O   UNL     1       8.229   4.967  23.112  0.00  0.00    -0.259 OA
ATOM     22  O   UNL     1      10.314   3.860  23.715  0.00  0.00    -0.336 OA
ATOM     23  O   UNL     1       9.873   6.120  24.526  0.00  0.00    -0.336 OA
ENDBRANCH  19  20
ENDBRANCH  15  19
ENDBRANCH   1  13
BRANCH   5  24
ATOM     24  O   UNL     1       8.267  -5.315  23.193  0.00  0.00    -0.506 OA
ATOM     25  H   UNL     1       9.066  -4.852  22.838  0.00  0.00    +0.292 HD
ENDBRANCH   5  24
BRANCH   7  26
ATOM     26  O   UNL     1       7.399  -5.794  27.888  0.00  0.00    -0.360 OA
BRANCH  26  27
ATOM     27  S   UNL     1       5.927  -6.116  28.547  0.00  0.00    +0.042 S 
ATOM     28  O   UNL     1       5.974  -7.555  28.815  0.00  0.00    -0.259 OA
ATOM     29  O   UNL     1       4.956  -5.749  27.517  0.00  0.00    -0.336 OA
ATOM     30  O   UNL     1       5.846  -5.315  29.769  0.00  0.00    -0.336 OA
ENDBRANCH  26  27
ENDBRANCH   7  26
BRANCH  11  31
ATOM     31  O   UNL     1       7.634  -0.066  22.531  0.00  0.00    -0.353 OA
BRANCH  31  32
ATOM     32  S   UNL     1       9.022   0.517  21.870  0.00  0.00    +0.043 S 
ATOM     33  O   UNL     1       8.691   1.896  21.509  0.00  0.00    -0.259 OA
ATOM     34  O   UNL     1       9.287  -0.314  20.696  0.00  0.00    -0.336 OA
ATOM     35  O   UNL     1      10.022   0.445  22.938  0.00  0.00    -0.336 OA
ENDBRANCH  31  32
ENDBRANCH  11  31
TORSDOF 8
ENDMDL
MODEL 6
REMARK VINA RESULT:      -7.1      1.594      2.246
REMARK  Name = 
REMARK  8 active torsions:
REMARK  status: ('A' for Active; 'I' for Inactive)
REMARK    1  A    between atoms: C_4  and  O_29
REMARK    2  A    between atoms: C_6  and  C_7
REMARK    3  A    between atoms: C_8  and  O_24
REMARK    4  A    between atoms: C_12  and  O_23
REMARK    5  A    between atoms: C_14  and  O_18
REMARK    6  A    between atoms: O_18  and  S_19
REMARK    7  A    between atoms: O_24  and  S_25
REMARK    8  A    between atoms: O_29  and  S_30
REMARK                            x       y       z     vdW  Elec       q    Type
REMARK                         _______ _______ _______ _____ _____    ______ ____
ROOT
ATOM      1  C   UNL     1       6.643  -2.691  24.067  0.00  0.00    +0.184 A 
ATOM      2  O   UNL     1       6.220  -1.411  23.695  0.00  0.00    -0.451 OA
ATOM      3  C   UNL     1       7.079  -0.579  23.029  0.00  0.00    +0.147 A 
ATOM      4  C   UNL     1       8.363  -0.965  22.693  0.00  0.00    +0.109 A 
ATOM      5  C   UNL     1       9.211  -0.060  22.032  0.00  0.00    +0.135 A 
ATOM      6  C   UNL     1       8.776   1.224  21.706  0.00  0.00    +0.095 A 
ATOM      7  C   UNL     1       7.481   1.616  22.030  0.00  0.00    +0.162 A 
ATOM      8  C   UNL     1       8.823  -2.304  23.075  0.00  0.00    +0.241 A 
ATOM      9  O   UNL     1       9.994  -2.557  22.812  0.00  0.00    -0.283 OA
ATOM     10  C   UNL     1       6.635   0.713  22.699  0.00  0.00    +0.095 A 
ATOM     11  C   UNL     1       7.864  -3.209  23.783  0.00  0.00    +0.244 A 
ENDROOT
BRANCH   1  13
ATOM     12  C   UNL     1       4.295  -3.504  24.113  0.00  0.00    +0.011 A 
ATOM     13  C   UNL     1       5.536  -3.420  24.746  0.00  0.00    +0.025 A 
ATOM     14  C   UNL     1       5.620  -3.857  26.078  0.00  0.00    +0.059 A 
ATOM     15  C   UNL     1       4.467  -4.300  26.781  0.00  0.00    +0.148 A 
ATOM     16  C   UNL     1       3.171  -4.348  26.165  0.00  0.00    -0.062 A 
ATOM     17  O   UNL     1       2.078  -4.702  26.740  0.00  0.00    -0.871 OA
ATOM     18  C   UNL     1       3.161  -3.950  24.813  0.00  0.00    -0.004 A 
BRANCH  15  19
ATOM     19  O   UNL     1       4.506  -4.725  28.109  0.00  0.00    -0.361 OA
BRANCH  19  20
ATOM     20  S   UNL     1       5.237  -6.070  28.674  0.00  0.00    +0.042 S 
ATOM     21  O   UNL     1       5.254  -7.017  27.554  0.00  0.00    -0.259 OA
ATOM     22  O   UNL     1       4.381  -6.525  29.775  0.00  0.00    -0.336 OA
ATOM     23  O   UNL     1       6.575  -5.673  29.129  0.00  0.00    -0.336 OA
ENDBRANCH  19  20
ENDBRANCH  15  19
ENDBRANCH   1  13
BRANCH   5  24
ATOM     24  O   UNL     1      10.506  -0.369  21.690  0.00  0.00    -0.506 OA
ATOM     25  H   UNL     1      10.484  -0.654  20.744  0.00  0.00    +0.292 HD
ENDBRANCH   5  24
BRANCH   7  26
ATOM     26  O   UNL     1       6.977   2.879  21.808  0.00  0.00    -0.360 OA
BRANCH  26  27
ATOM     27  S   UNL     1       7.201   4.143  22.837  0.00  0.00    +0.042 S 
ATOM     28  O   UNL     1       7.240   5.309  21.950  0.00  0.00    -0.259 OA
ATOM     29  O   UNL     1       8.476   3.876  23.501  0.00  0.00    -0.336 OA
ATOM     30  O   UNL     1       6.042   4.150  23.730  0.00  0.00    -0.336 OA
ENDBRANCH  26  27
ENDBRANCH   7  26
BRANCH  11  31
ATOM     31  O   UNL     1       8.220  -4.505  24.154  0.00  0.00    -0.353 OA
BRANCH  31  32
ATOM     32  S   UNL     1       9.031  -4.903  25.528  0.00  0.00    +0.043 S 
ATOM     33  O   UNL     1       9.005  -3.675  26.323  0.00  0.00    -0.259 OA
ATOM     34  O   UNL     1      10.386  -5.259  25.105  0.00  0.00    -0.336 OA
ATOM     35  O   UNL     1       8.254  -5.982  26.141  0.00  0.00    -0.336 OA
ENDBRANCH  31  32
ENDBRANCH  11  31
TORSDOF 8
ENDMDL
MODEL 7
REMARK VINA RESULT:      -6.9      2.084      2.737
REMARK  Name = 
REMARK  8 active torsions:
REMARK  status: ('A' for Active; 'I' for Inactive)
REMARK    1  A    between atoms: C_4  and  O_29
REMARK    2  A    between atoms: C_6  and  C_7
REMARK    3  A    between atoms: C_8  and  O_24
REMARK    4  A    between atoms: C_12  and  O_23
REMARK    5  A    between atoms: C_14  and  O_18
REMARK    6  A    between atoms: O_18  and  S_19
REMARK    7  A    between atoms: O_24  and  S_25
REMARK    8  A    between atoms: O_29  and  S_30
REMARK                            x       y       z     vdW  Elec       q    Type
REMARK                         _______ _______ _______ _____ _____    ______ ____
ROOT
ATOM      1  C   UNL     1       7.423  -2.930  24.739  0.00  0.00    +0.184 A 
ATOM      2  O   UNL     1       7.506  -1.638  25.271  0.00  0.00    -0.451 OA
ATOM      3  C   UNL     1       8.012  -0.621  24.507  0.00  0.00    +0.147 A 
ATOM      4  C   UNL     1       8.437  -0.820  23.207  0.00  0.00    +0.109 A 
ATOM      5  C   UNL     1       8.972   0.256  22.478  0.00  0.00    +0.135 A 
ATOM      6  C   UNL     1       9.079   1.525  23.045  0.00  0.00    +0.095 A 
ATOM      7  C   UNL     1       8.642   1.737  24.349  0.00  0.00    +0.162 A 
ATOM      8  C   UNL     1       8.356  -2.167  22.634  0.00  0.00    +0.241 A 
ATOM      9  O   UNL     1       8.817  -2.290  21.503  0.00  0.00    -0.283 OA
ATOM     10  C   UNL     1       8.114   0.657  25.082  0.00  0.00    +0.095 A 
ATOM     11  C   UNL     1       7.780  -3.263  23.474  0.00  0.00    +0.244 A 
ENDROOT
BRANCH   1  13
ATOM     12  C   UNL     1       7.652  -4.570  26.592  0.00  0.00    +0.011 A 
ATOM     13  C   UNL     1       6.815  -3.855  25.735  0.00  0.00    +0.025 A 
ATOM     14  C   UNL     1       5.452  -4.194  25.722  0.00  0.00    +0.059 A 
ATOM     15  C   UNL     1       4.956  -5.275  26.500  0.00  0.00    +0.148 A 
ATOM     16  C   UNL     1       5.808  -6.055  27.351  0.00  0.00    -0.062 A 
ATOM     17  O   UNL     1       5.444  -7.065  28.056  0.00  0.00    -0.871 OA
ATOM     18  C   UNL     1       7.152  -5.632  27.363  0.00  0.00    -0.004 A 
BRANCH  15  19
ATOM     19  O   UNL     1       3.613  -5.654  26.501  0.00  0.00    -0.361 OA
BRANCH  19  20
ATOM     20  S   UNL     1       2.865  -6.574  25.380  0.00  0.00    +0.042 S 
ATOM     21  O   UNL     1       1.635  -7.057  26.016  0.00  0.00    -0.259 OA
ATOM     22  O   UNL     1       3.809  -7.659  25.098  0.00  0.00    -0.336 OA
ATOM     23  O   UNL     1       2.625  -5.718  24.212  0.00  0.00    -0.336 OA
ENDBRANCH  19  20
ENDBRANCH  15  19
ENDBRANCH   1  13
BRANCH   5  24
ATOM     24  O   UNL     1       9.436   0.123  21.190  0.00  0.00    -0.506 OA
ATOM     25  H   UNL     1       9.230   0.974  20.730  0.00  0.00    +0.292 HD
ENDBRANCH   5  24
BRANCH   7  26
ATOM     26  O   UNL     1       8.760   2.934  25.021  0.00  0.00    -0.360 OA
BRANCH  26  27
ATOM     27  S   UNL     1       7.982   4.311  24.572  0.00  0.00    +0.042 S 
ATOM     28  O   UNL     1       7.905   5.086  25.813  0.00  0.00    -0.259 OA
ATOM     29  O   UNL     1       6.676   3.872  24.080  0.00  0.00    -0.336 OA
ATOM     30  O   UNL     1       8.829   4.944  23.561  0.00  0.00    -0.336 OA
ENDBRANCH  26  27
ENDBRANCH   7  26
BRANCH  11  31
ATOM     31  O   UNL     1       7.647  -4.563  22.988  0.00  0.00    -0.353 OA
BRANCH  31  32
ATOM     32  S   UNL     1       6.337  -5.139  22.179  0.00  0.00    +0.043 S 
ATOM     33  O   UNL     1       5.483  -3.963  22.005  0.00  0.00    -0.259 OA
ATOM     34  O   UNL     1       5.729  -6.138  23.058  0.00  0.00    -0.336 OA
ATOM     35  O   UNL     1       6.856  -5.644  20.906  0.00  0.00    -0.336 OA
ENDBRANCH  31  32
ENDBRANCH  11  31
TORSDOF 8
ENDMDL
MODEL 8
REMARK VINA RESULT:      -6.7      3.025      8.609
REMARK  Name = 
REMARK  8 active torsions:
REMARK  status: ('A' for Active; 'I' for Inactive)
REMARK    1  A    between atoms: C_4  and  O_29
REMARK    2  A    between atoms: C_6  and  C_7
REMARK    3  A    between atoms: C_8  and  O_24
REMARK    4  A    between atoms: C_12  and  O_23
REMARK    5  A    between atoms: C_14  and  O_18
REMARK    6  A    between atoms: O_18  and  S_19
REMARK    7  A    between atoms: O_24  and  S_25
REMARK    8  A    between atoms: O_29  and  S_30
REMARK                            x       y       z     vdW  Elec       q    Type
REMARK                         _______ _______ _______ _____ _____    ______ ____
ROOT
ATOM      1  C   UNL     1       7.684  -0.879  25.157  0.00  0.00    +0.184 A 
ATOM      2  O   UNL     1       6.769  -1.533  25.989  0.00  0.00    -0.451 OA
ATOM      3  C   UNL     1       6.958  -2.852  26.302  0.00  0.00    +0.147 A 
ATOM      4  C   UNL     1       8.041  -3.571  25.831  0.00  0.00    +0.109 A 
ATOM      5  C   UNL     1       8.170  -4.930  26.163  0.00  0.00    +0.135 A 
ATOM      6  C   UNL     1       7.224  -5.567  26.963  0.00  0.00    +0.095 A 
ATOM      7  C   UNL     1       6.137  -4.848  27.452  0.00  0.00    +0.162 A 
ATOM      8  C   UNL     1       9.009  -2.901  24.957  0.00  0.00    +0.241 A 
ATOM      9  O   UNL     1       9.906  -3.613  24.516  0.00  0.00    -0.283 OA
ATOM     10  C   UNL     1       6.003  -3.488  27.113  0.00  0.00    +0.095 A 
ATOM     11  C   UNL     1       8.801  -1.452  24.644  0.00  0.00    +0.244 A 
ENDROOT
BRANCH   1  13
ATOM     12  C   UNL     1       6.760   0.960  23.765  0.00  0.00    +0.011 A 
ATOM     13  C   UNL     1       7.292   0.548  24.986  0.00  0.00    +0.025 A 
ATOM     14  C   UNL     1       7.616   1.541  25.927  0.00  0.00    +0.059 A 
ATOM     15  C   UNL     1       7.473   2.920  25.617  0.00  0.00    +0.148 A 
ATOM     16  C   UNL     1       6.974   3.369  24.348  0.00  0.00    -0.062 A 
ATOM     17  O   UNL     1       6.849   4.593  23.980  0.00  0.00    -0.871 OA
ATOM     18  C   UNL     1       6.616   2.327  23.469  0.00  0.00    -0.004 A 
BRANCH  15  19
ATOM     19  O   UNL     1       7.799   3.936  26.515  0.00  0.00    -0.361 OA
BRANCH  19  20
ATOM     20  S   UNL     1       6.815   4.581  27.647  0.00  0.00    +0.042 S 
ATOM     21  O   UNL     1       5.495   3.987  27.413  0.00  0.00    -0.259 OA
ATOM     22  O   UNL     1       6.833   6.023  27.378  0.00  0.00    -0.336 OA
ATOM     23  O   UNL     1       7.388   4.245  28.956  0.00  0.00    -0.336 OA
ENDBRANCH  19  20
ENDBRANCH  15  19
ENDBRANCH   1  13
BRANCH   5  24
ATOM     24  O   UNL     1       9.208  -5.710  25.709  0.00  0.00    -0.506 OA
ATOM     25  H   UNL     1       9.662  -5.186  25.003  0.00  0.00    +0.292 HD
ENDBRANCH   5  24
BRANCH   7  26
ATOM     26  O   UNL     1       5.117  -5.397  28.197  0.00  0.00    -0.360 OA
BRANCH  26  27
ATOM     27  S   UNL     1       5.362  -6.383  29.491  0.00  0.00    +0.042 S 
ATOM     28  O   UNL     1       5.857  -7.625  28.891  0.00  0.00    -0.259 OA
ATOM     29  O   UNL     1       4.049  -6.525  30.120  0.00  0.00    -0.336 OA
ATOM     30  O   UNL     1       6.364  -5.717  30.323  0.00  0.00    -0.336 OA
ENDBRANCH  26  27
ENDBRANCH   7  26
BRANCH  11  31
ATOM     31  O   UNL     1       9.693  -0.742  23.843  0.00  0.00    -0.353 OA
BRANCH  31  32
ATOM     32  S   UNL     1       9.819  -0.891  22.210  0.00  0.00    +0.043 S 
ATOM     33  O   UNL     1       8.574  -1.552  21.818  0.00  0.00    -0.259 OA
ATOM     34  O   UNL     1      10.992  -1.733  21.974  0.00  0.00    -0.336 OA
ATOM     35  O   UNL     1       9.908   0.479  21.700  0.00  0.00    -0.336 OA
ENDBRANCH  31  32
ENDBRANCH  11  31
TORSDOF 8
ENDMDL
MODEL 9
REMARK VINA RESULT:      -6.6      2.755      7.753
REMARK  Name = 
REMARK  8 active torsions:
REMARK  status: ('A' for Active; 'I' for Inactive)
REMARK    1  A    between atoms: C_4  and  O_29
REMARK    2  A    between atoms: C_6  and  C_7
REMARK    3  A    between atoms: C_8  and  O_24
REMARK    4  A    between atoms: C_12  and  O_23
REMARK    5  A    between atoms: C_14  and  O_18
REMARK    6  A    between atoms: O_18  and  S_19
REMARK    7  A    between atoms: O_24  and  S_25
REMARK    8  A    between atoms: O_29  and  S_30
REMARK                            x       y       z     vdW  Elec       q    Type
REMARK                         _______ _______ _______ _____ _____    ______ ____
ROOT
ATOM      1  C   UNL     1       7.226  -0.614  24.002  0.00  0.00    +0.184 A 
ATOM      2  O   UNL     1       6.444  -1.588  24.632  0.00  0.00    -0.451 OA
ATOM      3  C   UNL     1       7.002  -2.790  24.974  0.00  0.00    +0.147 A 
ATOM      4  C   UNL     1       8.332  -3.079  24.728  0.00  0.00    +0.109 A 
ATOM      5  C   UNL     1       8.845  -4.340  25.076  0.00  0.00    +0.135 A 
ATOM      6  C   UNL     1       8.034  -5.306  25.670  0.00  0.00    +0.095 A 
ATOM      7  C   UNL     1       6.698  -5.019  25.932  0.00  0.00    +0.162 A 
ATOM      8  C   UNL     1       9.165  -2.070  24.068  0.00  0.00    +0.241 A 
ATOM      9  O   UNL     1      10.315  -2.416  23.813  0.00  0.00    -0.283 OA
ATOM     10  C   UNL     1       6.182  -3.759  25.575  0.00  0.00    +0.095 A 
ATOM     11  C   UNL     1       8.546  -0.752  23.722  0.00  0.00    +0.244 A 
ENDROOT
BRANCH   1  13
ATOM     12  C   UNL     1       6.639   1.348  22.594  0.00  0.00    +0.011 A 
ATOM     13  C   UNL     1       6.418   0.613  23.758  0.00  0.00    +0.025 A 
ATOM     14  C   UNL     1       5.582   1.177  24.737  0.00  0.00    +0.059 A 
ATOM     15  C   UNL     1       5.040   2.481  24.578  0.00  0.00    +0.148 A 
ATOM     16  C   UNL     1       5.295   3.275  23.410  0.00  0.00    -0.062 A 
ATOM     17  O   UNL     1       4.872   4.471  23.207  0.00  0.00    -0.871 OA
ATOM     18  C   UNL     1       6.094   2.634  22.441  0.00  0.00    -0.004 A 
BRANCH  15  19
ATOM     19  O   UNL     1       4.220   3.082  25.533  0.00  0.00    -0.361 OA
BRANCH  19  20
ATOM     20  S   UNL     1       2.615   2.853  25.714  0.00  0.00    +0.042 S 
ATOM     21  O   UNL     1       2.143   3.968  26.541  0.00  0.00    -0.259 OA
ATOM     22  O   UNL     1       2.497   1.562  26.400  0.00  0.00    -0.336 OA
ATOM     23  O   UNL     1       2.029   2.830  24.368  0.00  0.00    -0.336 OA
ENDBRANCH  19  20
ENDBRANCH  15  19
ENDBRANCH   1  13
BRANCH   5  24
ATOM     24  O   UNL     1      10.150  -4.702  24.838  0.00  0.00    -0.506 OA
ATOM     25  H   UNL     1      10.167  -5.109  23.937  0.00  0.00    +0.292 HD
ENDBRANCH   5  24
BRANCH   7  26
ATOM     26  O   UNL     1       5.800  -5.923  26.456  0.00  0.00    -0.360 OA
BRANCH  26  27
ATOM     27  S   UNL     1       5.537  -6.115  28.069  0.00  0.00    +0.042 S 
ATOM     28  O   UNL     1       4.130  -5.739  28.237  0.00  0.00    -0.259 OA
ATOM     29  O   UNL     1       6.466  -5.194  28.722  0.00  0.00    -0.336 OA
ATOM     30  O   UNL     1       5.783  -7.528  28.354  0.00  0.00    -0.336 OA
ENDBRANCH  26  27
ENDBRANCH   7  26
BRANCH  11  31
ATOM     31  O   UNL     1       9.282   0.265  23.117  0.00  0.00    -0.353 OA
BRANCH  31  32
ATOM     32  S   UNL     1      10.123   1.427  23.921  0.00  0.00    +0.043 S 
ATOM     33  O   UNL     1      11.249   0.704  24.513  0.00  0.00    -0.259 OA
ATOM     34  O   UNL     1       9.209   1.955  24.935  0.00  0.00    -0.336 OA
ATOM     35  O   UNL     1      10.550   2.380  22.894  0.00  0.00    -0.336 OA
ENDBRANCH  31  32
ENDBRANCH  11  31
TORSDOF 8
ENDMDL
