MODEL 1
REMARK VINA RESULT:      -6.4      0.000      0.000
REMARK  Name = 
REMARK  22 active torsions:
REMARK  status: ('A' for Active; 'I' for Inactive)
REMARK    1  A    between atoms: C_1  and  O_2
REMARK    2  A    between atoms: O_2  and  C_3
REMARK    3  A    between atoms: C_4  and  O_62
REMARK    4  A    between atoms: C_7  and  C_9
REMARK    5  A    between atoms: C_10  and  C_11
REMARK    6  A    between atoms: C_11  and  O_13
REMARK    7  A    between atoms: O_13  and  C_14
REMARK    8  A    between atoms: C_14  and  C_15
REMARK    9  A    between atoms: C_17  and  O_61
REMARK   10  A    between atoms: C_19  and  O_49
REMARK   11  A    between atoms: C_21  and  O_48
REMARK   12  A    between atoms: C_23  and  O_26
REMARK   13  A    between atoms: O_26  and  C_27
REMARK   14  A    between atoms: C_28  and  C_40
REMARK   15  A    between atoms: C_32  and  O_39
REMARK   16  A    between atoms: C_34  and  O_38
REMARK   17  A    between atoms: C_42  and  O_47
REMARK   18  A    between atoms: C_43  and  O_46
REMARK   19  A    between atoms: O_49  and  C_50
REMARK   20  A    between atoms: C_50  and  C_52
REMARK   21  A    between atoms: C_53  and  C_54
REMARK   22  A    between atoms: C_57  and  O_60
REMARK                            x       y       z     vdW  Elec       q    Type
REMARK                         _______ _______ _______ _____ _____    ______ ____
ROOT
ATOM      1  C   UNL     1       4.892  -3.085  28.633  0.00  0.00    +0.192 C 
ATOM      2  O   UNL     1       5.358  -2.900  27.288  0.00  0.00    -0.330 OA
ATOM      3  C   UNL     1       5.138  -1.565  26.811  0.00  0.00    +0.341 C 
ATOM      4  C   UNL     1       3.624  -1.259  26.781  0.00  0.00    +0.226 C 
ATOM      5  C   UNL     1       3.062  -1.431  28.190  0.00  0.00    +0.242 C 
ATOM      6  C   UNL     1       3.369  -2.839  28.717  0.00  0.00    +0.190 C 
ENDROOT
BRANCH   6   7
ATOM      7  O   UNL     1       2.884  -2.935  30.059  0.00  0.00    -0.385 OA
ATOM      8  H   UNL     1       2.371  -2.128  30.244  0.00  0.00    +0.210 HD
ENDBRANCH   6   7
BRANCH   4   9
ATOM      9  O   UNL     1       3.338   0.054  26.274  0.00  0.00    -0.382 OA
ATOM     10  H   UNL     1       2.503   0.363  26.673  0.00  0.00    +0.210 HD
ENDBRANCH   4   9
BRANCH   1  11
ATOM     11  C   UNL     1       5.271  -4.510  29.065  0.00  0.00    +0.266 C 
BRANCH  11  12
ATOM     12  O   UNL     1       4.551  -5.517  28.335  0.00  0.00    -0.459 OA
BRANCH  12  13
ATOM     13  C   UNL     1       5.277  -6.620  28.010  0.00  0.00    +0.332 C 
ATOM     14  O   UNL     1       5.582  -7.532  28.756  0.00  0.00    -0.246 OA
BRANCH  13  16
ATOM     15  C   UNL     1       4.940  -5.693  25.772  0.00  0.00    +0.015 C 
ATOM     16  C   UNL     1       5.615  -6.528  26.578  0.00  0.00    +0.092 C 
BRANCH  15  19
ATOM     17  C   UNL     1       5.394  -4.132  22.344  0.00  0.00    +0.162 A 
ATOM     18  C   UNL     1       5.121  -4.269  23.706  0.00  0.00    +0.057 A 
ATOM     19  C   UNL     1       5.236  -5.517  24.341  0.00  0.00    -0.021 A 
ATOM     20  C   UNL     1       5.674  -6.620  23.593  0.00  0.00    +0.012 A 
ATOM     21  C   UNL     1       5.934  -6.494  22.226  0.00  0.00    +0.050 A 
ATOM     22  C   UNL     1       5.775  -5.259  21.612  0.00  0.00    +0.158 A 
BRANCH  22  23
ATOM     23  O   UNL     1       6.017  -5.165  20.270  0.00  0.00    -0.503 OA
ATOM     24  H   UNL     1       5.394  -5.791  19.853  0.00  0.00    +0.292 HD
ENDBRANCH  22  23
BRANCH  17  26
ATOM     25  C   UNL     1       6.373  -2.050  21.814  0.00  0.00    +0.277 C 
ATOM     26  O   UNL     1       5.291  -2.961  21.636  0.00  0.00    -0.491 OA
ENDBRANCH  17  26
ENDBRANCH  15  19
ENDBRANCH  13  16
ENDBRANCH  12  13
ENDBRANCH  11  12
ENDBRANCH   1  11
BRANCH   5  27
ATOM     27  O   UNL     1       1.632  -1.229  28.160  0.00  0.00    -0.453 OA
BRANCH  27  28
ATOM     28  C   UNL     1       1.042  -1.491  26.966  0.00  0.00    +0.332 C 
ATOM     29  O   UNL     1       0.443  -0.698  26.257  0.00  0.00    -0.246 OA
BRANCH  28  30
ATOM     30  C   UNL     1       1.251  -2.913  26.646  0.00  0.00    +0.092 C 
ATOM     31  C   UNL     1       1.224  -3.309  25.364  0.00  0.00    +0.015 C 
BRANCH  31  32
ATOM     32  C   UNL     1       1.451  -4.697  24.937  0.00  0.00    -0.025 A 
ATOM     33  C   UNL     1       1.631  -4.969  23.574  0.00  0.00    +0.011 A 
ATOM     34  C   UNL     1       1.855  -6.276  23.136  0.00  0.00    +0.046 A 
ATOM     35  C   UNL     1       1.887  -7.314  24.056  0.00  0.00    +0.117 A 
ATOM     36  C   UNL     1       1.672  -7.073  25.408  0.00  0.00    +0.046 A 
ATOM     37  C   UNL     1       1.445  -5.766  25.845  0.00  0.00    +0.011 A 
BRANCH  35  38
ATOM     38  O   UNL     1       2.138  -8.571  23.592  0.00  0.00    -0.507 OA
ATOM     39  H   UNL     1       2.747  -9.010  24.207  0.00  0.00    +0.292 HD
ENDBRANCH  35  38
ENDBRANCH  31  32
ENDBRANCH  28  30
ENDBRANCH  27  28
ENDBRANCH   5  27
BRANCH   3  40
ATOM     40  O   UNL     1       5.581  -1.457  25.459  0.00  0.00    -0.453 OA
BRANCH  40  41
ATOM     41  C   UNL     1       6.607  -0.593  25.134  0.00  0.00    +0.214 A 
ATOM     42  C   UNL     1       6.330   0.832  24.791  0.00  0.00    +0.238 A 
ATOM     43  O   UNL     1       5.181   1.220  24.603  0.00  0.00    -0.283 OA
ATOM     44  C   UNL     1       7.494   1.715  24.600  0.00  0.00    +0.109 A 
ATOM     45  C   UNL     1       8.749   1.117  24.494  0.00  0.00    +0.147 A 
ATOM     46  C   UNL     1       9.882   1.899  24.244  0.00  0.00    +0.092 A 
ATOM     47  C   UNL     1       9.743   3.278  24.103  0.00  0.00    +0.124 A 
ATOM     48  C   UNL     1       8.501   3.889  24.217  0.00  0.00    +0.091 A 
ATOM     49  O   UNL     1       8.943  -0.241  24.600  0.00  0.00    -0.451 OA
ATOM     50  C   UNL     1       7.375   3.107  24.471  0.00  0.00    +0.135 A 
ATOM     51  C   UNL     1       7.864  -1.054  24.936  0.00  0.00    +0.181 A 
BRANCH  51  52
ATOM     52  C   UNL     1       8.216  -2.504  25.045  0.00  0.00    +0.025 A 
ATOM     53  C   UNL     1       8.550  -3.257  23.902  0.00  0.00    +0.015 A 
ATOM     54  C   UNL     1       8.901  -4.613  24.003  0.00  0.00    +0.050 A 
ATOM     55  C   UNL     1       8.935  -5.220  25.249  0.00  0.00    +0.158 A 
ATOM     56  C   UNL     1       8.590  -4.506  26.386  0.00  0.00    +0.159 A 
ATOM     57  C   UNL     1       8.200  -3.175  26.287  0.00  0.00    +0.060 A 
BRANCH  56  58
ATOM     58  O   UNL     1       8.657  -5.148  27.593  0.00  0.00    -0.503 OA
ATOM     59  H   UNL     1       9.032  -6.035  27.441  0.00  0.00    +0.292 HD
ENDBRANCH  56  58
BRANCH  55  60
ATOM     60  O   UNL     1       9.310  -6.528  25.355  0.00  0.00    -0.503 OA
ATOM     61  H   UNL     1       9.836  -6.564  26.179  0.00  0.00    +0.292 HD
ENDBRANCH  55  60
ENDBRANCH  51  52
BRANCH  50  62
ATOM     62  O   UNL     1       6.165   3.725  24.609  0.00  0.00    -0.506 OA
ATOM     63  H   UNL     1       5.525   3.124  25.024  0.00  0.00    +0.292 HD
ENDBRANCH  50  62
BRANCH  47  64
ATOM     64  O   UNL     1      10.812   4.086  23.848  0.00  0.00    -0.507 OA
ATOM     65  H   UNL     1      10.885   4.755  24.549  0.00  0.00    +0.292 HD
ENDBRANCH  47  64
ENDBRANCH  40  41
ENDBRANCH   3  40
TORSDOF 21
ENDMDL
MODEL 2
REMARK VINA RESULT:      -6.4      2.172      8.269
REMARK  Name = 
REMARK  22 active torsions:
REMARK  status: ('A' for Active; 'I' for Inactive)
REMARK    1  A    between atoms: C_1  and  O_2
REMARK    2  A    between atoms: O_2  and  C_3
REMARK    3  A    between atoms: C_4  and  O_62
REMARK    4  A    between atoms: C_7  and  C_9
REMARK    5  A    between atoms: C_10  and  C_11
REMARK    6  A    between atoms: C_11  and  O_13
REMARK    7  A    between atoms: O_13  and  C_14
REMARK    8  A    between atoms: C_14  and  C_15
REMARK    9  A    between atoms: C_17  and  O_61
REMARK   10  A    between atoms: C_19  and  O_49
REMARK   11  A    between atoms: C_21  and  O_48
REMARK   12  A    between atoms: C_23  and  O_26
REMARK   13  A    between atoms: O_26  and  C_27
REMARK   14  A    between atoms: C_28  and  C_40
REMARK   15  A    between atoms: C_32  and  O_39
REMARK   16  A    between atoms: C_34  and  O_38
REMARK   17  A    between atoms: C_42  and  O_47
REMARK   18  A    between atoms: C_43  and  O_46
REMARK   19  A    between atoms: O_49  and  C_50
REMARK   20  A    between atoms: C_50  and  C_52
REMARK   21  A    between atoms: C_53  and  C_54
REMARK   22  A    between atoms: C_57  and  O_60
REMARK                            x       y       z     vdW  Elec       q    Type
REMARK                         _______ _______ _______ _____ _____    ______ ____
ROOT
ATOM      1  C   UNL     1       8.101  -1.934  22.604  0.00  0.00    +0.192 C 
ATOM      2  O   UNL     1       8.065  -2.446  23.944  0.00  0.00    -0.330 OA
ATOM      3  C   UNL     1       8.046  -1.402  24.929  0.00  0.00    +0.341 C 
ATOM      4  C   UNL     1       9.338  -0.562  24.831  0.00  0.00    +0.226 C 
ATOM      5  C   UNL     1       9.437   0.022  23.423  0.00  0.00    +0.242 C 
ATOM      6  C   UNL     1       9.381  -1.099  22.377  0.00  0.00    +0.190 C 
ENDROOT
BRANCH   6   7
ATOM      7  O   UNL     1       9.411  -0.506  21.077  0.00  0.00    -0.385 OA
ATOM      8  H   UNL     1       9.829  -1.146  20.472  0.00  0.00    +0.210 HD
ENDBRANCH   6   7
BRANCH   4   9
ATOM      9  O   UNL     1       9.395   0.478  25.820  0.00  0.00    -0.382 OA
ATOM     10  H   UNL     1      10.331   0.652  26.031  0.00  0.00    +0.210 HD
ENDBRANCH   4   9
BRANCH   1  11
ATOM     11  C   UNL     1       8.016  -3.132  21.646  0.00  0.00    +0.266 C 
BRANCH  11  12
ATOM     12  O   UNL     1       6.679  -3.642  21.518  0.00  0.00    -0.459 OA
BRANCH  12  13
ATOM     13  C   UNL     1       6.512  -4.927  21.934  0.00  0.00    +0.332 C 
ATOM     14  O   UNL     1       7.229  -5.873  21.669  0.00  0.00    -0.246 OA
BRANCH  13  16
ATOM     15  C   UNL     1       4.846  -6.137  23.255  0.00  0.00    +0.015 C 
ATOM     16  C   UNL     1       5.310  -4.967  22.789  0.00  0.00    +0.092 C 
BRANCH  15  19
ATOM     17  C   UNL     1       1.724  -5.316  25.250  0.00  0.00    +0.162 A 
ATOM     18  C   UNL     1       2.820  -5.176  24.396  0.00  0.00    +0.057 A 
ATOM     19  C   UNL     1       3.676  -6.260  24.139  0.00  0.00    -0.021 A 
ATOM     20  C   UNL     1       3.386  -7.504  24.719  0.00  0.00    +0.012 A 
ATOM     21  C   UNL     1       2.300  -7.648  25.587  0.00  0.00    +0.050 A 
ATOM     22  C   UNL     1       1.493  -6.552  25.857  0.00  0.00    +0.158 A 
BRANCH  22  23
ATOM     23  O   UNL     1       0.448  -6.713  26.724  0.00  0.00    -0.503 OA
ATOM     24  H   UNL     1       0.578  -6.032  27.412  0.00  0.00    +0.292 HD
ENDBRANCH  22  23
BRANCH  17  26
ATOM     25  C   UNL     1       1.418  -3.006  25.624  0.00  0.00    +0.277 C 
ATOM     26  O   UNL     1       0.848  -4.311  25.575  0.00  0.00    -0.491 OA
ENDBRANCH  17  26
ENDBRANCH  15  19
ENDBRANCH  13  16
ENDBRANCH  12  13
ENDBRANCH  11  12
ENDBRANCH   1  11
BRANCH   5  27
ATOM     27  O   UNL     1      10.682   0.741  23.292  0.00  0.00    -0.453 OA
BRANCH  27  28
ATOM     28  C   UNL     1      10.571   2.093  23.358  0.00  0.00    +0.332 C 
ATOM     29  O   UNL     1      11.440   2.882  23.692  0.00  0.00    -0.246 OA
BRANCH  28  30
ATOM     30  C   UNL     1       9.208   2.467  22.945  0.00  0.00    +0.092 C 
ATOM     31  C   UNL     1       8.523   3.362  23.675  0.00  0.00    +0.015 C 
BRANCH  31  32
ATOM     32  C   UNL     1       7.172   3.826  23.332  0.00  0.00    -0.025 A 
ATOM     33  C   UNL     1       6.300   2.951  22.667  0.00  0.00    +0.011 A 
ATOM     34  C   UNL     1       5.007   3.359  22.333  0.00  0.00    +0.046 A 
ATOM     35  C   UNL     1       4.587   4.644  22.648  0.00  0.00    +0.117 A 
ATOM     36  C   UNL     1       5.447   5.540  23.270  0.00  0.00    +0.046 A 
ATOM     37  C   UNL     1       6.741   5.133  23.602  0.00  0.00    +0.011 A 
BRANCH  35  38
ATOM     38  O   UNL     1       3.308   4.993  22.330  0.00  0.00    -0.507 OA
ATOM     39  H   UNL     1       3.026   5.705  22.928  0.00  0.00    +0.292 HD
ENDBRANCH  35  38
ENDBRANCH  31  32
ENDBRANCH  28  30
ENDBRANCH  27  28
ENDBRANCH   5  27
BRANCH   3  40
ATOM     40  O   UNL     1       8.054  -1.973  26.237  0.00  0.00    -0.453 OA
BRANCH  40  41
ATOM     41  C   UNL     1       6.888  -2.472  26.782  0.00  0.00    +0.214 A 
ATOM     42  C   UNL     1       6.586  -3.933  26.737  0.00  0.00    +0.238 A 
ATOM     43  O   UNL     1       7.265  -4.694  26.054  0.00  0.00    -0.283 OA
ATOM     44  C   UNL     1       5.394  -4.394  27.469  0.00  0.00    +0.109 A 
ATOM     45  C   UNL     1       4.500  -3.426  27.923  0.00  0.00    +0.147 A 
ATOM     46  C   UNL     1       3.316  -3.807  28.565  0.00  0.00    +0.092 A 
ATOM     47  C   UNL     1       3.041  -5.161  28.744  0.00  0.00    +0.124 A 
ATOM     48  C   UNL     1       3.929  -6.137  28.307  0.00  0.00    +0.091 A 
ATOM     49  O   UNL     1       4.706  -2.076  27.753  0.00  0.00    -0.451 OA
ATOM     50  C   UNL     1       5.109  -5.753  27.672  0.00  0.00    +0.135 A 
ATOM     51  C   UNL     1       5.907  -1.641  27.201  0.00  0.00    +0.181 A 
BRANCH  51  52
ATOM     52  C   UNL     1       6.015  -0.152  27.096  0.00  0.00    +0.025 A 
ATOM     53  C   UNL     1       5.320   0.557  26.096  0.00  0.00    +0.015 A 
ATOM     54  C   UNL     1       5.403   1.955  26.007  0.00  0.00    +0.050 A 
ATOM     55  C   UNL     1       6.168   2.656  26.928  0.00  0.00    +0.158 A 
ATOM     56  C   UNL     1       6.877   1.980  27.908  0.00  0.00    +0.159 A 
ATOM     57  C   UNL     1       6.833   0.592  27.974  0.00  0.00    +0.060 A 
BRANCH  56  58
ATOM     58  O   UNL     1       7.602   2.720  28.802  0.00  0.00    -0.503 OA
ATOM     59  H   UNL     1       7.275   2.515  29.697  0.00  0.00    +0.292 HD
ENDBRANCH  56  58
BRANCH  55  60
ATOM     60  O   UNL     1       6.221   4.019  26.866  0.00  0.00    -0.503 OA
ATOM     61  H   UNL     1       7.150   4.235  27.083  0.00  0.00    +0.292 HD
ENDBRANCH  55  60
ENDBRANCH  51  52
BRANCH  50  62
ATOM     62  O   UNL     1       5.984  -6.722  27.273  0.00  0.00    -0.506 OA
ATOM     63  H   UNL     1       6.462  -6.438  26.477  0.00  0.00    +0.292 HD
ENDBRANCH  50  62
BRANCH  47  64
ATOM     64  O   UNL     1       1.898  -5.588  29.352  0.00  0.00    -0.507 OA
ATOM     65  H   UNL     1       1.924  -5.347  30.294  0.00  0.00    +0.292 HD
ENDBRANCH  47  64
ENDBRANCH  40  41
ENDBRANCH   3  40
TORSDOF 21
ENDMDL
MODEL 3
REMARK VINA RESULT:      -6.4      2.153      8.825
REMARK  Name = 
REMARK  22 active torsions:
REMARK  status: ('A' for Active; 'I' for Inactive)
REMARK    1  A    between atoms: C_1  and  O_2
REMARK    2  A    between atoms: O_2  and  C_3
REMARK    3  A    between atoms: C_4  and  O_62
REMARK    4  A    between atoms: C_7  and  C_9
REMARK    5  A    between atoms: C_10  and  C_11
REMARK    6  A    between atoms: C_11  and  O_13
REMARK    7  A    between atoms: O_13  and  C_14
REMARK    8  A    between atoms: C_14  and  C_15
REMARK    9  A    between atoms: C_17  and  O_61
REMARK   10  A    between atoms: C_19  and  O_49
REMARK   11  A    between atoms: C_21  and  O_48
REMARK   12  A    between atoms: C_23  and  O_26
REMARK   13  A    between atoms: O_26  and  C_27
REMARK   14  A    between atoms: C_28  and  C_40
REMARK   15  A    between atoms: C_32  and  O_39
REMARK   16  A    between atoms: C_34  and  O_38
REMARK   17  A    between atoms: C_42  and  O_47
REMARK   18  A    between atoms: C_43  and  O_46
REMARK   19  A    between atoms: O_49  and  C_50
REMARK   20  A    between atoms: C_50  and  C_52
REMARK   21  A    between atoms: C_53  and  C_54
REMARK   22  A    between atoms: C_57  and  O_60
REMARK                            x       y       z     vdW  Elec       q    Type
REMARK                         _______ _______ _______ _____ _____    ______ ____
ROOT
ATOM      1  C   UNL     1       7.252   1.201  22.903  0.00  0.00    +0.192 C 
ATOM      2  O   UNL     1       7.410   0.762  24.260  0.00  0.00    -0.330 OA
ATOM      3  C   UNL     1       6.226   0.967  25.044  0.00  0.00    +0.341 C 
ATOM      4  C   UNL     1       5.902   2.475  25.122  0.00  0.00    +0.226 C 
ATOM      5  C   UNL     1       5.713   3.010  23.704  0.00  0.00    +0.242 C 
ATOM      6  C   UNL     1       6.958   2.717  22.856  0.00  0.00    +0.190 C 
ENDROOT
BRANCH   6   7
ATOM      7  O   UNL     1       6.714   3.175  21.523  0.00  0.00    -0.385 OA
ATOM      8  H   UNL     1       6.960   4.117  21.487  0.00  0.00    +0.210 HD
ENDBRANCH   6   7
BRANCH   4   9
ATOM      9  O   UNL     1       4.745   2.748  25.929  0.00  0.00    -0.382 OA
ATOM     10  H   UNL     1       4.042   3.100  25.351  0.00  0.00    +0.210 HD
ENDBRANCH   4   9
BRANCH   1  11
ATOM     11  C   UNL     1       8.539   0.840  22.144  0.00  0.00    +0.266 C 
BRANCH  11  12
ATOM     12  O   UNL     1       8.511  -0.498  21.619  0.00  0.00    -0.459 OA
BRANCH  12  13
ATOM     13  C   UNL     1       9.427  -1.346  22.158  0.00  0.00    +0.332 C 
ATOM     14  O   UNL     1      10.623  -1.148  22.264  0.00  0.00    -0.246 OA
BRANCH  13  16
ATOM     15  C   UNL     1       7.424  -2.744  22.278  0.00  0.00    +0.015 C 
ATOM     16  C   UNL     1       8.707  -2.549  22.617  0.00  0.00    +0.092 C 
BRANCH  15  19
ATOM     17  C   UNL     1       4.898  -5.010  23.976  0.00  0.00    +0.162 A 
ATOM     18  C   UNL     1       5.612  -3.865  23.615  0.00  0.00    +0.057 A 
ATOM     19  C   UNL     1       6.645  -3.931  22.665  0.00  0.00    -0.021 A 
ATOM     20  C   UNL     1       6.920  -5.160  22.048  0.00  0.00    +0.012 A 
ATOM     21  C   UNL     1       6.220  -6.313  22.415  0.00  0.00    +0.050 A 
ATOM     22  C   UNL     1       5.231  -6.230  23.385  0.00  0.00    +0.158 A 
BRANCH  22  23
ATOM     23  O   UNL     1       4.573  -7.375  23.740  0.00  0.00    -0.503 OA
ATOM     24  H   UNL     1       3.718  -7.075  24.107  0.00  0.00    +0.292 HD
ENDBRANCH  22  23
BRANCH  17  26
ATOM     25  C   UNL     1       3.047  -3.895  24.928  0.00  0.00    +0.277 C 
ATOM     26  O   UNL     1       3.889  -5.046  24.905  0.00  0.00    -0.491 OA
ENDBRANCH  17  26
ENDBRANCH  15  19
ENDBRANCH  13  16
ENDBRANCH  12  13
ENDBRANCH  11  12
ENDBRANCH   1  11
BRANCH   5  27
ATOM     27  O   UNL     1       5.491   4.436  23.758  0.00  0.00    -0.453 OA
BRANCH  27  28
ATOM     28  C   UNL     1       6.276   5.104  24.642  0.00  0.00    +0.332 C 
ATOM     29  O   UNL     1       5.939   5.553  25.725  0.00  0.00    -0.246 OA
BRANCH  28  30
ATOM     30  C   UNL     1       7.635   5.195  24.079  0.00  0.00    +0.092 C 
ATOM     31  C   UNL     1       8.692   5.157  24.906  0.00  0.00    +0.015 C 
BRANCH  31  32
ATOM     32  C   UNL     1      10.086   5.209  24.445  0.00  0.00    -0.025 A 
ATOM     33  C   UNL     1      10.597   4.138  23.698  0.00  0.00    +0.011 A 
ATOM     34  C   UNL     1      11.915   4.159  23.239  0.00  0.00    +0.046 A 
ATOM     35  C   UNL     1      12.730   5.243  23.536  0.00  0.00    +0.117 A 
ATOM     36  C   UNL     1      12.257   6.298  24.308  0.00  0.00    +0.046 A 
ATOM     37  C   UNL     1      10.939   6.274  24.769  0.00  0.00    +0.011 A 
BRANCH  35  38
ATOM     38  O   UNL     1      14.002   5.239  23.045  0.00  0.00    -0.507 OA
ATOM     39  H   UNL     1      14.306   4.319  22.988  0.00  0.00    +0.292 HD
ENDBRANCH  35  38
ENDBRANCH  31  32
ENDBRANCH  28  30
ENDBRANCH  27  28
ENDBRANCH   5  27
BRANCH   3  40
ATOM     40  O   UNL     1       6.460   0.552  26.389  0.00  0.00    -0.453 OA
BRANCH  40  41
ATOM     41  C   UNL     1       6.202  -0.750  26.766  0.00  0.00    +0.214 A 
ATOM     42  C   UNL     1       7.096  -1.864  26.335  0.00  0.00    +0.238 A 
ATOM     43  O   UNL     1       7.963  -1.680  25.485  0.00  0.00    -0.283 OA
ATOM     44  C   UNL     1       6.829  -3.197  26.902  0.00  0.00    +0.109 A 
ATOM     45  C   UNL     1       5.626  -3.381  27.582  0.00  0.00    +0.147 A 
ATOM     46  C   UNL     1       5.287  -4.643  28.083  0.00  0.00    +0.092 A 
ATOM     47  C   UNL     1       6.162  -5.711  27.896  0.00  0.00    +0.124 A 
ATOM     48  C   UNL     1       7.370  -5.540  27.230  0.00  0.00    +0.091 A 
ATOM     49  O   UNL     1       4.712  -2.371  27.776  0.00  0.00    -0.451 OA
ATOM     50  C   UNL     1       7.706  -4.280  26.736  0.00  0.00    +0.135 A 
ATOM     51  C   UNL     1       5.040  -1.078  27.376  0.00  0.00    +0.181 A 
BRANCH  51  52
ATOM     52  C   UNL     1       3.972  -0.071  27.668  0.00  0.00    +0.025 A 
ATOM     53  C   UNL     1       4.078   0.799  28.771  0.00  0.00    +0.015 A 
ATOM     54  C   UNL     1       3.088   1.759  29.036  0.00  0.00    +0.050 A 
ATOM     55  C   UNL     1       1.994   1.865  28.191  0.00  0.00    +0.158 A 
ATOM     56  C   UNL     1       1.856   1.006  27.111  0.00  0.00    +0.159 A 
ATOM     57  C   UNL     1       2.812   0.025  26.870  0.00  0.00    +0.060 A 
BRANCH  56  58
ATOM     58  O   UNL     1       0.766   1.165  26.299  0.00  0.00    -0.503 OA
ATOM     59  H   UNL     1       1.009   1.789  25.590  0.00  0.00    +0.292 HD
ENDBRANCH  56  58
BRANCH  55  60
ATOM     60  O   UNL     1       1.048   2.821  28.425  0.00  0.00    -0.503 OA
ATOM     61  H   UNL     1       0.788   2.682  29.358  0.00  0.00    +0.292 HD
ENDBRANCH  55  60
ENDBRANCH  51  52
BRANCH  50  62
ATOM     62  O   UNL     1       8.908  -4.121  26.109  0.00  0.00    -0.506 OA
ATOM     63  H   UNL     1       8.774  -3.888  25.176  0.00  0.00    +0.292 HD
ENDBRANCH  50  62
BRANCH  47  64
ATOM     64  O   UNL     1       5.877  -6.963  28.354  0.00  0.00    -0.507 OA
ATOM     65  H   UNL     1       5.779  -6.939  29.321  0.00  0.00    +0.292 HD
ENDBRANCH  47  64
ENDBRANCH  40  41
ENDBRANCH   3  40
TORSDOF 21
ENDMDL
MODEL 4
REMARK VINA RESULT:      -6.3      2.710      7.246
REMARK  Name = 
REMARK  22 active torsions:
REMARK  status: ('A' for Active; 'I' for Inactive)
REMARK    1  A    between atoms: C_1  and  O_2
REMARK    2  A    between atoms: O_2  and  C_3
REMARK    3  A    between atoms: C_4  and  O_62
REMARK    4  A    between atoms: C_7  and  C_9
REMARK    5  A    between atoms: C_10  and  C_11
REMARK    6  A    between atoms: C_11  and  O_13
REMARK    7  A    between atoms: O_13  and  C_14
REMARK    8  A    between atoms: C_14  and  C_15
REMARK    9  A    between atoms: C_17  and  O_61
REMARK   10  A    between atoms: C_19  and  O_49
REMARK   11  A    between atoms: C_21  and  O_48
REMARK   12  A    between atoms: C_23  and  O_26
REMARK   13  A    between atoms: O_26  and  C_27
REMARK   14  A    between atoms: C_28  and  C_40
REMARK   15  A    between atoms: C_32  and  O_39
REMARK   16  A    between atoms: C_34  and  O_38
REMARK   17  A    between atoms: C_42  and  O_47
REMARK   18  A    between atoms: C_43  and  O_46
REMARK   19  A    between atoms: O_49  and  C_50
REMARK   20  A    between atoms: C_50  and  C_52
REMARK   21  A    between atoms: C_53  and  C_54
REMARK   22  A    between atoms: C_57  and  O_60
REMARK                            x       y       z     vdW  Elec       q    Type
REMARK                         _______ _______ _______ _____ _____    ______ ____
ROOT
ATOM      1  C   UNL     1       7.397   0.561  26.335  0.00  0.00    +0.192 C 
ATOM      2  O   UNL     1       7.396   1.822  25.650  0.00  0.00    -0.330 OA
ATOM      3  C   UNL     1       7.472   1.672  24.226  0.00  0.00    +0.341 C 
ATOM      4  C   UNL     1       8.798   0.981  23.840  0.00  0.00    +0.226 C 
ATOM      5  C   UNL     1       8.863  -0.378  24.532  0.00  0.00    +0.242 C 
ATOM      6  C   UNL     1       8.705  -0.210  26.049  0.00  0.00    +0.190 C 
ENDROOT
BRANCH   6   7
ATOM      7  O   UNL     1       8.706  -1.507  26.651  0.00  0.00    -0.385 OA
ATOM      8  H   UNL     1       9.439  -2.012  26.256  0.00  0.00    +0.210 HD
ENDBRANCH   6   7
BRANCH   4   9
ATOM      9  O   UNL     1       8.951   0.837  22.418  0.00  0.00    -0.382 OA
ATOM     10  H   UNL     1       8.393   0.094  22.122  0.00  0.00    +0.210 HD
ENDBRANCH   4   9
BRANCH   1  11
ATOM     11  C   UNL     1       7.210   0.845  27.834  0.00  0.00    +0.266 C 
BRANCH  11  12
ATOM     12  O   UNL     1       5.888   1.313  28.146  0.00  0.00    -0.459 OA
BRANCH  12  13
ATOM     13  C   UNL     1       4.881   0.651  27.516  0.00  0.00    +0.332 C 
ATOM     14  O   UNL     1       4.038   1.138  26.785  0.00  0.00    -0.246 OA
BRANCH  13  16
ATOM     15  C   UNL     1       4.887  -1.718  26.908  0.00  0.00    +0.015 C 
ATOM     16  C   UNL     1       5.003  -0.778  27.859  0.00  0.00    +0.092 C 
BRANCH  15  19
ATOM     17  C   UNL     1       6.382  -5.178  27.346  0.00  0.00    +0.162 A 
ATOM     18  C   UNL     1       6.277  -3.805  27.117  0.00  0.00    +0.057 A 
ATOM     19  C   UNL     1       5.029  -3.161  27.161  0.00  0.00    -0.021 A 
ATOM     20  C   UNL     1       3.890  -3.914  27.485  0.00  0.00    +0.012 A 
ATOM     21  C   UNL     1       3.985  -5.291  27.701  0.00  0.00    +0.050 A 
ATOM     22  C   UNL     1       5.223  -5.911  27.612  0.00  0.00    +0.158 A 
BRANCH  22  23
ATOM     23  O   UNL     1       5.288  -7.263  27.809  0.00  0.00    -0.503 OA
ATOM     24  H   UNL     1       6.212  -7.507  27.605  0.00  0.00    +0.292 HD
ENDBRANCH  22  23
BRANCH  17  26
ATOM     25  C   UNL     1       8.504  -5.439  26.346  0.00  0.00    +0.277 C 
ATOM     26  O   UNL     1       7.551  -5.894  27.304  0.00  0.00    -0.491 OA
ENDBRANCH  17  26
ENDBRANCH  15  19
ENDBRANCH  13  16
ENDBRANCH  12  13
ENDBRANCH  11  12
ENDBRANCH   1  11
BRANCH   5  27
ATOM     27  O   UNL     1      10.135  -1.000  24.246  0.00  0.00    -0.453 OA
BRANCH  27  28
ATOM     28  C   UNL     1      10.112  -1.910  23.240  0.00  0.00    +0.332 C 
ATOM     29  O   UNL     1      10.803  -1.905  22.234  0.00  0.00    -0.246 OA
BRANCH  28  30
ATOM     30  C   UNL     1       9.106  -2.935  23.563  0.00  0.00    +0.092 C 
ATOM     31  C   UNL     1       8.104  -3.168  22.700  0.00  0.00    +0.015 C 
BRANCH  31  32
ATOM     32  C   UNL     1       7.069  -4.188  22.913  0.00  0.00    -0.025 A 
ATOM     33  C   UNL     1       7.199  -5.433  22.281  0.00  0.00    +0.011 A 
ATOM     34  C   UNL     1       6.236  -6.427  22.467  0.00  0.00    +0.046 A 
ATOM     35  C   UNL     1       5.134  -6.175  23.274  0.00  0.00    +0.117 A 
ATOM     36  C   UNL     1       4.964  -4.935  23.879  0.00  0.00    +0.046 A 
ATOM     37  C   UNL     1       5.927  -3.941  23.690  0.00  0.00    +0.011 A 
BRANCH  35  38
ATOM     38  O   UNL     1       4.232  -7.181  23.455  0.00  0.00    -0.507 OA
ATOM     39  H   UNL     1       3.513  -7.068  22.812  0.00  0.00    +0.292 HD
ENDBRANCH  35  38
ENDBRANCH  31  32
ENDBRANCH  28  30
ENDBRANCH  27  28
ENDBRANCH   5  27
BRANCH   3  40
ATOM     40  O   UNL     1       7.512   2.957  23.606  0.00  0.00    -0.453 OA
BRANCH  40  41
ATOM     41  C   UNL     1       6.442   3.820  23.734  0.00  0.00    +0.214 A 
ATOM     42  C   UNL     1       5.088   3.440  23.234  0.00  0.00    +0.238 A 
ATOM     43  O   UNL     1       4.934   2.444  22.533  0.00  0.00    -0.283 OA
ATOM     44  C   UNL     1       3.978   4.358  23.541  0.00  0.00    +0.109 A 
ATOM     45  C   UNL     1       4.301   5.620  24.037  0.00  0.00    +0.147 A 
ATOM     46  C   UNL     1       3.292   6.559  24.283  0.00  0.00    +0.092 A 
ATOM     47  C   UNL     1       1.965   6.219  24.028  0.00  0.00    +0.124 A 
ATOM     48  C   UNL     1       1.627   4.960  23.545  0.00  0.00    +0.091 A 
ATOM     49  O   UNL     1       5.593   6.020  24.284  0.00  0.00    -0.451 OA
ATOM     50  C   UNL     1       2.634   4.027  23.306  0.00  0.00    +0.135 A 
ATOM     51  C   UNL     1       6.625   5.097  24.141  0.00  0.00    +0.181 A 
BRANCH  51  52
ATOM     52  C   UNL     1       7.976   5.652  24.466  0.00  0.00    +0.025 A 
ATOM     53  C   UNL     1       8.232   6.256  25.713  0.00  0.00    +0.015 A 
ATOM     54  C   UNL     1       9.504   6.759  26.029  0.00  0.00    +0.050 A 
ATOM     55  C   UNL     1      10.532   6.647  25.106  0.00  0.00    +0.158 A 
ATOM     56  C   UNL     1      10.301   6.076  23.864  0.00  0.00    +0.159 A 
ATOM     57  C   UNL     1       9.032   5.616  23.530  0.00  0.00    +0.060 A 
BRANCH  56  58
ATOM     58  O   UNL     1      11.355   5.975  22.997  0.00  0.00    -0.503 OA
ATOM     59  H   UNL     1      11.644   5.044  22.983  0.00  0.00    +0.292 HD
ENDBRANCH  56  58
BRANCH  55  60
ATOM     60  O   UNL     1      11.780   7.103  25.424  0.00  0.00    -0.503 OA
ATOM     61  H   UNL     1      12.333   6.850  24.658  0.00  0.00    +0.292 HD
ENDBRANCH  55  60
ENDBRANCH  51  52
BRANCH  50  62
ATOM     62  O   UNL     1       2.285   2.785  22.858  0.00  0.00    -0.506 OA
ATOM     63  H   UNL     1       2.186   2.790  21.892  0.00  0.00    +0.292 HD
ENDBRANCH  50  62
BRANCH  47  64
ATOM     64  O   UNL     1       0.944   7.098  24.239  0.00  0.00    -0.507 OA
ATOM     65  H   UNL     1       0.380   6.771  24.960  0.00  0.00    +0.292 HD
ENDBRANCH  47  64
ENDBRANCH  40  41
ENDBRANCH   3  40
TORSDOF 21
ENDMDL
MODEL 5
REMARK VINA RESULT:      -6.1      2.749      8.289
REMARK  Name = 
REMARK  22 active torsions:
REMARK  status: ('A' for Active; 'I' for Inactive)
REMARK    1  A    between atoms: C_1  and  O_2
REMARK    2  A    between atoms: O_2  and  C_3
REMARK    3  A    between atoms: C_4  and  O_62
REMARK    4  A    between atoms: C_7  and  C_9
REMARK    5  A    between atoms: C_10  and  C_11
REMARK    6  A    between atoms: C_11  and  O_13
REMARK    7  A    between atoms: O_13  and  C_14
REMARK    8  A    between atoms: C_14  and  C_15
REMARK    9  A    between atoms: C_17  and  O_61
REMARK   10  A    between atoms: C_19  and  O_49
REMARK   11  A    between atoms: C_21  and  O_48
REMARK   12  A    between atoms: C_23  and  O_26
REMARK   13  A    between atoms: O_26  and  C_27
REMARK   14  A    between atoms: C_28  and  C_40
REMARK   15  A    between atoms: C_32  and  O_39
REMARK   16  A    between atoms: C_34  and  O_38
REMARK   17  A    between atoms: C_42  and  O_47
REMARK   18  A    between atoms: C_43  and  O_46
REMARK   19  A    between atoms: O_49  and  C_50
REMARK   20  A    between atoms: C_50  and  C_52
REMARK   21  A    between atoms: C_53  and  C_54
REMARK   22  A    between atoms: C_57  and  O_60
REMARK                            x       y       z     vdW  Elec       q    Type
REMARK                         _______ _______ _______ _____ _____    ______ ____
ROOT
ATOM      1  C   UNL     1       7.716   1.088  22.853  0.00  0.00    +0.192 C 
ATOM      2  O   UNL     1       7.934   0.436  24.113  0.00  0.00    -0.330 OA
ATOM      3  C   UNL     1       7.596   1.273  25.228  0.00  0.00    +0.341 C 
ATOM      4  C   UNL     1       8.498   2.527  25.238  0.00  0.00    +0.226 C 
ATOM      5  C   UNL     1       8.309   3.276  23.921  0.00  0.00    +0.242 C 
ATOM      6  C   UNL     1       8.602   2.348  22.735  0.00  0.00    +0.190 C 
ENDROOT
BRANCH   6   7
ATOM      7  O   UNL     1       8.352   3.068  21.525  0.00  0.00    -0.385 OA
ATOM      8  H   UNL     1       7.501   3.530  21.629  0.00  0.00    +0.210 HD
ENDBRANCH   6   7
BRANCH   4   9
ATOM      9  O   UNL     1       8.232   3.388  26.357  0.00  0.00    -0.382 OA
ATOM     10  H   UNL     1       7.291   3.646  26.331  0.00  0.00    +0.210 HD
ENDBRANCH   4   9
BRANCH   1  11
ATOM     11  C   UNL     1       8.014   0.067  21.744  0.00  0.00    +0.266 C 
BRANCH  11  12
ATOM     12  O   UNL     1       9.405  -0.286  21.679  0.00  0.00    -0.459 OA
BRANCH  12  13
ATOM     13  C   UNL     1       9.707  -1.525  22.154  0.00  0.00    +0.332 C 
ATOM     14  O   UNL     1      10.781  -1.891  22.592  0.00  0.00    -0.246 OA
BRANCH  13  16
ATOM     15  C   UNL     1       8.292  -3.370  22.912  0.00  0.00    +0.015 C 
ATOM     16  C   UNL     1       8.485  -2.346  22.067  0.00  0.00    +0.092 C 
BRANCH  15  19
ATOM     17  C   UNL     1       4.700  -4.540  23.272  0.00  0.00    +0.162 A 
ATOM     18  C   UNL     1       5.825  -3.712  23.266  0.00  0.00    +0.057 A 
ATOM     19  C   UNL     1       7.087  -4.217  22.913  0.00  0.00    -0.021 A 
ATOM     20  C   UNL     1       7.195  -5.559  22.522  0.00  0.00    +0.012 A 
ATOM     21  C   UNL     1       6.077  -6.398  22.541  0.00  0.00    +0.050 A 
ATOM     22  C   UNL     1       4.848  -5.886  22.932  0.00  0.00    +0.158 A 
BRANCH  22  23
ATOM     23  O   UNL     1       3.773  -6.730  22.961  0.00  0.00    -0.503 OA
ATOM     24  H   UNL     1       3.616  -6.913  23.907  0.00  0.00    +0.292 HD
ENDBRANCH  22  23
BRANCH  17  26
ATOM     25  C   UNL     1       3.273  -3.769  24.988  0.00  0.00    +0.277 C 
ATOM     26  O   UNL     1       3.434  -4.142  23.621  0.00  0.00    -0.491 OA
ENDBRANCH  17  26
ENDBRANCH  15  19
ENDBRANCH  13  16
ENDBRANCH  12  13
ENDBRANCH  11  12
ENDBRANCH   1  11
BRANCH   5  27
ATOM     27  O   UNL     1       9.209   4.406  23.882  0.00  0.00    -0.453 OA
BRANCH  27  28
ATOM     28  C   UNL     1       8.604   5.613  23.737  0.00  0.00    +0.332 C 
ATOM     29  O   UNL     1       9.153   6.694  23.601  0.00  0.00    -0.246 OA
BRANCH  28  30
ATOM     30  C   UNL     1       7.146   5.407  23.760  0.00  0.00    +0.092 C 
ATOM     31  C   UNL     1       6.413   5.779  22.699  0.00  0.00    +0.015 C 
BRANCH  31  32
ATOM     32  C   UNL     1       4.959   5.589  22.609  0.00  0.00    -0.025 A 
ATOM     33  C   UNL     1       4.437   4.289  22.663  0.00  0.00    +0.011 A 
ATOM     34  C   UNL     1       3.059   4.074  22.587  0.00  0.00    +0.046 A 
ATOM     35  C   UNL     1       2.201   5.156  22.444  0.00  0.00    +0.117 A 
ATOM     36  C   UNL     1       2.698   6.450  22.348  0.00  0.00    +0.046 A 
ATOM     37  C   UNL     1       4.077   6.664  22.422  0.00  0.00    +0.011 A 
BRANCH  35  38
ATOM     38  O   UNL     1       0.861   4.907  22.403  0.00  0.00    -0.507 OA
ATOM     39  H   UNL     1       0.729   3.952  22.289  0.00  0.00    +0.292 HD
ENDBRANCH  35  38
ENDBRANCH  31  32
ENDBRANCH  28  30
ENDBRANCH  27  28
ENDBRANCH   5  27
BRANCH   3  40
ATOM     40  O   UNL     1       7.874   0.587  26.448  0.00  0.00    -0.453 OA
BRANCH  40  41
ATOM     41  C   UNL     1       7.338  -0.663  26.677  0.00  0.00    +0.214 A 
ATOM     42  C   UNL     1       8.077  -1.898  26.280  0.00  0.00    +0.238 A 
ATOM     43  O   UNL     1       9.079  -1.830  25.576  0.00  0.00    -0.283 OA
ATOM     44  C   UNL     1       7.498  -3.188  26.693  0.00  0.00    +0.109 A 
ATOM     45  C   UNL     1       6.193  -3.184  27.185  0.00  0.00    +0.147 A 
ATOM     46  C   UNL     1       5.567  -4.387  27.528  0.00  0.00    +0.092 A 
ATOM     47  C   UNL     1       6.259  -5.586  27.374  0.00  0.00    +0.124 A 
ATOM     48  C   UNL     1       7.563  -5.605  26.896  0.00  0.00    +0.091 A 
ATOM     49  O   UNL     1       5.453  -2.034  27.336  0.00  0.00    -0.451 OA
ATOM     50  C   UNL     1       8.185  -4.404  26.559  0.00  0.00    +0.135 A 
ATOM     51  C   UNL     1       6.058  -0.804  27.093  0.00  0.00    +0.181 A 
BRANCH  51  52
ATOM     52  C   UNL     1       5.153   0.366  27.319  0.00  0.00    +0.025 A 
ATOM     53  C   UNL     1       5.228   1.123  28.505  0.00  0.00    +0.015 A 
ATOM     54  C   UNL     1       4.394   2.233  28.712  0.00  0.00    +0.050 A 
ATOM     55  C   UNL     1       3.490   2.602  27.727  0.00  0.00    +0.158 A 
ATOM     56  C   UNL     1       3.382   1.861  26.561  0.00  0.00    +0.159 A 
ATOM     57  C   UNL     1       4.175   0.736  26.370  0.00  0.00    +0.060 A 
BRANCH  56  58
ATOM     58  O   UNL     1       2.486   2.280  25.614  0.00  0.00    -0.503 OA
ATOM     59  H   UNL     1       2.945   2.903  25.022  0.00  0.00    +0.292 HD
ENDBRANCH  56  58
BRANCH  55  60
ATOM     60  O   UNL     1       2.703   3.703  27.910  0.00  0.00    -0.503 OA
ATOM     61  H   UNL     1       2.985   4.322  27.208  0.00  0.00    +0.292 HD
ENDBRANCH  55  60
ENDBRANCH  51  52
BRANCH  50  62
ATOM     62  O   UNL     1       9.477  -4.436  26.117  0.00  0.00    -0.506 OA
ATOM     63  H   UNL     1      10.089  -4.252  26.849  0.00  0.00    +0.292 HD
ENDBRANCH  50  62
BRANCH  47  64
ATOM     64  O   UNL     1       5.692  -6.788  27.683  0.00  0.00    -0.507 OA
ATOM     65  H   UNL     1       4.830  -6.639  28.106  0.00  0.00    +0.292 HD
ENDBRANCH  47  64
ENDBRANCH  40  41
ENDBRANCH   3  40
TORSDOF 21
ENDMDL
MODEL 6
REMARK VINA RESULT:      -6.1      2.647      9.720
REMARK  Name = 
REMARK  22 active torsions:
REMARK  status: ('A' for Active; 'I' for Inactive)
REMARK    1  A    between atoms: C_1  and  O_2
REMARK    2  A    between atoms: O_2  and  C_3
REMARK    3  A    between atoms: C_4  and  O_62
REMARK    4  A    between atoms: C_7  and  C_9
REMARK    5  A    between atoms: C_10  and  C_11
REMARK    6  A    between atoms: C_11  and  O_13
REMARK    7  A    between atoms: O_13  and  C_14
REMARK    8  A    between atoms: C_14  and  C_15
REMARK    9  A    between atoms: C_17  and  O_61
REMARK   10  A    between atoms: C_19  and  O_49
REMARK   11  A    between atoms: C_21  and  O_48
REMARK   12  A    between atoms: C_23  and  O_26
REMARK   13  A    between atoms: O_26  and  C_27
REMARK   14  A    between atoms: C_28  and  C_40
REMARK   15  A    between atoms: C_32  and  O_39
REMARK   16  A    between atoms: C_34  and  O_38
REMARK   17  A    between atoms: C_42  and  O_47
REMARK   18  A    between atoms: C_43  and  O_46
REMARK   19  A    between atoms: O_49  and  C_50
REMARK   20  A    between atoms: C_50  and  C_52
REMARK   21  A    between atoms: C_53  and  C_54
REMARK   22  A    between atoms: C_57  and  O_60
REMARK                            x       y       z     vdW  Elec       q    Type
REMARK                         _______ _______ _______ _____ _____    ______ ____
ROOT
ATOM      1  C   UNL     1       7.595  -0.788  26.496  0.00  0.00    +0.192 C 
ATOM      2  O   UNL     1       6.189  -0.973  26.272  0.00  0.00    -0.330 OA
ATOM      3  C   UNL     1       5.922  -1.828  25.151  0.00  0.00    +0.341 C 
ATOM      4  C   UNL     1       6.476  -1.190  23.858  0.00  0.00    +0.226 C 
ATOM      5  C   UNL     1       7.978  -0.970  24.026  0.00  0.00    +0.242 C 
ATOM      6  C   UNL     1       8.255  -0.117  25.270  0.00  0.00    +0.190 C 
ENDROOT
BRANCH   6   7
ATOM      7  O   UNL     1       9.670   0.010  25.426  0.00  0.00    -0.385 OA
ATOM      8  H   UNL     1       9.953  -0.649  26.085  0.00  0.00    +0.210 HD
ENDBRANCH   6   7
BRANCH   4   9
ATOM      9  O   UNL     1       6.204  -1.984  22.692  0.00  0.00    -0.382 OA
ATOM     10  H   UNL     1       6.982  -2.545  22.512  0.00  0.00    +0.210 HD
ENDBRANCH   4   9
BRANCH   1  11
ATOM     11  C   UNL     1       7.755   0.055  27.771  0.00  0.00    +0.266 C 
BRANCH  11  12
ATOM     12  O   UNL     1       7.571   1.459  27.530  0.00  0.00    -0.459 OA
BRANCH  12  13
ATOM     13  C   UNL     1       6.420   1.982  28.031  0.00  0.00    +0.332 C 
ATOM     14  O   UNL     1       5.937   1.756  29.125  0.00  0.00    -0.246 OA
BRANCH  13  16
ATOM     15  C   UNL     1       5.909   2.575  25.714  0.00  0.00    +0.015 C 
ATOM     16  C   UNL     1       5.866   2.897  27.016  0.00  0.00    +0.092 C 
BRANCH  15  19
ATOM     17  C   UNL     1       5.422   5.382  23.208  0.00  0.00    +0.162 A 
ATOM     18  C   UNL     1       5.981   4.595  24.216  0.00  0.00    +0.057 A 
ATOM     19  C   UNL     1       5.350   3.415  24.642  0.00  0.00    -0.021 A 
ATOM     20  C   UNL     1       4.167   3.012  24.005  0.00  0.00    +0.012 A 
ATOM     21  C   UNL     1       3.593   3.802  23.005  0.00  0.00    +0.050 A 
ATOM     22  C   UNL     1       4.215   4.984  22.630  0.00  0.00    +0.158 A 
BRANCH  22  23
ATOM     23  O   UNL     1       3.624   5.750  21.662  0.00  0.00    -0.503 OA
ATOM     24  H   UNL     1       3.790   5.276  20.824  0.00  0.00    +0.292 HD
ENDBRANCH  22  23
BRANCH  17  26
ATOM     25  C   UNL     1       7.124   6.415  21.940  0.00  0.00    +0.277 C 
ATOM     26  O   UNL     1       5.954   6.558  22.742  0.00  0.00    -0.491 OA
ENDBRANCH  17  26
ENDBRANCH  15  19
ENDBRANCH  13  16
ENDBRANCH  12  13
ENDBRANCH  11  12
ENDBRANCH   1  11
BRANCH   5  27
ATOM     27  O   UNL     1       8.495  -0.299  22.856  0.00  0.00    -0.453 OA
BRANCH  27  28
ATOM     28  C   UNL     1       7.965   0.929  22.621  0.00  0.00    +0.332 C 
ATOM     29  O   UNL     1       6.793   1.189  22.405  0.00  0.00    -0.246 OA
BRANCH  28  30
ATOM     30  C   UNL     1       9.051   1.922  22.678  0.00  0.00    +0.092 C 
ATOM     31  C   UNL     1       8.967   2.937  23.552  0.00  0.00    +0.015 C 
BRANCH  31  32
ATOM     32  C   UNL     1      10.009   3.961  23.709  0.00  0.00    -0.025 A 
ATOM     33  C   UNL     1       9.672   5.192  24.291  0.00  0.00    +0.011 A 
ATOM     34  C   UNL     1      10.640   6.184  24.461  0.00  0.00    +0.046 A 
ATOM     35  C   UNL     1      11.942   5.955  24.038  0.00  0.00    +0.117 A 
ATOM     36  C   UNL     1      12.290   4.759  23.422  0.00  0.00    +0.046 A 
ATOM     37  C   UNL     1      11.320   3.767  23.250  0.00  0.00    +0.011 A 
BRANCH  35  38
ATOM     38  O   UNL     1      12.863   6.938  24.248  0.00  0.00    -0.507 OA
ATOM     39  H   UNL     1      12.444   7.795  24.072  0.00  0.00    +0.292 HD
ENDBRANCH  35  38
ENDBRANCH  31  32
ENDBRANCH  28  30
ENDBRANCH  27  28
ENDBRANCH   5  27
BRANCH   3  40
ATOM     40  O   UNL     1       4.512  -1.938  24.953  0.00  0.00    -0.453 OA
BRANCH  40  41
ATOM     41  C   UNL     1       3.854  -3.101  25.296  0.00  0.00    +0.214 A 
ATOM     42  C   UNL     1       3.787  -4.251  24.347  0.00  0.00    +0.238 A 
ATOM     43  O   UNL     1       4.144  -4.123  23.179  0.00  0.00    -0.283 OA
ATOM     44  C   UNL     1       3.192  -5.501  24.849  0.00  0.00    +0.109 A 
ATOM     45  C   UNL     1       2.508  -5.450  26.062  0.00  0.00    +0.147 A 
ATOM     46  C   UNL     1       1.864  -6.591  26.555  0.00  0.00    +0.092 A 
ATOM     47  C   UNL     1       1.915  -7.776  25.823  0.00  0.00    +0.124 A 
ATOM     48  C   UNL     1       2.603  -7.844  24.618  0.00  0.00    +0.091 A 
ATOM     49  O   UNL     1       2.403  -4.305  26.816  0.00  0.00    -0.451 OA
ATOM     50  C   UNL     1       3.247  -6.707  24.132  0.00  0.00    +0.135 A 
ATOM     51  C   UNL     1       3.098  -3.167  26.416  0.00  0.00    +0.181 A 
BRANCH  51  52
ATOM     52  C   UNL     1       2.921  -2.000  27.336  0.00  0.00    +0.025 A 
ATOM     53  C   UNL     1       1.871  -1.080  27.146  0.00  0.00    +0.015 A 
ATOM     54  C   UNL     1       1.690   0.004  28.020  0.00  0.00    +0.050 A 
ATOM     55  C   UNL     1       2.547   0.166  29.098  0.00  0.00    +0.158 A 
ATOM     56  C   UNL     1       3.600  -0.715  29.294  0.00  0.00    +0.159 A 
ATOM     57  C   UNL     1       3.810  -1.764  28.407  0.00  0.00    +0.060 A 
BRANCH  56  58
ATOM     58  O   UNL     1       4.406  -0.520  30.383  0.00  0.00    -0.503 OA
ATOM     59  H   UNL     1       4.952  -1.319  30.499  0.00  0.00    +0.292 HD
ENDBRANCH  56  58
BRANCH  55  60
ATOM     60  O   UNL     1       2.352   1.198  29.970  0.00  0.00    -0.503 OA
ATOM     61  H   UNL     1       2.069   1.944  29.404  0.00  0.00    +0.292 HD
ENDBRANCH  55  60
ENDBRANCH  51  52
BRANCH  50  62
ATOM     62  O   UNL     1       3.942  -6.797  22.961  0.00  0.00    -0.506 OA
ATOM     63  H   UNL     1       4.891  -6.667  23.121  0.00  0.00    +0.292 HD
ENDBRANCH  50  62
BRANCH  47  64
ATOM     64  O   UNL     1       1.297  -8.913  26.252  0.00  0.00    -0.507 OA
ATOM     65  H   UNL     1       1.470  -9.632  25.621  0.00  0.00    +0.292 HD
ENDBRANCH  47  64
ENDBRANCH  40  41
ENDBRANCH   3  40
TORSDOF 21
ENDMDL
MODEL 7
REMARK VINA RESULT:      -5.9      1.708      3.302
REMARK  Name = 
REMARK  22 active torsions:
REMARK  status: ('A' for Active; 'I' for Inactive)
REMARK    1  A    between atoms: C_1  and  O_2
REMARK    2  A    between atoms: O_2  and  C_3
REMARK    3  A    between atoms: C_4  and  O_62
REMARK    4  A    between atoms: C_7  and  C_9
REMARK    5  A    between atoms: C_10  and  C_11
REMARK    6  A    between atoms: C_11  and  O_13
REMARK    7  A    between atoms: O_13  and  C_14
REMARK    8  A    between atoms: C_14  and  C_15
REMARK    9  A    between atoms: C_17  and  O_61
REMARK   10  A    between atoms: C_19  and  O_49
REMARK   11  A    between atoms: C_21  and  O_48
REMARK   12  A    between atoms: C_23  and  O_26
REMARK   13  A    between atoms: O_26  and  C_27
REMARK   14  A    between atoms: C_28  and  C_40
REMARK   15  A    between atoms: C_32  and  O_39
REMARK   16  A    between atoms: C_34  and  O_38
REMARK   17  A    between atoms: C_42  and  O_47
REMARK   18  A    between atoms: C_43  and  O_46
REMARK   19  A    between atoms: O_49  and  C_50
REMARK   20  A    between atoms: C_50  and  C_52
REMARK   21  A    between atoms: C_53  and  C_54
REMARK   22  A    between atoms: C_57  and  O_60
REMARK                            x       y       z     vdW  Elec       q    Type
REMARK                         _______ _______ _______ _____ _____    ______ ____
ROOT
ATOM      1  C   UNL     1       5.564  -3.135  27.983  0.00  0.00    +0.192 C 
ATOM      2  O   UNL     1       5.685  -2.784  26.596  0.00  0.00    -0.330 OA
ATOM      3  C   UNL     1       5.284  -1.431  26.337  0.00  0.00    +0.341 C 
ATOM      4  C   UNL     1       3.793  -1.246  26.693  0.00  0.00    +0.226 C 
ATOM      5  C   UNL     1       3.594  -1.598  28.166  0.00  0.00    +0.242 C 
ATOM      6  C   UNL     1       4.095  -3.021  28.445  0.00  0.00    +0.190 C 
ENDROOT
BRANCH   6   7
ATOM      7  O   UNL     1       3.950  -3.285  29.843  0.00  0.00    -0.385 OA
ATOM      8  H   UNL     1       4.821  -3.149  30.259  0.00  0.00    +0.210 HD
ENDBRANCH   6   7
BRANCH   4   9
ATOM      9  O   UNL     1       3.322   0.083  26.418  0.00  0.00    -0.382 OA
ATOM     10  H   UNL     1       2.433   0.019  26.022  0.00  0.00    +0.210 HD
ENDBRANCH   4   9
BRANCH   1  11
ATOM     11  C   UNL     1       6.113  -4.561  28.151  0.00  0.00    +0.266 C 
BRANCH  11  12
ATOM     12  O   UNL     1       5.110  -5.488  28.595  0.00  0.00    -0.459 OA
BRANCH  12  13
ATOM     13  C   UNL     1       5.276  -6.766  28.161  0.00  0.00    +0.332 C 
ATOM     14  O   UNL     1       6.072  -7.581  28.591  0.00  0.00    -0.246 OA
BRANCH  13  16
ATOM     15  C   UNL     1       4.117  -6.087  26.117  0.00  0.00    +0.015 C 
ATOM     16  C   UNL     1       4.299  -7.002  27.082  0.00  0.00    +0.092 C 
BRANCH  15  19
ATOM     17  C   UNL     1       1.821  -7.659  23.537  0.00  0.00    +0.162 A 
ATOM     18  C   UNL     1       2.689  -7.521  24.621  0.00  0.00    +0.057 A 
ATOM     19  C   UNL     1       3.188  -6.260  24.988  0.00  0.00    -0.021 A 
ATOM     20  C   UNL     1       2.762  -5.130  24.274  0.00  0.00    +0.012 A 
ATOM     21  C   UNL     1       1.905  -5.262  23.179  0.00  0.00    +0.050 A 
ATOM     22  C   UNL     1       1.458  -6.523  22.811  0.00  0.00    +0.158 A 
BRANCH  22  23
ATOM     23  O   UNL     1       0.635  -6.629  21.724  0.00  0.00    -0.503 OA
ATOM     24  H   UNL     1       0.789  -5.815  21.206  0.00  0.00    +0.292 HD
ENDBRANCH  22  23
BRANCH  17  26
ATOM     25  C   UNL     1       0.599  -9.605  24.078  0.00  0.00    +0.277 C 
ATOM     26  O   UNL     1       1.301  -8.849  23.094  0.00  0.00    -0.491 OA
ENDBRANCH  17  26
ENDBRANCH  15  19
ENDBRANCH  13  16
ENDBRANCH  12  13
ENDBRANCH  11  12
ENDBRANCH   1  11
BRANCH   5  27
ATOM     27  O   UNL     1       2.190  -1.509  28.492  0.00  0.00    -0.453 OA
BRANCH  27  28
ATOM     28  C   UNL     1       1.377  -2.295  27.741  0.00  0.00    +0.332 C 
ATOM     29  O   UNL     1       0.724  -1.954  26.768  0.00  0.00    -0.246 OA
BRANCH  28  30
ATOM     30  C   UNL     1       1.416  -3.661  28.291  0.00  0.00    +0.092 C 
ATOM     31  C   UNL     1       0.910  -4.674  27.570  0.00  0.00    +0.015 C 
BRANCH  31  32
ATOM     32  C   UNL     1       0.927  -6.075  28.013  0.00  0.00    -0.025 A 
ATOM     33  C   UNL     1       1.491  -6.388  29.258  0.00  0.00    +0.011 A 
ATOM     34  C   UNL     1       1.518  -7.708  29.712  0.00  0.00    +0.046 A 
ATOM     35  C   UNL     1       0.995  -8.720  28.918  0.00  0.00    +0.117 A 
ATOM     36  C   UNL     1       0.467  -8.438  27.663  0.00  0.00    +0.046 A 
ATOM     37  C   UNL     1       0.443  -7.117  27.209  0.00  0.00    +0.011 A 
BRANCH  35  38
ATOM     38  O   UNL     1       1.013  -9.991  29.409  0.00  0.00    -0.507 OA
ATOM     39  H   UNL     1       1.934 -10.300  29.428  0.00  0.00    +0.292 HD
ENDBRANCH  35  38
ENDBRANCH  31  32
ENDBRANCH  28  30
ENDBRANCH  27  28
ENDBRANCH   5  27
BRANCH   3  40
ATOM     40  O   UNL     1       5.384  -1.158  24.940  0.00  0.00    -0.453 OA
BRANCH  40  41
ATOM     41  C   UNL     1       6.459  -0.444  24.450  0.00  0.00    +0.214 A 
ATOM     42  C   UNL     1       6.528   1.039  24.603  0.00  0.00    +0.238 A 
ATOM     43  O   UNL     1       5.554   1.675  24.994  0.00  0.00    -0.283 OA
ATOM     44  C   UNL     1       7.775   1.699  24.182  0.00  0.00    +0.109 A 
ATOM     45  C   UNL     1       8.685   0.949  23.438  0.00  0.00    +0.147 A 
ATOM     46  C   UNL     1       9.855   1.543  22.952  0.00  0.00    +0.092 A 
ATOM     47  C   UNL     1      10.100   2.889  23.218  0.00  0.00    +0.124 A 
ATOM     48  C   UNL     1       9.208   3.646  23.966  0.00  0.00    +0.091 A 
ATOM     49  O   UNL     1       8.485  -0.375  23.125  0.00  0.00    -0.451 OA
ATOM     50  C   UNL     1       8.046   3.049  24.453  0.00  0.00    +0.135 A 
ATOM     51  C   UNL     1       7.382  -1.037  23.658  0.00  0.00    +0.181 A 
BRANCH  51  52
ATOM     52  C   UNL     1       7.297  -2.477  23.261  0.00  0.00    +0.025 A 
ATOM     53  C   UNL     1       7.952  -3.476  24.008  0.00  0.00    +0.015 A 
ATOM     54  C   UNL     1       7.857  -4.830  23.650  0.00  0.00    +0.050 A 
ATOM     55  C   UNL     1       7.093  -5.196  22.553  0.00  0.00    +0.158 A 
ATOM     56  C   UNL     1       6.456  -4.230  21.789  0.00  0.00    +0.159 A 
ATOM     57  C   UNL     1       6.582  -2.884  22.114  0.00  0.00    +0.060 A 
BRANCH  56  58
ATOM     58  O   UNL     1       5.700  -4.647  20.726  0.00  0.00    -0.503 OA
ATOM     59  H   UNL     1       5.621  -3.901  20.104  0.00  0.00    +0.292 HD
ENDBRANCH  56  58
BRANCH  55  60
ATOM     60  O   UNL     1       6.969  -6.515  22.223  0.00  0.00    -0.503 OA
ATOM     61  H   UNL     1       7.235  -6.556  21.283  0.00  0.00    +0.292 HD
ENDBRANCH  55  60
ENDBRANCH  51  52
BRANCH  50  62
ATOM     62  O   UNL     1       7.192   3.799  25.211  0.00  0.00    -0.506 OA
ATOM     63  H   UNL     1       6.273   3.639  24.942  0.00  0.00    +0.292 HD
ENDBRANCH  50  62
BRANCH  47  64
ATOM     64  O   UNL     1      11.219   3.520  22.759  0.00  0.00    -0.507 OA
ATOM     65  H   UNL     1      11.744   3.835  23.513  0.00  0.00    +0.292 HD
ENDBRANCH  47  64
ENDBRANCH  40  41
ENDBRANCH   3  40
TORSDOF 21
ENDMDL
MODEL 8
REMARK VINA RESULT:      -5.8      2.631      6.974
REMARK  Name = 
REMARK  22 active torsions:
REMARK  status: ('A' for Active; 'I' for Inactive)
REMARK    1  A    between atoms: C_1  and  O_2
REMARK    2  A    between atoms: O_2  and  C_3
REMARK    3  A    between atoms: C_4  and  O_62
REMARK    4  A    between atoms: C_7  and  C_9
REMARK    5  A    between atoms: C_10  and  C_11
REMARK    6  A    between atoms: C_11  and  O_13
REMARK    7  A    between atoms: O_13  and  C_14
REMARK    8  A    between atoms: C_14  and  C_15
REMARK    9  A    between atoms: C_17  and  O_61
REMARK   10  A    between atoms: C_19  and  O_49
REMARK   11  A    between atoms: C_21  and  O_48
REMARK   12  A    between atoms: C_23  and  O_26
REMARK   13  A    between atoms: O_26  and  C_27
REMARK   14  A    between atoms: C_28  and  C_40
REMARK   15  A    between atoms: C_32  and  O_39
REMARK   16  A    between atoms: C_34  and  O_38
REMARK   17  A    between atoms: C_42  and  O_47
REMARK   18  A    between atoms: C_43  and  O_46
REMARK   19  A    between atoms: O_49  and  C_50
REMARK   20  A    between atoms: C_50  and  C_52
REMARK   21  A    between atoms: C_53  and  C_54
REMARK   22  A    between atoms: C_57  and  O_60
REMARK                            x       y       z     vdW  Elec       q    Type
REMARK                         _______ _______ _______ _____ _____    ______ ____
ROOT
ATOM      1  C   UNL     1       6.942   0.100  26.707  0.00  0.00    +0.192 C 
ATOM      2  O   UNL     1       7.315   1.429  26.314  0.00  0.00    -0.330 OA
ATOM      3  C   UNL     1       7.667   1.511  24.926  0.00  0.00    +0.341 C 
ATOM      4  C   UNL     1       8.898   0.623  24.641  0.00  0.00    +0.226 C 
ATOM      5  C   UNL     1       8.566  -0.815  25.032  0.00  0.00    +0.242 C 
ATOM      6  C   UNL     1       8.120  -0.878  26.499  0.00  0.00    +0.190 C 
ENDROOT
BRANCH   6   7
ATOM      7  O   UNL     1       7.757  -2.227  26.804  0.00  0.00    -0.385 OA
ATOM      8  H   UNL     1       7.805  -2.331  27.772  0.00  0.00    +0.210 HD
ENDBRANCH   6   7
BRANCH   4   9
ATOM      9  O   UNL     1       9.323   0.694  23.271  0.00  0.00    -0.382 OA
ATOM     10  H   UNL     1       9.499  -0.212  22.955  0.00  0.00    +0.210 HD
ENDBRANCH   4   9
BRANCH   1  11
ATOM     11  C   UNL     1       6.493   0.158  28.176  0.00  0.00    +0.266 C 
BRANCH  11  12
ATOM     12  O   UNL     1       5.068   0.283  28.312  0.00  0.00    -0.459 OA
BRANCH  12  13
ATOM     13  C   UNL     1       4.511  -0.505  29.270  0.00  0.00    +0.332 C 
ATOM     14  O   UNL     1       4.679  -0.415  30.471  0.00  0.00    -0.246 OA
BRANCH  13  16
ATOM     15  C   UNL     1       4.143  -2.305  27.654  0.00  0.00    +0.015 C 
ATOM     16  C   UNL     1       3.642  -1.485  28.591  0.00  0.00    +0.092 C 
BRANCH  15  19
ATOM     17  C   UNL     1       2.066  -5.400  26.942  0.00  0.00    +0.162 A 
ATOM     18  C   UNL     1       2.800  -4.432  27.631  0.00  0.00    +0.057 A 
ATOM     19  C   UNL     1       3.352  -3.331  26.955  0.00  0.00    -0.021 A 
ATOM     20  C   UNL     1       3.117  -3.193  25.579  0.00  0.00    +0.012 A 
ATOM     21  C   UNL     1       2.396  -4.165  24.880  0.00  0.00    +0.050 A 
ATOM     22  C   UNL     1       1.895  -5.265  25.563  0.00  0.00    +0.158 A 
BRANCH  22  23
ATOM     23  O   UNL     1       1.210  -6.212  24.854  0.00  0.00    -0.503 OA
ATOM     24  H   UNL     1       0.686  -6.700  25.518  0.00  0.00    +0.292 HD
ENDBRANCH  22  23
BRANCH  17  26
ATOM     25  C   UNL     1       2.161  -6.983  28.690  0.00  0.00    +0.277 C 
ATOM     26  O   UNL     1       1.508  -6.516  27.512  0.00  0.00    -0.491 OA
ENDBRANCH  17  26
ENDBRANCH  15  19
ENDBRANCH  13  16
ENDBRANCH  12  13
ENDBRANCH  11  12
ENDBRANCH   1  11
BRANCH   5  27
ATOM     27  O   UNL     1       9.736  -1.642  24.849  0.00  0.00    -0.453 OA
BRANCH  27  28
ATOM     28  C   UNL     1       9.807  -2.275  23.650  0.00  0.00    +0.332 C 
ATOM     29  O   UNL     1      10.709  -2.193  22.833  0.00  0.00    -0.246 OA
BRANCH  28  30
ATOM     30  C   UNL     1       8.599  -3.102  23.490  0.00  0.00    +0.092 C 
ATOM     31  C   UNL     1       8.398  -4.139  24.319  0.00  0.00    +0.015 C 
BRANCH  31  32
ATOM     32  C   UNL     1       7.213  -5.005  24.264  0.00  0.00    -0.025 A 
ATOM     33  C   UNL     1       6.734  -5.426  23.015  0.00  0.00    +0.011 A 
ATOM     34  C   UNL     1       5.614  -6.255  22.928  0.00  0.00    +0.046 A 
ATOM     35  C   UNL     1       4.962  -6.654  24.087  0.00  0.00    +0.117 A 
ATOM     36  C   UNL     1       5.395  -6.218  25.333  0.00  0.00    +0.046 A 
ATOM     37  C   UNL     1       6.514  -5.386  25.419  0.00  0.00    +0.011 A 
BRANCH  35  38
ATOM     38  O   UNL     1       3.890  -7.487  23.961  0.00  0.00    -0.507 OA
ATOM     39  H   UNL     1       3.091  -7.001  24.222  0.00  0.00    +0.292 HD
ENDBRANCH  35  38
ENDBRANCH  31  32
ENDBRANCH  28  30
ENDBRANCH  27  28
ENDBRANCH   5  27
BRANCH   3  40
ATOM     40  O   UNL     1       8.070   2.843  24.608  0.00  0.00    -0.453 OA
BRANCH  40  41
ATOM     41  C   UNL     1       7.178   3.712  24.013  0.00  0.00    +0.214 A 
ATOM     42  C   UNL     1       5.915   3.211  23.398  0.00  0.00    +0.238 A 
ATOM     43  O   UNL     1       5.729   2.008  23.236  0.00  0.00    -0.283 OA
ATOM     44  C   UNL     1       4.957   4.220  22.916  0.00  0.00    +0.109 A 
ATOM     45  C   UNL     1       5.397   5.540  22.827  0.00  0.00    +0.147 A 
ATOM     46  C   UNL     1       4.553   6.530  22.312  0.00  0.00    +0.092 A 
ATOM     47  C   UNL     1       3.271   6.185  21.891  0.00  0.00    +0.124 A 
ATOM     48  C   UNL     1       2.814   4.876  21.985  0.00  0.00    +0.091 A 
ATOM     49  O   UNL     1       6.660   5.935  23.204  0.00  0.00    -0.451 OA
ATOM     50  C   UNL     1       3.656   3.893  22.502  0.00  0.00    +0.135 A 
ATOM     51  C   UNL     1       7.507   5.008  23.805  0.00  0.00    +0.181 A 
BRANCH  51  52
ATOM     52  C   UNL     1       8.838   5.573  24.190  0.00  0.00    +0.025 A 
ATOM     53  C   UNL     1       8.988   6.342  25.361  0.00  0.00    +0.015 A 
ATOM     54  C   UNL     1      10.239   6.856  25.736  0.00  0.00    +0.050 A 
ATOM     55  C   UNL     1      11.351   6.591  24.952  0.00  0.00    +0.158 A 
ATOM     56  C   UNL     1      11.226   5.854  23.785  0.00  0.00    +0.159 A 
ATOM     57  C   UNL     1       9.982   5.380  23.386  0.00  0.00    +0.060 A 
BRANCH  56  58
ATOM     58  O   UNL     1      12.358   5.606  23.057  0.00  0.00    -0.503 OA
ATOM     59  H   UNL     1      12.605   6.429  22.597  0.00  0.00    +0.292 HD
ENDBRANCH  56  58
BRANCH  55  60
ATOM     60  O   UNL     1      12.576   7.059  25.334  0.00  0.00    -0.503 OA
ATOM     61  H   UNL     1      13.205   6.381  25.016  0.00  0.00    +0.292 HD
ENDBRANCH  55  60
ENDBRANCH  51  52
BRANCH  50  62
ATOM     62  O   UNL     1       3.183   2.617  22.614  0.00  0.00    -0.506 OA
ATOM     63  H   UNL     1       3.829   1.985  22.258  0.00  0.00    +0.292 HD
ENDBRANCH  50  62
BRANCH  47  64
ATOM     64  O   UNL     1       2.412   7.108  21.372  0.00  0.00    -0.507 OA
ATOM     65  H   UNL     1       2.711   7.362  20.482  0.00  0.00    +0.292 HD
ENDBRANCH  47  64
ENDBRANCH  40  41
ENDBRANCH   3  40
TORSDOF 21
ENDMDL
MODEL 9
REMARK VINA RESULT:      -5.8      2.455      6.520
REMARK  Name = 
REMARK  22 active torsions:
REMARK  status: ('A' for Active; 'I' for Inactive)
REMARK    1  A    between atoms: C_1  and  O_2
REMARK    2  A    between atoms: O_2  and  C_3
REMARK    3  A    between atoms: C_4  and  O_62
REMARK    4  A    between atoms: C_7  and  C_9
REMARK    5  A    between atoms: C_10  and  C_11
REMARK    6  A    between atoms: C_11  and  O_13
REMARK    7  A    between atoms: O_13  and  C_14
REMARK    8  A    between atoms: C_14  and  C_15
REMARK    9  A    between atoms: C_17  and  O_61
REMARK   10  A    between atoms: C_19  and  O_49
REMARK   11  A    between atoms: C_21  and  O_48
REMARK   12  A    between atoms: C_23  and  O_26
REMARK   13  A    between atoms: O_26  and  C_27
REMARK   14  A    between atoms: C_28  and  C_40
REMARK   15  A    between atoms: C_32  and  O_39
REMARK   16  A    between atoms: C_34  and  O_38
REMARK   17  A    between atoms: C_42  and  O_47
REMARK   18  A    between atoms: C_43  and  O_46
REMARK   19  A    between atoms: O_49  and  C_50
REMARK   20  A    between atoms: C_50  and  C_52
REMARK   21  A    between atoms: C_53  and  C_54
REMARK   22  A    between atoms: C_57  and  O_60
REMARK                            x       y       z     vdW  Elec       q    Type
REMARK                         _______ _______ _______ _____ _____    ______ ____
ROOT
ATOM      1  C   UNL     1       9.530  -0.542  24.417  0.00  0.00    +0.192 C 
ATOM      2  O   UNL     1       9.488   0.589  23.533  0.00  0.00    -0.330 OA
ATOM      3  C   UNL     1       9.398   1.834  24.241  0.00  0.00    +0.341 C 
ATOM      4  C   UNL     1       8.087   1.883  25.055  0.00  0.00    +0.226 C 
ATOM      5  C   UNL     1       8.069   0.705  26.026  0.00  0.00    +0.242 C 
ATOM      6  C   UNL     1       8.241  -0.615  25.264  0.00  0.00    +0.190 C 
ENDROOT
BRANCH   6   7
ATOM      7  O   UNL     1       8.284  -1.684  26.214  0.00  0.00    -0.385 OA
ATOM      8  H   UNL     1       8.886  -1.415  26.930  0.00  0.00    +0.210 HD
ENDBRANCH   6   7
BRANCH   4   9
ATOM      9  O   UNL     1       7.921   3.125  25.757  0.00  0.00    -0.382 OA
ATOM     10  H   UNL     1       7.745   3.828  25.103  0.00  0.00    +0.210 HD
ENDBRANCH   4   9
BRANCH   1  11
ATOM     11  C   UNL     1       9.727  -1.799  23.555  0.00  0.00    +0.266 C 
BRANCH  11  12
ATOM     12  O   UNL     1       8.790  -2.839  23.875  0.00  0.00    -0.459 OA
BRANCH  12  13
ATOM     13  C   UNL     1       7.943  -3.180  22.867  0.00  0.00    +0.332 C 
ATOM     14  O   UNL     1       7.849  -2.634  21.783  0.00  0.00    -0.246 OA
BRANCH  13  16
ATOM     15  C   UNL     1       5.856  -4.239  23.578  0.00  0.00    +0.015 C 
ATOM     16  C   UNL     1       7.166  -4.352  23.312  0.00  0.00    +0.092 C 
BRANCH  15  19
ATOM     17  C   UNL     1       3.034  -6.771  23.722  0.00  0.00    +0.162 A 
ATOM     18  C   UNL     1       3.833  -5.708  23.298  0.00  0.00    +0.057 A 
ATOM     19  C   UNL     1       5.004  -5.364  23.994  0.00  0.00    -0.021 A 
ATOM     20  C   UNL     1       5.385  -6.138  25.100  0.00  0.00    +0.012 A 
ATOM     21  C   UNL     1       4.583  -7.195  25.540  0.00  0.00    +0.050 A 
ATOM     22  C   UNL     1       3.410  -7.489  24.860  0.00  0.00    +0.158 A 
BRANCH  22  23
ATOM     23  O   UNL     1       2.632  -8.515  25.320  0.00  0.00    -0.503 OA
ATOM     24  H   UNL     1       3.148  -8.924  26.041  0.00  0.00    +0.292 HD
ENDBRANCH  22  23
BRANCH  17  26
ATOM     25  C   UNL     1       1.062  -6.105  22.609  0.00  0.00    +0.277 C 
ATOM     26  O   UNL     1       1.866  -7.166  23.119  0.00  0.00    -0.491 OA
ENDBRANCH  17  26
ENDBRANCH  15  19
ENDBRANCH  13  16
ENDBRANCH  12  13
ENDBRANCH  11  12
ENDBRANCH   1  11
BRANCH   5  27
ATOM     27  O   UNL     1       6.811   0.691  26.736  0.00  0.00    -0.453 OA
BRANCH  27  28
ATOM     28  C   UNL     1       5.714   0.536  25.952  0.00  0.00    +0.332 C 
ATOM     29  O   UNL     1       5.459   1.143  24.925  0.00  0.00    -0.246 OA
BRANCH  28  30
ATOM     30  C   UNL     1       4.863  -0.510  26.545  0.00  0.00    +0.092 C 
ATOM     31  C   UNL     1       4.843  -1.732  25.990  0.00  0.00    +0.015 C 
BRANCH  31  32
ATOM     32  C   UNL     1       4.054  -2.852  26.522  0.00  0.00    -0.025 A 
ATOM     33  C   UNL     1       2.790  -3.114  25.976  0.00  0.00    +0.011 A 
ATOM     34  C   UNL     1       2.017  -4.175  26.454  0.00  0.00    +0.046 A 
ATOM     35  C   UNL     1       2.500  -4.967  27.487  0.00  0.00    +0.117 A 
ATOM     36  C   UNL     1       3.733  -4.701  28.070  0.00  0.00    +0.046 A 
ATOM     37  C   UNL     1       4.504  -3.638  27.593  0.00  0.00    +0.011 A 
BRANCH  35  38
ATOM     38  O   UNL     1       1.729  -6.010  27.906  0.00  0.00    -0.507 OA
ATOM     39  H   UNL     1       2.094  -6.347  28.740  0.00  0.00    +0.292 HD
ENDBRANCH  35  38
ENDBRANCH  31  32
ENDBRANCH  28  30
ENDBRANCH  27  28
ENDBRANCH   5  27
BRANCH   3  40
ATOM     40  O   UNL     1       9.315   2.913  23.310  0.00  0.00    -0.453 OA
BRANCH  40  41
ATOM     41  C   UNL     1       8.218   3.750  23.317  0.00  0.00    +0.214 A 
ATOM     42  C   UNL     1       6.950   3.357  22.636  0.00  0.00    +0.238 A 
ATOM     43  O   UNL     1       6.912   2.377  21.898  0.00  0.00    -0.283 OA
ATOM     44  C   UNL     1       5.788   4.243  22.818  0.00  0.00    +0.109 A 
ATOM     45  C   UNL     1       6.014   5.499  23.381  0.00  0.00    +0.147 A 
ATOM     46  C   UNL     1       4.961   6.410  23.516  0.00  0.00    +0.092 A 
ATOM     47  C   UNL     1       3.686   6.050  23.082  0.00  0.00    +0.124 A 
ATOM     48  C   UNL     1       3.444   4.798  22.529  0.00  0.00    +0.091 A 
ATOM     49  O   UNL     1       7.254   5.918  23.805  0.00  0.00    -0.451 OA
ATOM     50  C   UNL     1       4.495   3.892  22.401  0.00  0.00    +0.135 A 
ATOM     51  C   UNL     1       8.317   5.019  23.775  0.00  0.00    +0.181 A 
BRANCH  51  52
ATOM     52  C   UNL     1       9.601   5.592  24.287  0.00  0.00    +0.025 A 
ATOM     53  C   UNL     1       9.616   6.474  25.386  0.00  0.00    +0.015 A 
ATOM     54  C   UNL     1      10.821   6.997  25.881  0.00  0.00    +0.050 A 
ATOM     55  C   UNL     1      12.020   6.629  25.291  0.00  0.00    +0.158 A 
ATOM     56  C   UNL     1      12.031   5.780  24.195  0.00  0.00    +0.159 A 
ATOM     57  C   UNL     1      10.838   5.294  23.674  0.00  0.00    +0.060 A 
BRANCH  56  58
ATOM     58  O   UNL     1      13.244   5.435  23.662  0.00  0.00    -0.503 OA
ATOM     59  H   UNL     1      13.165   4.535  23.296  0.00  0.00    +0.292 HD
ENDBRANCH  56  58
BRANCH  55  60
ATOM     60  O   UNL     1      13.196   7.108  25.793  0.00  0.00    -0.503 OA
ATOM     61  H   UNL     1      13.307   6.637  26.642  0.00  0.00    +0.292 HD
ENDBRANCH  55  60
ENDBRANCH  51  52
BRANCH  50  62
ATOM     62  O   UNL     1       4.235   2.656  21.882  0.00  0.00    -0.506 OA
ATOM     63  H   UNL     1       3.467   2.259  22.324  0.00  0.00    +0.292 HD
ENDBRANCH  50  62
BRANCH  47  64
ATOM     64  O   UNL     1       2.627   6.903  23.179  0.00  0.00    -0.507 OA
ATOM     65  H   UNL     1       2.099   6.856  22.364  0.00  0.00    +0.292 HD
ENDBRANCH  47  64
ENDBRANCH  40  41
ENDBRANCH   3  40
TORSDOF 21
ENDMDL
