MODEL 1
REMARK VINA RESULT:      -7.0      0.000      0.000
REMARK  Name = 
REMARK  14 active torsions:
REMARK  status: ('A' for Active; 'I' for Inactive)
REMARK    1  A    between atoms: C_1  and  C_2
REMARK    2  A    between atoms: C_2  and  C_3
REMARK    3  A    between atoms: C_3  and  C_4
REMARK    4  A    between atoms: C_4  and  C_5
REMARK    5  A    between atoms: C_5  and  C_6
REMARK    6  A    between atoms: C_6  and  C_7
REMARK    7  A    between atoms: C_7  and  C_8
REMARK    8  A    between atoms: C_8  and  O_10
REMARK    9  A    between atoms: O_10  and  C_11
REMARK   10  A    between atoms: C_12  and  C_24
REMARK   11  A    between atoms: C_16  and  O_23
REMARK   12  A    between atoms: C_18  and  O_22
REMARK   13  A    between atoms: C_26  and  O_31
REMARK   14  A    between atoms: C_27  and  O_30
REMARK                            x       y       z     vdW  Elec       q    Type
REMARK                         _______ _______ _______ _____ _____    ______ ____
ROOT
ATOM      1  C   UNL     1       7.300  -3.839  25.402  0.00  0.00    +0.221 A 
ATOM      2  C   UNL     1       6.816  -5.076  26.063  0.00  0.00    +0.239 A 
ATOM      3  O   UNL     1       7.427  -5.542  27.016  0.00  0.00    -0.283 OA
ATOM      4  C   UNL     1       5.650  -5.730  25.445  0.00  0.00    +0.109 A 
ATOM      5  C   UNL     1       5.291  -5.326  24.156  0.00  0.00    +0.147 A 
ATOM      6  C   UNL     1       4.241  -5.964  23.488  0.00  0.00    +0.092 A 
ATOM      7  C   UNL     1       3.557  -6.999  24.122  0.00  0.00    +0.124 A 
ATOM      8  C   UNL     1       3.891  -7.396  25.413  0.00  0.00    +0.091 A 
ATOM      9  O   UNL     1       5.945  -4.327  23.468  0.00  0.00    -0.451 OA
ATOM     10  C   UNL     1       4.936  -6.756  26.078  0.00  0.00    +0.135 A 
ATOM     11  C   UNL     1       6.908  -3.574  24.137  0.00  0.00    +0.182 A 
ENDROOT
BRANCH  11  12
ATOM     12  C   UNL     1       7.457  -2.436  23.336  0.00  0.00    +0.025 A 
ATOM     13  C   UNL     1       6.738  -1.234  23.188  0.00  0.00    +0.015 A 
ATOM     14  C   UNL     1       7.273  -0.145  22.480  0.00  0.00    +0.050 A 
ATOM     15  C   UNL     1       8.536  -0.253  21.926  0.00  0.00    +0.158 A 
ATOM     16  C   UNL     1       9.258  -1.430  22.032  0.00  0.00    +0.159 A 
ATOM     17  C   UNL     1       8.710  -2.529  22.692  0.00  0.00    +0.060 A 
BRANCH  15  18
ATOM     18  O   UNL     1       9.082   0.822  21.277  0.00  0.00    -0.503 OA
ATOM     19  H   UNL     1       9.230   1.487  21.979  0.00  0.00    +0.292 HD
ENDBRANCH  15  18
BRANCH  16  20
ATOM     20  O   UNL     1      10.515  -1.464  21.494  0.00  0.00    -0.503 OA
ATOM     21  H   UNL     1      10.967  -2.263  21.816  0.00  0.00    +0.292 HD
ENDBRANCH  16  20
ENDBRANCH  11  12
BRANCH   7  22
ATOM     22  O   UNL     1       2.540  -7.669  23.510  0.00  0.00    -0.507 OA
ATOM     23  H   UNL     1       2.134  -7.095  22.839  0.00  0.00    +0.292 HD
ENDBRANCH   7  22
BRANCH  10  24
ATOM     24  O   UNL     1       5.237  -7.139  27.353  0.00  0.00    -0.506 OA
ATOM     25  H   UNL     1       5.670  -8.007  27.355  0.00  0.00    +0.292 HD
ENDBRANCH  10  24
BRANCH   1  26
ATOM     26  O   UNL     1       8.219  -3.028  26.087  0.00  0.00    -0.418 OA
BRANCH  26  27
ATOM     27  C   UNL     1       7.635  -1.970  26.734  0.00  0.00    +0.313 C 
ATOM     28  O   UNL     1       6.440  -1.768  26.905  0.00  0.00    -0.250 OA
BRANCH  27  29
ATOM     29  C   UNL     1       8.696  -0.934  27.013  0.00  0.00    +0.121 C 
BRANCH  29  30
ATOM     30  C   UNL     1       8.818   0.000  25.807  0.00  0.00    +0.011 C 
BRANCH  30  31
ATOM     31  C   UNL     1      10.207  -0.053  25.163  0.00  0.00    +0.001 C 
BRANCH  31  32
ATOM     32  C   UNL     1      10.553   1.254  24.460  0.00  0.00    +0.000 C 
BRANCH  32  33
ATOM     33  C   UNL     1       9.367   2.220  24.513  0.00  0.00    -0.000 C 
BRANCH  33  35
ATOM     34  C   UNL     1      11.143   3.569  23.347  0.00  0.00    +0.004 C 
ATOM     35  C   UNL     1       9.684   3.516  23.772  0.00  0.00    -0.003 C 
ENDBRANCH  33  35
ENDBRANCH  32  33
ENDBRANCH  31  32
ENDBRANCH  30  31
ENDBRANCH  29  30
ENDBRANCH  27  29
ENDBRANCH  26  27
ENDBRANCH   1  26
TORSDOF 13
ENDMDL
MODEL 2
REMARK VINA RESULT:      -6.7      2.083      7.977
REMARK  Name = 
REMARK  14 active torsions:
REMARK  status: ('A' for Active; 'I' for Inactive)
REMARK    1  A    between atoms: C_1  and  C_2
REMARK    2  A    between atoms: C_2  and  C_3
REMARK    3  A    between atoms: C_3  and  C_4
REMARK    4  A    between atoms: C_4  and  C_5
REMARK    5  A    between atoms: C_5  and  C_6
REMARK    6  A    between atoms: C_6  and  C_7
REMARK    7  A    between atoms: C_7  and  C_8
REMARK    8  A    between atoms: C_8  and  O_10
REMARK    9  A    between atoms: O_10  and  C_11
REMARK   10  A    between atoms: C_12  and  C_24
REMARK   11  A    between atoms: C_16  and  O_23
REMARK   12  A    between atoms: C_18  and  O_22
REMARK   13  A    between atoms: C_26  and  O_31
REMARK   14  A    between atoms: C_27  and  O_30
REMARK                            x       y       z     vdW  Elec       q    Type
REMARK                         _______ _______ _______ _____ _____    ______ ____
ROOT
ATOM      1  C   UNL     1       8.514  -1.381  23.163  0.00  0.00    +0.221 A 
ATOM      2  C   UNL     1       8.808  -0.118  22.444  0.00  0.00    +0.239 A 
ATOM      3  O   UNL     1       9.272  -0.150  21.311  0.00  0.00    -0.283 OA
ATOM      4  C   UNL     1       8.604   1.127  23.204  0.00  0.00    +0.109 A 
ATOM      5  C   UNL     1       8.452   1.019  24.589  0.00  0.00    +0.147 A 
ATOM      6  C   UNL     1       8.331   2.171  25.373  0.00  0.00    +0.092 A 
ATOM      7  C   UNL     1       8.360   3.422  24.758  0.00  0.00    +0.124 A 
ATOM      8  C   UNL     1       8.490   3.541  23.379  0.00  0.00    +0.091 A 
ATOM      9  O   UNL     1       8.440  -0.186  25.256  0.00  0.00    -0.451 OA
ATOM     10  C   UNL     1       8.606   2.391  22.599  0.00  0.00    +0.135 A 
ATOM     11  C   UNL     1       8.424  -1.363  24.511  0.00  0.00    +0.182 A 
ENDROOT
BRANCH  11  12
ATOM     12  C   UNL     1       8.280  -2.605  25.333  0.00  0.00    +0.025 A 
ATOM     13  C   UNL     1       7.213  -2.762  26.238  0.00  0.00    +0.015 A 
ATOM     14  C   UNL     1       7.046  -3.946  26.974  0.00  0.00    +0.050 A 
ATOM     15  C   UNL     1       7.944  -4.983  26.798  0.00  0.00    +0.158 A 
ATOM     16  C   UNL     1       9.019  -4.852  25.934  0.00  0.00    +0.159 A 
ATOM     17  C   UNL     1       9.215  -3.660  25.239  0.00  0.00    +0.060 A 
BRANCH  15  18
ATOM     18  O   UNL     1       7.758  -6.159  27.475  0.00  0.00    -0.503 OA
ATOM     19  H   UNL     1       7.208  -6.706  26.879  0.00  0.00    +0.292 HD
ENDBRANCH  15  18
BRANCH  16  20
ATOM     20  O   UNL     1       9.852  -5.925  25.776  0.00  0.00    -0.503 OA
ATOM     21  H   UNL     1       9.745  -6.267  24.871  0.00  0.00    +0.292 HD
ENDBRANCH  16  20
ENDBRANCH  11  12
BRANCH   7  22
ATOM     22  O   UNL     1       8.268   4.577  25.476  0.00  0.00    -0.507 OA
ATOM     23  H   UNL     1       7.821   5.254  24.940  0.00  0.00    +0.292 HD
ENDBRANCH   7  22
BRANCH  10  24
ATOM     24  O   UNL     1       8.709   2.522  21.245  0.00  0.00    -0.506 OA
ATOM     25  H   UNL     1       7.857   2.781  20.862  0.00  0.00    +0.292 HD
ENDBRANCH  10  24
BRANCH   1  26
ATOM     26  O   UNL     1       8.425  -2.570  22.422  0.00  0.00    -0.418 OA
BRANCH  26  27
ATOM     27  C   UNL     1       7.137  -3.005  22.243  0.00  0.00    +0.313 C 
ATOM     28  O   UNL     1       6.109  -2.344  22.325  0.00  0.00    -0.250 OA
BRANCH  27  29
ATOM     29  C   UNL     1       7.146  -4.511  22.160  0.00  0.00    +0.121 C 
BRANCH  29  30
ATOM     30  C   UNL     1       6.231  -5.082  23.245  0.00  0.00    +0.011 C 
BRANCH  30  31
ATOM     31  C   UNL     1       4.967  -5.726  22.666  0.00  0.00    +0.001 C 
BRANCH  31  32
ATOM     32  C   UNL     1       3.759  -5.511  23.569  0.00  0.00    +0.000 C 
BRANCH  32  33
ATOM     33  C   UNL     1       4.148  -4.678  24.793  0.00  0.00    -0.000 C 
BRANCH  33  35
ATOM     34  C   UNL     1       4.513  -6.751  26.171  0.00  0.00    +0.004 C 
ATOM     35  C   UNL     1       3.801  -5.411  26.085  0.00  0.00    -0.003 C 
ENDBRANCH  33  35
ENDBRANCH  32  33
ENDBRANCH  31  32
ENDBRANCH  30  31
ENDBRANCH  29  30
ENDBRANCH  27  29
ENDBRANCH  26  27
ENDBRANCH   1  26
TORSDOF 13
ENDMDL
MODEL 3
REMARK VINA RESULT:      -6.7      2.075      7.942
REMARK  Name = 
REMARK  14 active torsions:
REMARK  status: ('A' for Active; 'I' for Inactive)
REMARK    1  A    between atoms: C_1  and  C_2
REMARK    2  A    between atoms: C_2  and  C_3
REMARK    3  A    between atoms: C_3  and  C_4
REMARK    4  A    between atoms: C_4  and  C_5
REMARK    5  A    between atoms: C_5  and  C_6
REMARK    6  A    between atoms: C_6  and  C_7
REMARK    7  A    between atoms: C_7  and  C_8
REMARK    8  A    between atoms: C_8  and  O_10
REMARK    9  A    between atoms: O_10  and  C_11
REMARK   10  A    between atoms: C_12  and  C_24
REMARK   11  A    between atoms: C_16  and  O_23
REMARK   12  A    between atoms: C_18  and  O_22
REMARK   13  A    between atoms: C_26  and  O_31
REMARK   14  A    between atoms: C_27  and  O_30
REMARK                            x       y       z     vdW  Elec       q    Type
REMARK                         _______ _______ _______ _____ _____    ______ ____
ROOT
ATOM      1  C   UNL     1       8.346  -1.805  23.171  0.00  0.00    +0.221 A 
ATOM      2  C   UNL     1       8.748  -0.605  22.398  0.00  0.00    +0.239 A 
ATOM      3  O   UNL     1       9.193  -0.726  21.264  0.00  0.00    -0.283 OA
ATOM      4  C   UNL     1       8.671   0.683  23.109  0.00  0.00    +0.109 A 
ATOM      5  C   UNL     1       8.526   0.646  24.498  0.00  0.00    +0.147 A 
ATOM      6  C   UNL     1       8.522   1.834  25.235  0.00  0.00    +0.092 A 
ATOM      7  C   UNL     1       8.662   3.051  24.570  0.00  0.00    +0.124 A 
ATOM      8  C   UNL     1       8.786   3.102  23.185  0.00  0.00    +0.091 A 
ATOM      9  O   UNL     1       8.409  -0.526  25.214  0.00  0.00    -0.451 OA
ATOM     10  C   UNL     1       8.784   1.916  22.453  0.00  0.00    +0.135 A 
ATOM     11  C   UNL     1       8.274  -1.725  24.517  0.00  0.00    +0.182 A 
ENDROOT
BRANCH  11  12
ATOM     12  C   UNL     1       8.023  -2.914  25.391  0.00  0.00    +0.025 A 
ATOM     13  C   UNL     1       8.940  -3.982  25.451  0.00  0.00    +0.015 A 
ATOM     14  C   UNL     1       8.733  -5.075  26.307  0.00  0.00    +0.050 A 
ATOM     15  C   UNL     1       7.610  -5.099  27.115  0.00  0.00    +0.158 A 
ATOM     16  C   UNL     1       6.677  -4.076  27.061  0.00  0.00    +0.159 A 
ATOM     17  C   UNL     1       6.854  -3.014  26.177  0.00  0.00    +0.060 A 
BRANCH  15  18
ATOM     18  O   UNL     1       7.429  -6.138  27.988  0.00  0.00    -0.503 OA
ATOM     19  H   UNL     1       8.080  -6.813  27.711  0.00  0.00    +0.292 HD
ENDBRANCH  15  18
BRANCH  16  20
ATOM     20  O   UNL     1       5.607  -4.139  27.910  0.00  0.00    -0.503 OA
ATOM     21  H   UNL     1       4.828  -4.426  27.403  0.00  0.00    +0.292 HD
ENDBRANCH  16  20
ENDBRANCH  11  12
BRANCH   7  22
ATOM     22  O   UNL     1       8.687   4.237  25.240  0.00  0.00    -0.507 OA
ATOM     23  H   UNL     1       9.609   4.521  25.359  0.00  0.00    +0.292 HD
ENDBRANCH   7  22
BRANCH  10  24
ATOM     24  O   UNL     1       8.883   1.982  21.093  0.00  0.00    -0.506 OA
ATOM     25  H   UNL     1       9.496   2.686  20.829  0.00  0.00    +0.292 HD
ENDBRANCH  10  24
BRANCH   1  26
ATOM     26  O   UNL     1       8.136  -3.009  22.479  0.00  0.00    -0.418 OA
BRANCH  26  27
ATOM     27  C   UNL     1       6.828  -3.213  22.126  0.00  0.00    +0.313 C 
ATOM     28  O   UNL     1       5.876  -2.469  22.326  0.00  0.00    -0.250 OA
BRANCH  27  29
ATOM     29  C   UNL     1       6.676  -4.636  21.648  0.00  0.00    +0.121 C 
BRANCH  29  30
ATOM     30  C   UNL     1       6.963  -5.592  22.808  0.00  0.00    +0.011 C 
BRANCH  30  31
ATOM     31  C   UNL     1       5.819  -5.637  23.826  0.00  0.00    +0.001 C 
BRANCH  31  32
ATOM     32  C   UNL     1       4.497  -6.025  23.173  0.00  0.00    +0.000 C 
BRANCH  32  33
ATOM     33  C   UNL     1       3.454  -4.926  23.386  0.00  0.00    -0.000 C 
BRANCH  33  35
ATOM     34  C   UNL     1       2.543  -4.016  25.547  0.00  0.00    +0.004 C 
ATOM     35  C   UNL     1       3.760  -4.117  24.642  0.00  0.00    -0.003 C 
ENDBRANCH  33  35
ENDBRANCH  32  33
ENDBRANCH  31  32
ENDBRANCH  30  31
ENDBRANCH  29  30
ENDBRANCH  27  29
ENDBRANCH  26  27
ENDBRANCH   1  26
TORSDOF 13
ENDMDL
MODEL 4
REMARK VINA RESULT:      -6.7      2.609      4.708
REMARK  Name = 
REMARK  14 active torsions:
REMARK  status: ('A' for Active; 'I' for Inactive)
REMARK    1  A    between atoms: C_1  and  C_2
REMARK    2  A    between atoms: C_2  and  C_3
REMARK    3  A    between atoms: C_3  and  C_4
REMARK    4  A    between atoms: C_4  and  C_5
REMARK    5  A    between atoms: C_5  and  C_6
REMARK    6  A    between atoms: C_6  and  C_7
REMARK    7  A    between atoms: C_7  and  C_8
REMARK    8  A    between atoms: C_8  and  O_10
REMARK    9  A    between atoms: O_10  and  C_11
REMARK   10  A    between atoms: C_12  and  C_24
REMARK   11  A    between atoms: C_16  and  O_23
REMARK   12  A    between atoms: C_18  and  O_22
REMARK   13  A    between atoms: C_26  and  O_31
REMARK   14  A    between atoms: C_27  and  O_30
REMARK                            x       y       z     vdW  Elec       q    Type
REMARK                         _______ _______ _______ _____ _____    ______ ____
ROOT
ATOM      1  C   UNL     1       9.126  -1.085  24.273  0.00  0.00    +0.221 A 
ATOM      2  C   UNL     1       9.583  -2.496  24.245  0.00  0.00    +0.239 A 
ATOM      3  O   UNL     1      10.409  -2.856  23.416  0.00  0.00    -0.283 OA
ATOM      4  C   UNL     1       8.918  -3.414  25.184  0.00  0.00    +0.109 A 
ATOM      5  C   UNL     1       7.738  -2.975  25.791  0.00  0.00    +0.147 A 
ATOM      6  C   UNL     1       7.021  -3.830  26.633  0.00  0.00    +0.092 A 
ATOM      7  C   UNL     1       7.497  -5.120  26.861  0.00  0.00    +0.124 A 
ATOM      8  C   UNL     1       8.681  -5.562  26.280  0.00  0.00    +0.091 A 
ATOM      9  O   UNL     1       7.205  -1.721  25.584  0.00  0.00    -0.451 OA
ATOM     10  C   UNL     1       9.396  -4.706  25.445  0.00  0.00    +0.135 A 
ATOM     11  C   UNL     1       7.947  -0.789  24.862  0.00  0.00    +0.182 A 
ENDROOT
BRANCH  11  12
ATOM     12  C   UNL     1       7.332   0.574  24.811  0.00  0.00    +0.025 A 
ATOM     13  C   UNL     1       7.708   1.580  25.723  0.00  0.00    +0.015 A 
ATOM     14  C   UNL     1       7.170   2.874  25.646  0.00  0.00    +0.050 A 
ATOM     15  C   UNL     1       6.259   3.170  24.648  0.00  0.00    +0.158 A 
ATOM     16  C   UNL     1       5.849   2.197  23.751  0.00  0.00    +0.159 A 
ATOM     17  C   UNL     1       6.344   0.898  23.855  0.00  0.00    +0.060 A 
BRANCH  15  18
ATOM     18  O   UNL     1       5.769   4.444  24.537  0.00  0.00    -0.503 OA
ATOM     19  H   UNL     1       5.867   4.667  23.590  0.00  0.00    +0.292 HD
ENDBRANCH  15  18
BRANCH  16  20
ATOM     20  O   UNL     1       4.974   2.560  22.765  0.00  0.00    -0.503 OA
ATOM     21  H   UNL     1       4.912   3.531  22.750  0.00  0.00    +0.292 HD
ENDBRANCH  16  20
ENDBRANCH  11  12
BRANCH   7  22
ATOM     22  O   UNL     1       6.828  -6.002  27.656  0.00  0.00    -0.507 OA
ATOM     23  H   UNL     1       7.467  -6.507  28.186  0.00  0.00    +0.292 HD
ENDBRANCH   7  22
BRANCH  10  24
ATOM     24  O   UNL     1      10.568  -5.144  24.900  0.00  0.00    -0.506 OA
ATOM     25  H   UNL     1      10.965  -4.455  24.345  0.00  0.00    +0.292 HD
ENDBRANCH  10  24
BRANCH   1  26
ATOM     26  O   UNL     1       9.896  -0.117  23.610  0.00  0.00    -0.418 OA
BRANCH  26  27
ATOM     27  C   UNL     1       9.497   0.107  22.318  0.00  0.00    +0.313 C 
ATOM     28  O   UNL     1       8.972  -0.691  21.551  0.00  0.00    -0.250 OA
BRANCH  27  29
ATOM     29  C   UNL     1      10.025   1.449  21.877  0.00  0.00    +0.121 C 
BRANCH  29  30
ATOM     30  C   UNL     1       9.602   2.515  22.890  0.00  0.00    +0.011 C 
BRANCH  30  31
ATOM     31  C   UNL     1      10.786   3.344  23.398  0.00  0.00    +0.001 C 
BRANCH  31  32
ATOM     32  C   UNL     1      10.362   4.754  23.791  0.00  0.00    +0.000 C 
BRANCH  32  33
ATOM     33  C   UNL     1      11.555   5.710  23.723  0.00  0.00    -0.000 C 
BRANCH  33  35
ATOM     34  C   UNL     1      13.356   5.654  21.967  0.00  0.00    +0.004 C 
ATOM     35  C   UNL     1      12.802   4.991  23.218  0.00  0.00    -0.003 C 
ENDBRANCH  33  35
ENDBRANCH  32  33
ENDBRANCH  31  32
ENDBRANCH  30  31
ENDBRANCH  29  30
ENDBRANCH  27  29
ENDBRANCH  26  27
ENDBRANCH   1  26
TORSDOF 13
ENDMDL
MODEL 5
REMARK VINA RESULT:      -6.4      1.983      7.354
REMARK  Name = 
REMARK  14 active torsions:
REMARK  status: ('A' for Active; 'I' for Inactive)
REMARK    1  A    between atoms: C_1  and  C_2
REMARK    2  A    between atoms: C_2  and  C_3
REMARK    3  A    between atoms: C_3  and  C_4
REMARK    4  A    between atoms: C_4  and  C_5
REMARK    5  A    between atoms: C_5  and  C_6
REMARK    6  A    between atoms: C_6  and  C_7
REMARK    7  A    between atoms: C_7  and  C_8
REMARK    8  A    between atoms: C_8  and  O_10
REMARK    9  A    between atoms: O_10  and  C_11
REMARK   10  A    between atoms: C_12  and  C_24
REMARK   11  A    between atoms: C_16  and  O_23
REMARK   12  A    between atoms: C_18  and  O_22
REMARK   13  A    between atoms: C_26  and  O_31
REMARK   14  A    between atoms: C_27  and  O_30
REMARK                            x       y       z     vdW  Elec       q    Type
REMARK                         _______ _______ _______ _____ _____    ______ ____
ROOT
ATOM      1  C   UNL     1       7.862  -2.450  25.265  0.00  0.00    +0.221 A 
ATOM      2  C   UNL     1       8.738  -1.297  25.584  0.00  0.00    +0.239 A 
ATOM      3  O   UNL     1       9.044  -1.062  26.746  0.00  0.00    -0.283 OA
ATOM      4  C   UNL     1       9.112  -0.432  24.453  0.00  0.00    +0.109 A 
ATOM      5  C   UNL     1       8.393  -0.576  23.264  0.00  0.00    +0.147 A 
ATOM      6  C   UNL     1       8.652   0.269  22.180  0.00  0.00    +0.092 A 
ATOM      7  C   UNL     1       9.634   1.250  22.299  0.00  0.00    +0.124 A 
ATOM      8  C   UNL     1      10.372   1.390  23.470  0.00  0.00    +0.091 A 
ATOM      9  O   UNL     1       7.394  -1.510  23.095  0.00  0.00    -0.451 OA
ATOM     10  C   UNL     1      10.115   0.544  24.547  0.00  0.00    +0.135 A 
ATOM     11  C   UNL     1       7.189  -2.459  24.094  0.00  0.00    +0.182 A 
ENDROOT
BRANCH  11  12
ATOM     12  C   UNL     1       6.171  -3.500  23.748  0.00  0.00    +0.025 A 
ATOM     13  C   UNL     1       4.817  -3.344  24.105  0.00  0.00    +0.015 A 
ATOM     14  C   UNL     1       3.851  -4.294  23.739  0.00  0.00    +0.050 A 
ATOM     15  C   UNL     1       4.236  -5.401  23.003  0.00  0.00    +0.158 A 
ATOM     16  C   UNL     1       5.563  -5.596  22.658  0.00  0.00    +0.159 A 
ATOM     17  C   UNL     1       6.532  -4.680  23.062  0.00  0.00    +0.060 A 
BRANCH  15  18
ATOM     18  O   UNL     1       3.289  -6.306  22.600  0.00  0.00    -0.503 OA
ATOM     19  H   UNL     1       3.722  -6.817  21.887  0.00  0.00    +0.292 HD
ENDBRANCH  15  18
BRANCH  16  20
ATOM     20  O   UNL     1       5.875  -6.691  21.899  0.00  0.00    -0.503 OA
ATOM     21  H   UNL     1       6.194  -7.394  22.491  0.00  0.00    +0.292 HD
ENDBRANCH  16  20
ENDBRANCH  11  12
BRANCH   7  22
ATOM     22  O   UNL     1       9.913   2.114  21.282  0.00  0.00    -0.507 OA
ATOM     23  H   UNL     1       9.511   2.978  21.474  0.00  0.00    +0.292 HD
ENDBRANCH   7  22
BRANCH  10  24
ATOM     24  O   UNL     1      10.862   0.676  25.681  0.00  0.00    -0.506 OA
ATOM     25  H   UNL     1      11.420  -0.105  25.815  0.00  0.00    +0.292 HD
ENDBRANCH  10  24
BRANCH   1  26
ATOM     26  O   UNL     1       7.696  -3.455  26.232  0.00  0.00    -0.418 OA
BRANCH  26  27
ATOM     27  C   UNL     1       8.571  -4.499  26.088  0.00  0.00    +0.313 C 
ATOM     28  O   UNL     1       9.624  -4.509  25.462  0.00  0.00    -0.250 OA
BRANCH  27  29
ATOM     29  C   UNL     1       7.922  -5.748  26.632  0.00  0.00    +0.121 C 
BRANCH  29  30
ATOM     30  C   UNL     1       6.505  -5.416  27.103  0.00  0.00    +0.011 C 
BRANCH  30  31
ATOM     31  C   UNL     1       5.440  -6.257  26.392  0.00  0.00    +0.001 C 
BRANCH  31  32
ATOM     32  C   UNL     1       4.324  -6.676  27.341  0.00  0.00    +0.000 C 
BRANCH  32  33
ATOM     33  C   UNL     1       2.969  -6.188  26.823  0.00  0.00    -0.000 C 
BRANCH  33  35
ATOM     34  C   UNL     1       2.819  -3.717  27.269  0.00  0.00    +0.004 C 
ATOM     35  C   UNL     1       2.396  -5.103  27.729  0.00  0.00    -0.003 C 
ENDBRANCH  33  35
ENDBRANCH  32  33
ENDBRANCH  31  32
ENDBRANCH  30  31
ENDBRANCH  29  30
ENDBRANCH  27  29
ENDBRANCH  26  27
ENDBRANCH   1  26
TORSDOF 13
ENDMDL
MODEL 6
REMARK VINA RESULT:      -6.3      2.672      4.073
REMARK  Name = 
REMARK  14 active torsions:
REMARK  status: ('A' for Active; 'I' for Inactive)
REMARK    1  A    between atoms: C_1  and  C_2
REMARK    2  A    between atoms: C_2  and  C_3
REMARK    3  A    between atoms: C_3  and  C_4
REMARK    4  A    between atoms: C_4  and  C_5
REMARK    5  A    between atoms: C_5  and  C_6
REMARK    6  A    between atoms: C_6  and  C_7
REMARK    7  A    between atoms: C_7  and  C_8
REMARK    8  A    between atoms: C_8  and  O_10
REMARK    9  A    between atoms: O_10  and  C_11
REMARK   10  A    between atoms: C_12  and  C_24
REMARK   11  A    between atoms: C_16  and  O_23
REMARK   12  A    between atoms: C_18  and  O_22
REMARK   13  A    between atoms: C_26  and  O_31
REMARK   14  A    between atoms: C_27  and  O_30
REMARK                            x       y       z     vdW  Elec       q    Type
REMARK                         _______ _______ _______ _____ _____    ______ ____
ROOT
ATOM      1  C   UNL     1       8.046  -1.269  24.276  0.00  0.00    +0.221 A 
ATOM      2  C   UNL     1       8.584  -2.638  24.091  0.00  0.00    +0.239 A 
ATOM      3  O   UNL     1       9.734  -2.896  24.425  0.00  0.00    -0.283 OA
ATOM      4  C   UNL     1       7.700  -3.598  23.408  0.00  0.00    +0.109 A 
ATOM      5  C   UNL     1       6.587  -3.085  22.736  0.00  0.00    +0.147 A 
ATOM      6  C   UNL     1       5.754  -3.939  22.006  0.00  0.00    +0.092 A 
ATOM      7  C   UNL     1       6.044  -5.301  21.960  0.00  0.00    +0.124 A 
ATOM      8  C   UNL     1       7.137  -5.827  22.641  0.00  0.00    +0.091 A 
ATOM      9  O   UNL     1       6.264  -1.746  22.724  0.00  0.00    -0.451 OA
ATOM     10  C   UNL     1       7.963  -4.974  23.372  0.00  0.00    +0.135 A 
ATOM     11  C   UNL     1       6.983  -0.877  23.541  0.00  0.00    +0.182 A 
ENDROOT
BRANCH  11  12
ATOM     12  C   UNL     1       6.463   0.526  23.548  0.00  0.00    +0.025 A 
ATOM     13  C   UNL     1       5.702   1.018  24.627  0.00  0.00    +0.015 A 
ATOM     14  C   UNL     1       5.255   2.349  24.659  0.00  0.00    +0.050 A 
ATOM     15  C   UNL     1       5.577   3.196  23.614  0.00  0.00    +0.158 A 
ATOM     16  C   UNL     1       6.302   2.737  22.526  0.00  0.00    +0.159 A 
ATOM     17  C   UNL     1       6.705   1.404  22.468  0.00  0.00    +0.060 A 
BRANCH  15  18
ATOM     18  O   UNL     1       5.187   4.508  23.664  0.00  0.00    -0.503 OA
ATOM     19  H   UNL     1       4.343   4.498  24.157  0.00  0.00    +0.292 HD
ENDBRANCH  15  18
BRANCH  16  20
ATOM     20  O   UNL     1       6.620   3.631  21.542  0.00  0.00    -0.503 OA
ATOM     21  H   UNL     1       6.014   4.390  21.608  0.00  0.00    +0.292 HD
ENDBRANCH  16  20
ENDBRANCH  11  12
BRANCH   7  22
ATOM     22  O   UNL     1       5.278  -6.174  21.247  0.00  0.00    -0.507 OA
ATOM     23  H   UNL     1       4.797  -6.756  21.860  0.00  0.00    +0.292 HD
ENDBRANCH   7  22
BRANCH  10  24
ATOM     24  O   UNL     1       9.018  -5.506  24.055  0.00  0.00    -0.506 OA
ATOM     25  H   UNL     1       8.755  -5.742  24.958  0.00  0.00    +0.292 HD
ENDBRANCH  10  24
BRANCH   1  26
ATOM     26  O   UNL     1       8.716  -0.397  25.150  0.00  0.00    -0.418 OA
BRANCH  26  27
ATOM     27  C   UNL     1       9.654   0.384  24.527  0.00  0.00    +0.313 C 
ATOM     28  O   UNL     1      10.681   0.015  23.970  0.00  0.00    -0.250 OA
BRANCH  27  29
ATOM     29  C   UNL     1       9.356   1.830  24.836  0.00  0.00    +0.121 C 
BRANCH  29  30
ATOM     30  C   UNL     1       9.917   2.711  23.718  0.00  0.00    +0.011 C 
BRANCH  30  31
ATOM     31  C   UNL     1       9.471   4.172  23.843  0.00  0.00    +0.001 C 
BRANCH  31  32
ATOM     32  C   UNL     1      10.655   5.130  23.786  0.00  0.00    +0.000 C 
BRANCH  32  33
ATOM     33  C   UNL     1      11.917   4.395  23.330  0.00  0.00    -0.000 C 
BRANCH  33  35
ATOM     34  C   UNL     1      13.400   5.729  21.797  0.00  0.00    +0.004 C 
ATOM     35  C   UNL     1      13.103   5.349  23.238  0.00  0.00    -0.003 C 
ENDBRANCH  33  35
ENDBRANCH  32  33
ENDBRANCH  31  32
ENDBRANCH  30  31
ENDBRANCH  29  30
ENDBRANCH  27  29
ENDBRANCH  26  27
ENDBRANCH   1  26
TORSDOF 13
ENDMDL
MODEL 7
REMARK VINA RESULT:      -6.3      2.069      7.539
REMARK  Name = 
REMARK  14 active torsions:
REMARK  status: ('A' for Active; 'I' for Inactive)
REMARK    1  A    between atoms: C_1  and  C_2
REMARK    2  A    between atoms: C_2  and  C_3
REMARK    3  A    between atoms: C_3  and  C_4
REMARK    4  A    between atoms: C_4  and  C_5
REMARK    5  A    between atoms: C_5  and  C_6
REMARK    6  A    between atoms: C_6  and  C_7
REMARK    7  A    between atoms: C_7  and  C_8
REMARK    8  A    between atoms: C_8  and  O_10
REMARK    9  A    between atoms: O_10  and  C_11
REMARK   10  A    between atoms: C_12  and  C_24
REMARK   11  A    between atoms: C_16  and  O_23
REMARK   12  A    between atoms: C_18  and  O_22
REMARK   13  A    between atoms: C_26  and  O_31
REMARK   14  A    between atoms: C_27  and  O_30
REMARK                            x       y       z     vdW  Elec       q    Type
REMARK                         _______ _______ _______ _____ _____    ______ ____
ROOT
ATOM      1  C   UNL     1       8.654  -1.351  23.825  0.00  0.00    +0.221 A 
ATOM      2  C   UNL     1       9.273  -0.040  24.136  0.00  0.00    +0.239 A 
ATOM      3  O   UNL     1      10.172   0.033  24.964  0.00  0.00    -0.283 OA
ATOM      4  C   UNL     1       8.678   1.134  23.475  0.00  0.00    +0.109 A 
ATOM      5  C   UNL     1       7.429   0.969  22.869  0.00  0.00    +0.147 A 
ATOM      6  C   UNL     1       6.780   2.065  22.292  0.00  0.00    +0.092 A 
ATOM      7  C   UNL     1       7.392   3.317  22.325  0.00  0.00    +0.124 A 
ATOM      8  C   UNL     1       8.645   3.489  22.905  0.00  0.00    +0.091 A 
ATOM      9  O   UNL     1       6.763  -0.236  22.827  0.00  0.00    -0.451 OA
ATOM     10  C   UNL     1       9.291   2.394  23.476  0.00  0.00    +0.135 A 
ATOM     11  C   UNL     1       7.423  -1.381  23.269  0.00  0.00    +0.182 A 
ENDROOT
BRANCH  11  12
ATOM     12  C   UNL     1       6.657  -2.648  23.057  0.00  0.00    +0.025 A 
ATOM     13  C   UNL     1       5.423  -2.872  23.700  0.00  0.00    +0.015 A 
ATOM     14  C   UNL     1       4.677  -4.037  23.465  0.00  0.00    +0.050 A 
ATOM     15  C   UNL     1       5.160  -4.981  22.575  0.00  0.00    +0.158 A 
ATOM     16  C   UNL     1       6.380  -4.803  21.945  0.00  0.00    +0.159 A 
ATOM     17  C   UNL     1       7.147  -3.670  22.214  0.00  0.00    +0.060 A 
BRANCH  15  18
ATOM     18  O   UNL     1       4.412  -6.096  22.303  0.00  0.00    -0.503 OA
ATOM     19  H   UNL     1       3.490  -5.829  22.487  0.00  0.00    +0.292 HD
ENDBRANCH  15  18
BRANCH  16  20
ATOM     20  O   UNL     1       6.786  -5.753  21.049  0.00  0.00    -0.503 OA
ATOM     21  H   UNL     1       7.686  -6.037  21.288  0.00  0.00    +0.292 HD
ENDBRANCH  16  20
ENDBRANCH  11  12
BRANCH   7  22
ATOM     22  O   UNL     1       6.796   4.422  21.796  0.00  0.00    -0.507 OA
ATOM     23  H   UNL     1       6.415   4.956  22.513  0.00  0.00    +0.292 HD
ENDBRANCH   7  22
BRANCH  10  24
ATOM     24  O   UNL     1      10.530   2.572  24.022  0.00  0.00    -0.506 OA
ATOM     25  H   UNL     1      10.476   3.123  24.817  0.00  0.00    +0.292 HD
ENDBRANCH  10  24
BRANCH   1  26
ATOM     26  O   UNL     1       9.335  -2.520  24.199  0.00  0.00    -0.418 OA
BRANCH  26  27
ATOM     27  C   UNL     1       8.885  -3.061  25.376  0.00  0.00    +0.313 C 
ATOM     28  O   UNL     1       8.521  -2.462  26.380  0.00  0.00    -0.250 OA
BRANCH  27  29
ATOM     29  C   UNL     1       9.130  -4.549  25.345  0.00  0.00    +0.121 C 
BRANCH  29  30
ATOM     30  C   UNL     1       8.253  -5.226  26.400  0.00  0.00    +0.011 C 
BRANCH  30  31
ATOM     31  C   UNL     1       6.852  -5.556  25.873  0.00  0.00    +0.001 C 
BRANCH  31  32
ATOM     32  C   UNL     1       5.774  -5.246  26.904  0.00  0.00    +0.000 C 
BRANCH  32  33
ATOM     33  C   UNL     1       4.843  -6.448  27.082  0.00  0.00    -0.000 C 
BRANCH  33  35
ATOM     34  C   UNL     1       3.436  -7.534  25.301  0.00  0.00    +0.004 C 
ATOM     35  C   UNL     1       3.608  -6.318  26.196  0.00  0.00    -0.003 C 
ENDBRANCH  33  35
ENDBRANCH  32  33
ENDBRANCH  31  32
ENDBRANCH  30  31
ENDBRANCH  29  30
ENDBRANCH  27  29
ENDBRANCH  26  27
ENDBRANCH   1  26
TORSDOF 13
ENDMDL
MODEL 8
REMARK VINA RESULT:      -6.2      2.404      4.900
REMARK  Name = 
REMARK  14 active torsions:
REMARK  status: ('A' for Active; 'I' for Inactive)
REMARK    1  A    between atoms: C_1  and  C_2
REMARK    2  A    between atoms: C_2  and  C_3
REMARK    3  A    between atoms: C_3  and  C_4
REMARK    4  A    between atoms: C_4  and  C_5
REMARK    5  A    between atoms: C_5  and  C_6
REMARK    6  A    between atoms: C_6  and  C_7
REMARK    7  A    between atoms: C_7  and  C_8
REMARK    8  A    between atoms: C_8  and  O_10
REMARK    9  A    between atoms: O_10  and  C_11
REMARK   10  A    between atoms: C_12  and  C_24
REMARK   11  A    between atoms: C_16  and  O_23
REMARK   12  A    between atoms: C_18  and  O_22
REMARK   13  A    between atoms: C_26  and  O_31
REMARK   14  A    between atoms: C_27  and  O_30
REMARK                            x       y       z     vdW  Elec       q    Type
REMARK                         _______ _______ _______ _____ _____    ______ ____
ROOT
ATOM      1  C   UNL     1       8.739  -1.522  23.747  0.00  0.00    +0.221 A 
ATOM      2  C   UNL     1       9.040  -2.974  23.790  0.00  0.00    +0.239 A 
ATOM      3  O   UNL     1      10.113  -3.366  24.230  0.00  0.00    -0.283 OA
ATOM      4  C   UNL     1       8.031  -3.866  23.194  0.00  0.00    +0.109 A 
ATOM      5  C   UNL     1       7.050  -3.282  22.387  0.00  0.00    +0.147 A 
ATOM      6  C   UNL     1       6.111  -4.086  21.733  0.00  0.00    +0.092 A 
ATOM      7  C   UNL     1       6.163  -5.469  21.896  0.00  0.00    +0.124 A 
ATOM      8  C   UNL     1       7.121  -6.060  22.713  0.00  0.00    +0.091 A 
ATOM      9  O   UNL     1       6.963  -1.925  22.167  0.00  0.00    -0.451 OA
ATOM     10  C   UNL     1       8.053  -5.256  23.368  0.00  0.00    +0.135 A 
ATOM     11  C   UNL     1       7.789  -1.074  22.898  0.00  0.00    +0.182 A 
ENDROOT
BRANCH  11  12
ATOM     12  C   UNL     1       7.519   0.381  22.674  0.00  0.00    +0.025 A 
ATOM     13  C   UNL     1       8.486   1.221  22.089  0.00  0.00    +0.015 A 
ATOM     14  C   UNL     1       8.218   2.575  21.831  0.00  0.00    +0.050 A 
ATOM     15  C   UNL     1       6.974   3.091  22.151  0.00  0.00    +0.158 A 
ATOM     16  C   UNL     1       6.010   2.297  22.750  0.00  0.00    +0.159 A 
ATOM     17  C   UNL     1       6.290   0.965  23.052  0.00  0.00    +0.060 A 
BRANCH  15  18
ATOM     18  O   UNL     1       6.690   4.397  21.856  0.00  0.00    -0.503 OA
ATOM     19  H   UNL     1       7.342   4.916  22.369  0.00  0.00    +0.292 HD
ENDBRANCH  15  18
BRANCH  16  20
ATOM     20  O   UNL     1       4.789   2.855  23.008  0.00  0.00    -0.503 OA
ATOM     21  H   UNL     1       4.290   2.905  22.174  0.00  0.00    +0.292 HD
ENDBRANCH  16  20
ENDBRANCH  11  12
BRANCH   7  22
ATOM     22  O   UNL     1       5.286  -6.300  21.266  0.00  0.00    -0.507 OA
ATOM     23  H   UNL     1       4.418  -6.242  21.699  0.00  0.00    +0.292 HD
ENDBRANCH   7  22
BRANCH  10  24
ATOM     24  O   UNL     1       8.973  -5.847  24.186  0.00  0.00    -0.506 OA
ATOM     25  H   UNL     1       8.847  -5.560  25.103  0.00  0.00    +0.292 HD
ENDBRANCH  10  24
BRANCH   1  26
ATOM     26  O   UNL     1       9.515  -0.653  24.531  0.00  0.00    -0.418 OA
BRANCH  26  27
ATOM     27  C   UNL     1       8.813  -0.069  25.553  0.00  0.00    +0.313 C 
ATOM     28  O   UNL     1       8.603   1.126  25.726  0.00  0.00    -0.250 OA
BRANCH  27  29
ATOM     29  C   UNL     1       8.525  -1.117  26.598  0.00  0.00    +0.121 C 
BRANCH  29  30
ATOM     30  C   UNL     1       7.012  -1.221  26.805  0.00  0.00    +0.011 C 
BRANCH  30  31
ATOM     31  C   UNL     1       6.466  -2.607  26.450  0.00  0.00    +0.001 C 
BRANCH  31  32
ATOM     32  C   UNL     1       5.294  -2.521  25.480  0.00  0.00    +0.000 C 
BRANCH  32  33
ATOM     33  C   UNL     1       4.700  -3.910  25.235  0.00  0.00    -0.000 C 
BRANCH  33  35
ATOM     34  C   UNL     1       4.996  -6.375  25.644  0.00  0.00    +0.004 C 
ATOM     35  C   UNL     1       5.466  -4.977  26.010  0.00  0.00    -0.003 C 
ENDBRANCH  33  35
ENDBRANCH  32  33
ENDBRANCH  31  32
ENDBRANCH  30  31
ENDBRANCH  29  30
ENDBRANCH  27  29
ENDBRANCH  26  27
ENDBRANCH   1  26
TORSDOF 13
ENDMDL
MODEL 9
REMARK VINA RESULT:      -6.1      2.310      7.209
REMARK  Name = 
REMARK  14 active torsions:
REMARK  status: ('A' for Active; 'I' for Inactive)
REMARK    1  A    between atoms: C_1  and  C_2
REMARK    2  A    between atoms: C_2  and  C_3
REMARK    3  A    between atoms: C_3  and  C_4
REMARK    4  A    between atoms: C_4  and  C_5
REMARK    5  A    between atoms: C_5  and  C_6
REMARK    6  A    between atoms: C_6  and  C_7
REMARK    7  A    between atoms: C_7  and  C_8
REMARK    8  A    between atoms: C_8  and  O_10
REMARK    9  A    between atoms: O_10  and  C_11
REMARK   10  A    between atoms: C_12  and  C_24
REMARK   11  A    between atoms: C_16  and  O_23
REMARK   12  A    between atoms: C_18  and  O_22
REMARK   13  A    between atoms: C_26  and  O_31
REMARK   14  A    between atoms: C_27  and  O_30
REMARK                            x       y       z     vdW  Elec       q    Type
REMARK                         _______ _______ _______ _____ _____    ______ ____
ROOT
ATOM      1  C   UNL     1       6.116  -0.766  24.218  0.00  0.00    +0.221 A 
ATOM      2  C   UNL     1       6.330   0.696  24.344  0.00  0.00    +0.239 A 
ATOM      3  O   UNL     1       5.473   1.400  24.863  0.00  0.00    -0.283 OA
ATOM      4  C   UNL     1       7.558   1.229  23.730  0.00  0.00    +0.109 A 
ATOM      5  C   UNL     1       8.248   0.400  22.842  0.00  0.00    +0.147 A 
ATOM      6  C   UNL     1       9.378   0.877  22.171  0.00  0.00    +0.092 A 
ATOM      7  C   UNL     1       9.807   2.183  22.399  0.00  0.00    +0.124 A 
ATOM      8  C   UNL     1       9.142   3.012  23.297  0.00  0.00    +0.091 A 
ATOM      9  O   UNL     1       7.858  -0.890  22.557  0.00  0.00    -0.451 OA
ATOM     10  C   UNL     1       8.018   2.532  23.968  0.00  0.00    +0.135 A 
ATOM     11  C   UNL     1       6.821  -1.455  23.296  0.00  0.00    +0.182 A 
ENDROOT
BRANCH  11  12
ATOM     12  C   UNL     1       6.570  -2.899  22.991  0.00  0.00    +0.025 A 
ATOM     13  C   UNL     1       7.635  -3.796  22.778  0.00  0.00    +0.015 A 
ATOM     14  C   UNL     1       7.404  -5.161  22.542  0.00  0.00    +0.050 A 
ATOM     15  C   UNL     1       6.104  -5.634  22.529  0.00  0.00    +0.158 A 
ATOM     16  C   UNL     1       5.034  -4.774  22.711  0.00  0.00    +0.159 A 
ATOM     17  C   UNL     1       5.257  -3.411  22.896  0.00  0.00    +0.060 A 
BRANCH  15  18
ATOM     18  O   UNL     1       5.875  -6.973  22.349  0.00  0.00    -0.503 OA
ATOM     19  H   UNL     1       6.514  -7.416  22.943  0.00  0.00    +0.292 HD
ENDBRANCH  15  18
BRANCH  16  20
ATOM     20  O   UNL     1       3.775  -5.308  22.723  0.00  0.00    -0.503 OA
ATOM     21  H   UNL     1       3.745  -6.042  22.085  0.00  0.00    +0.292 HD
ENDBRANCH  16  20
ENDBRANCH  11  12
BRANCH   7  22
ATOM     22  O   UNL     1      10.889   2.706  21.756  0.00  0.00    -0.507 OA
ATOM     23  H   UNL     1      11.344   2.002  21.265  0.00  0.00    +0.292 HD
ENDBRANCH   7  22
BRANCH  10  24
ATOM     24  O   UNL     1       7.389   3.347  24.864  0.00  0.00    -0.506 OA
ATOM     25  H   UNL     1       7.037   4.134  24.420  0.00  0.00    +0.292 HD
ENDBRANCH  10  24
BRANCH   1  26
ATOM     26  O   UNL     1       5.122  -1.368  25.006  0.00  0.00    -0.418 OA
BRANCH  26  27
ATOM     27  C   UNL     1       5.582  -1.812  26.218  0.00  0.00    +0.313 C 
ATOM     28  O   UNL     1       6.699  -1.654  26.695  0.00  0.00    -0.250 OA
BRANCH  27  29
ATOM     29  C   UNL     1       4.560  -2.754  26.805  0.00  0.00    +0.121 C 
BRANCH  29  30
ATOM     30  C   UNL     1       5.272  -3.799  27.665  0.00  0.00    +0.011 C 
BRANCH  30  31
ATOM     31  C   UNL     1       5.326  -5.174  26.991  0.00  0.00    +0.001 C 
BRANCH  31  32
ATOM     32  C   UNL     1       6.569  -5.329  26.124  0.00  0.00    +0.000 C 
BRANCH  32  33
ATOM     33  C   UNL     1       7.835  -5.195  26.974  0.00  0.00    -0.000 C 
BRANCH  33  35
ATOM     34  C   UNL     1       9.836  -5.121  25.451  0.00  0.00    +0.004 C 
ATOM     35  C   UNL     1       8.863  -4.303  26.285  0.00  0.00    -0.003 C 
ENDBRANCH  33  35
ENDBRANCH  32  33
ENDBRANCH  31  32
ENDBRANCH  30  31
ENDBRANCH  29  30
ENDBRANCH  27  29
ENDBRANCH  26  27
ENDBRANCH   1  26
TORSDOF 13
ENDMDL
