MODEL 1
REMARK VINA RESULT:      -7.6      0.000      0.000
REMARK  Name = 
REMARK  12 active torsions:
REMARK  status: ('A' for Active; 'I' for Inactive)
REMARK    1  A    between atoms: C_3  and  O_39
REMARK    2  A    between atoms: C_4  and  O_38
REMARK    3  A    between atoms: C_6  and  C_7
REMARK    4  A    between atoms: C_8  and  O_20
REMARK    5  A    between atoms: C_12  and  O_19
REMARK    6  A    between atoms: C_14  and  O_18
REMARK    7  A    between atoms: O_20  and  C_21
REMARK    8  A    between atoms: C_23  and  O_37
REMARK    9  A    between atoms: C_25  and  O_36
REMARK   10  A    between atoms: C_27  and  O_35
REMARK   11  A    between atoms: C_29  and  C_32
REMARK   12  A    between atoms: C_32  and  O_34
REMARK                            x       y       z     vdW  Elec       q    Type
REMARK                         _______ _______ _______ _____ _____    ______ ____
ROOT
ATOM      1  C   UNL     1       8.699  -1.779  24.721  0.00  0.00    +0.181 A 
ATOM      2  O   UNL     1       8.963  -0.520  25.242  0.00  0.00    -0.451 OA
ATOM      3  C   UNL     1       8.920   0.555  24.383  0.00  0.00    +0.147 A 
ATOM      4  C   UNL     1       8.843   0.404  23.003  0.00  0.00    +0.109 A 
ATOM      5  C   UNL     1       8.792   1.522  22.163  0.00  0.00    +0.135 A 
ATOM      6  C   UNL     1       8.816   2.802  22.702  0.00  0.00    +0.091 A 
ATOM      7  C   UNL     1       8.903   2.951  24.088  0.00  0.00    +0.124 A 
ATOM      8  C   UNL     1       8.805  -0.950  22.457  0.00  0.00    +0.238 A 
ATOM      9  O   UNL     1       8.969  -1.121  21.251  0.00  0.00    -0.283 OA
ATOM     10  C   UNL     1       8.952   1.839  24.929  0.00  0.00    +0.092 A 
ATOM     11  C   UNL     1       8.559  -2.063  23.408  0.00  0.00    +0.214 A 
ENDROOT
BRANCH   1  13
ATOM     12  C   UNL     1       9.402  -3.893  25.894  0.00  0.00    +0.015 A 
ATOM     13  C   UNL     1       8.483  -2.837  25.729  0.00  0.00    +0.025 A 
ATOM     14  C   UNL     1       7.262  -2.886  26.410  0.00  0.00    +0.060 A 
ATOM     15  C   UNL     1       6.926  -4.025  27.133  0.00  0.00    +0.159 A 
ATOM     16  C   UNL     1       7.800  -5.110  27.205  0.00  0.00    +0.158 A 
ATOM     17  C   UNL     1       9.057  -5.039  26.623  0.00  0.00    +0.050 A 
BRANCH  15  18
ATOM     18  O   UNL     1       5.696  -4.098  27.721  0.00  0.00    -0.503 OA
ATOM     19  H   UNL     1       5.753  -4.883  28.304  0.00  0.00    +0.292 HD
ENDBRANCH  15  18
BRANCH  16  20
ATOM     20  O   UNL     1       7.351  -6.244  27.822  0.00  0.00    -0.503 OA
ATOM     21  H   UNL     1       8.048  -6.561  28.425  0.00  0.00    +0.292 HD
ENDBRANCH  16  20
ENDBRANCH   1  13
BRANCH   5  22
ATOM     22  O   UNL     1       8.695   1.433  20.799  0.00  0.00    -0.506 OA
ATOM     23  H   UNL     1       7.758   1.254  20.566  0.00  0.00    +0.292 HD
ENDBRANCH   5  22
BRANCH   7  24
ATOM     24  O   UNL     1       8.937   4.189  24.651  0.00  0.00    -0.507 OA
ATOM     25  H   UNL     1       9.129   4.102  25.600  0.00  0.00    +0.292 HD
ENDBRANCH   7  24
BRANCH  11  26
ATOM     26  O   UNL     1       8.151  -3.318  22.987  0.00  0.00    -0.453 OA
BRANCH  26  27
ATOM     27  C   UNL     1       6.881  -3.480  22.339  0.00  0.00    +0.340 C 
ATOM     28  O   UNL     1       5.927  -3.264  23.390  0.00  0.00    -0.322 OA
ATOM     29  C   UNL     1       4.685  -4.004  23.337  0.00  0.00    +0.261 C 
ATOM     30  C   UNL     1       4.862  -5.526  23.173  0.00  0.00    +0.185 C 
ATOM     31  C   UNL     1       6.319  -5.864  22.838  0.00  0.00    +0.180 C 
ATOM     32  C   UNL     1       6.794  -4.899  21.738  0.00  0.00    +0.214 C 
BRANCH  29  33
ATOM     33  C   UNL     1       4.053  -3.727  24.705  0.00  0.00    +0.337 C 
ATOM     34  O   UNL     1       3.705  -2.633  25.119  0.00  0.00    -0.248 OA
BRANCH  33  35
ATOM     35  O   UNL     1       3.900  -4.862  25.444  0.00  0.00    -0.479 OA
ATOM     36  H   UNL     1       4.571  -5.521  25.146  0.00  0.00    +0.295 HD
ENDBRANCH  33  35
ENDBRANCH  29  33
BRANCH  30  37
ATOM     37  O   UNL     1       4.001  -6.001  22.123  0.00  0.00    -0.386 OA
ATOM     38  H   UNL     1       4.422  -6.804  21.737  0.00  0.00    +0.210 HD
ENDBRANCH  30  37
BRANCH  31  39
ATOM     39  O   UNL     1       7.129  -5.818  24.015  0.00  0.00    -0.386 OA
ATOM     40  H   UNL     1       7.049  -4.949  24.444  0.00  0.00    +0.210 HD
ENDBRANCH  31  39
BRANCH  32  41
ATOM     41  O   UNL     1       5.862  -4.933  20.642  0.00  0.00    -0.383 OA
ATOM     42  H   UNL     1       5.471  -4.040  20.550  0.00  0.00    +0.210 HD
ENDBRANCH  32  41
ENDBRANCH  26  27
ENDBRANCH  11  26
TORSDOF 12
ENDMDL
MODEL 2
REMARK VINA RESULT:      -7.1      1.785      4.317
REMARK  Name = 
REMARK  12 active torsions:
REMARK  status: ('A' for Active; 'I' for Inactive)
REMARK    1  A    between atoms: C_3  and  O_39
REMARK    2  A    between atoms: C_4  and  O_38
REMARK    3  A    between atoms: C_6  and  C_7
REMARK    4  A    between atoms: C_8  and  O_20
REMARK    5  A    between atoms: C_12  and  O_19
REMARK    6  A    between atoms: C_14  and  O_18
REMARK    7  A    between atoms: O_20  and  C_21
REMARK    8  A    between atoms: C_23  and  O_37
REMARK    9  A    between atoms: C_25  and  O_36
REMARK   10  A    between atoms: C_27  and  O_35
REMARK   11  A    between atoms: C_29  and  C_32
REMARK   12  A    between atoms: C_32  and  O_34
REMARK                            x       y       z     vdW  Elec       q    Type
REMARK                         _______ _______ _______ _____ _____    ______ ____
ROOT
ATOM      1  C   UNL     1       7.133  -1.330  22.985  0.00  0.00    +0.181 A 
ATOM      2  O   UNL     1       8.121  -0.554  22.394  0.00  0.00    -0.451 OA
ATOM      3  C   UNL     1       8.392   0.678  22.946  0.00  0.00    +0.147 A 
ATOM      4  C   UNL     1       7.579   1.254  23.915  0.00  0.00    +0.109 A 
ATOM      5  C   UNL     1       7.893   2.504  24.460  0.00  0.00    +0.135 A 
ATOM      6  C   UNL     1       9.027   3.186  24.036  0.00  0.00    +0.091 A 
ATOM      7  C   UNL     1       9.835   2.608  23.055  0.00  0.00    +0.124 A 
ATOM      8  C   UNL     1       6.399   0.516  24.357  0.00  0.00    +0.238 A 
ATOM      9  O   UNL     1       5.545   1.086  25.033  0.00  0.00    -0.283 OA
ATOM     10  C   UNL     1       9.527   1.361  22.511  0.00  0.00    +0.092 A 
ATOM     11  C   UNL     1       6.301  -0.912  23.963  0.00  0.00    +0.214 A 
ENDROOT
BRANCH   1  13
ATOM     12  C   UNL     1       6.068  -3.194  21.671  0.00  0.00    +0.015 A 
ATOM     13  C   UNL     1       7.087  -2.734  22.529  0.00  0.00    +0.025 A 
ATOM     14  C   UNL     1       7.968  -3.660  23.096  0.00  0.00    +0.060 A 
ATOM     15  C   UNL     1       7.749  -5.020  22.906  0.00  0.00    +0.159 A 
ATOM     16  C   UNL     1       6.674  -5.470  22.139  0.00  0.00    +0.158 A 
ATOM     17  C   UNL     1       5.851  -4.566  21.484  0.00  0.00    +0.050 A 
BRANCH  15  18
ATOM     18  O   UNL     1       8.562  -5.918  23.535  0.00  0.00    -0.503 OA
ATOM     19  H   UNL     1       8.389  -5.774  24.489  0.00  0.00    +0.292 HD
ENDBRANCH  15  18
BRANCH  16  20
ATOM     20  O   UNL     1       6.443  -6.817  22.102  0.00  0.00    -0.503 OA
ATOM     21  H   UNL     1       6.853  -7.176  21.293  0.00  0.00    +0.292 HD
ENDBRANCH  16  20
ENDBRANCH   1  13
BRANCH   5  22
ATOM     22  O   UNL     1       7.141   3.111  25.432  0.00  0.00    -0.506 OA
ATOM     23  H   UNL     1       6.589   2.426  25.869  0.00  0.00    +0.292 HD
ENDBRANCH   5  22
BRANCH   7  24
ATOM     24  O   UNL     1      10.949   3.250  22.610  0.00  0.00    -0.507 OA
ATOM     25  H   UNL     1      10.748   4.195  22.494  0.00  0.00    +0.292 HD
ENDBRANCH   7  24
BRANCH  11  26
ATOM     26  O   UNL     1       5.444  -1.796  24.599  0.00  0.00    -0.453 OA
BRANCH  26  27
ATOM     27  C   UNL     1       5.593  -2.060  26.001  0.00  0.00    +0.340 C 
ATOM     28  O   UNL     1       6.769  -2.880  26.075  0.00  0.00    -0.322 OA
ATOM     29  C   UNL     1       6.828  -3.884  27.114  0.00  0.00    +0.261 C 
ATOM     30  C   UNL     1       5.603  -4.819  27.161  0.00  0.00    +0.185 C 
ATOM     31  C   UNL     1       4.487  -4.287  26.255  0.00  0.00    +0.180 C 
ATOM     32  C   UNL     1       4.331  -2.781  26.521  0.00  0.00    +0.214 C 
BRANCH  29  33
ATOM     33  C   UNL     1       8.062  -4.711  26.735  0.00  0.00    +0.337 C 
ATOM     34  O   UNL     1       9.059  -4.282  26.176  0.00  0.00    -0.248 OA
BRANCH  33  35
ATOM     35  O   UNL     1       7.943  -6.017  27.102  0.00  0.00    -0.479 OA
ATOM     36  H   UNL     1       7.473  -6.502  26.383  0.00  0.00    +0.295 HD
ENDBRANCH  33  35
ENDBRANCH  29  33
BRANCH  30  37
ATOM     37  O   UNL     1       5.123  -4.917  28.514  0.00  0.00    -0.386 OA
ATOM     38  H   UNL     1       5.769  -4.446  29.090  0.00  0.00    +0.210 HD
ENDBRANCH  30  37
BRANCH  31  39
ATOM     39  O   UNL     1       4.764  -4.590  24.886  0.00  0.00    -0.386 OA
ATOM     40  H   UNL     1       4.557  -5.522  24.699  0.00  0.00    +0.210 HD
ENDBRANCH  31  39
BRANCH  32  41
ATOM     41  O   UNL     1       4.165  -2.563  27.934  0.00  0.00    -0.383 OA
ATOM     42  H   UNL     1       5.049  -2.391  28.319  0.00  0.00    +0.210 HD
ENDBRANCH  32  41
ENDBRANCH  26  27
ENDBRANCH  11  26
TORSDOF 12
ENDMDL
MODEL 3
REMARK VINA RESULT:      -7.1      2.336      7.562
REMARK  Name = 
REMARK  12 active torsions:
REMARK  status: ('A' for Active; 'I' for Inactive)
REMARK    1  A    between atoms: C_3  and  O_39
REMARK    2  A    between atoms: C_4  and  O_38
REMARK    3  A    between atoms: C_6  and  C_7
REMARK    4  A    between atoms: C_8  and  O_20
REMARK    5  A    between atoms: C_12  and  O_19
REMARK    6  A    between atoms: C_14  and  O_18
REMARK    7  A    between atoms: O_20  and  C_21
REMARK    8  A    between atoms: C_23  and  O_37
REMARK    9  A    between atoms: C_25  and  O_36
REMARK   10  A    between atoms: C_27  and  O_35
REMARK   11  A    between atoms: C_29  and  C_32
REMARK   12  A    between atoms: C_32  and  O_34
REMARK                            x       y       z     vdW  Elec       q    Type
REMARK                         _______ _______ _______ _____ _____    ______ ____
ROOT
ATOM      1  C   UNL     1       7.784  -1.504  23.878  0.00  0.00    +0.181 A 
ATOM      2  O   UNL     1       7.926  -2.693  23.175  0.00  0.00    -0.451 OA
ATOM      3  C   UNL     1       6.831  -3.522  23.083  0.00  0.00    +0.147 A 
ATOM      4  C   UNL     1       5.680  -3.323  23.838  0.00  0.00    +0.109 A 
ATOM      5  C   UNL     1       4.583  -4.182  23.709  0.00  0.00    +0.135 A 
ATOM      6  C   UNL     1       4.633  -5.249  22.820  0.00  0.00    +0.091 A 
ATOM      7  C   UNL     1       5.793  -5.451  22.070  0.00  0.00    +0.124 A 
ATOM      8  C   UNL     1       5.644  -2.190  24.757  0.00  0.00    +0.238 A 
ATOM      9  O   UNL     1       4.748  -2.118  25.596  0.00  0.00    -0.283 OA
ATOM     10  C   UNL     1       6.888  -4.596  22.194  0.00  0.00    +0.092 A 
ATOM     11  C   UNL     1       6.707  -1.163  24.617  0.00  0.00    +0.214 A 
ENDROOT
BRANCH   1  13
ATOM     12  C   UNL     1       9.784  -0.250  24.753  0.00  0.00    +0.015 A 
ATOM     13  C   UNL     1       8.891  -0.542  23.703  0.00  0.00    +0.025 A 
ATOM     14  C   UNL     1       8.948   0.219  22.530  0.00  0.00    +0.060 A 
ATOM     15  C   UNL     1       9.792   1.323  22.471  0.00  0.00    +0.159 A 
ATOM     16  C   UNL     1      10.597   1.667  23.556  0.00  0.00    +0.158 A 
ATOM     17  C   UNL     1      10.631   0.865  24.688  0.00  0.00    +0.050 A 
BRANCH  15  18
ATOM     18  O   UNL     1       9.776   2.110  21.355  0.00  0.00    -0.503 OA
ATOM     19  H   UNL     1      10.593   2.646  21.426  0.00  0.00    +0.292 HD
ENDBRANCH  15  18
BRANCH  16  20
ATOM     20  O   UNL     1      11.302   2.836  23.477  0.00  0.00    -0.503 OA
ATOM     21  H   UNL     1      11.725   2.997  24.340  0.00  0.00    +0.292 HD
ENDBRANCH  16  20
ENDBRANCH   1  13
BRANCH   5  22
ATOM     22  O   UNL     1       3.417  -4.024  24.412  0.00  0.00    -0.506 OA
ATOM     23  H   UNL     1       3.644  -3.773  25.335  0.00  0.00    +0.292 HD
ENDBRANCH   5  22
BRANCH   7  24
ATOM     24  O   UNL     1       5.879  -6.490  21.195  0.00  0.00    -0.507 OA
ATOM     25  H   UNL     1       5.541  -7.295  21.622  0.00  0.00    +0.292 HD
ENDBRANCH   7  24
BRANCH  11  26
ATOM     26  O   UNL     1       6.588   0.104  25.166  0.00  0.00    -0.453 OA
BRANCH  26  27
ATOM     27  C   UNL     1       5.776   1.093  24.517  0.00  0.00    +0.340 C 
ATOM     28  O   UNL     1       6.730   2.000  23.942  0.00  0.00    -0.322 OA
ATOM     29  C   UNL     1       6.368   3.397  23.860  0.00  0.00    +0.261 C 
ATOM     30  C   UNL     1       5.888   4.007  25.192  0.00  0.00    +0.185 C 
ATOM     31  C   UNL     1       5.659   2.907  26.233  0.00  0.00    +0.180 C 
ATOM     32  C   UNL     1       4.867   1.771  25.564  0.00  0.00    +0.214 C 
BRANCH  29  33
ATOM     33  C   UNL     1       7.680   4.077  23.453  0.00  0.00    +0.337 C 
ATOM     34  O   UNL     1       8.572   4.412  24.216  0.00  0.00    -0.248 OA
BRANCH  33  35
ATOM     35  O   UNL     1       7.768   4.271  22.108  0.00  0.00    -0.479 OA
ATOM     36  H   UNL     1       7.904   5.233  21.940  0.00  0.00    +0.295 HD
ENDBRANCH  33  35
ENDBRANCH  29  33
BRANCH  30  37
ATOM     37  O   UNL     1       4.665   4.734  24.976  0.00  0.00    -0.386 OA
ATOM     38  H   UNL     1       4.155   4.253  24.284  0.00  0.00    +0.210 HD
ENDBRANCH  30  37
BRANCH  31  39
ATOM     39  O   UNL     1       6.902   2.474  26.789  0.00  0.00    -0.386 OA
ATOM     40  H   UNL     1       7.644   2.897  26.324  0.00  0.00    +0.210 HD
ENDBRANCH  31  39
BRANCH  32  41
ATOM     41  O   UNL     1       3.689   2.317  24.940  0.00  0.00    -0.383 OA
ATOM     42  H   UNL     1       3.014   2.450  25.636  0.00  0.00    +0.210 HD
ENDBRANCH  32  41
ENDBRANCH  26  27
ENDBRANCH  11  26
TORSDOF 12
ENDMDL
MODEL 4
REMARK VINA RESULT:      -6.8      2.548      7.344
REMARK  Name = 
REMARK  12 active torsions:
REMARK  status: ('A' for Active; 'I' for Inactive)
REMARK    1  A    between atoms: C_3  and  O_39
REMARK    2  A    between atoms: C_4  and  O_38
REMARK    3  A    between atoms: C_6  and  C_7
REMARK    4  A    between atoms: C_8  and  O_20
REMARK    5  A    between atoms: C_12  and  O_19
REMARK    6  A    between atoms: C_14  and  O_18
REMARK    7  A    between atoms: O_20  and  C_21
REMARK    8  A    between atoms: C_23  and  O_37
REMARK    9  A    between atoms: C_25  and  O_36
REMARK   10  A    between atoms: C_27  and  O_35
REMARK   11  A    between atoms: C_29  and  C_32
REMARK   12  A    between atoms: C_32  and  O_34
REMARK                            x       y       z     vdW  Elec       q    Type
REMARK                         _______ _______ _______ _____ _____    ______ ____
ROOT
ATOM      1  C   UNL     1       8.348  -1.586  23.974  0.00  0.00    +0.181 A 
ATOM      2  O   UNL     1       8.301  -2.630  23.060  0.00  0.00    -0.451 OA
ATOM      3  C   UNL     1       7.374  -3.627  23.266  0.00  0.00    +0.147 A 
ATOM      4  C   UNL     1       6.652  -3.739  24.448  0.00  0.00    +0.109 A 
ATOM      5  C   UNL     1       5.711  -4.761  24.617  0.00  0.00    +0.135 A 
ATOM      6  C   UNL     1       5.487  -5.679  23.599  0.00  0.00    +0.091 A 
ATOM      7  C   UNL     1       6.221  -5.569  22.416  0.00  0.00    +0.124 A 
ATOM      8  C   UNL     1       6.892  -2.757  25.502  0.00  0.00    +0.238 A 
ATOM      9  O   UNL     1       6.448  -2.957  26.630  0.00  0.00    -0.283 OA
ATOM     10  C   UNL     1       7.158  -4.550  22.243  0.00  0.00    +0.092 A 
ATOM     11  C   UNL     1       7.668  -1.544  25.140  0.00  0.00    +0.214 A 
ENDROOT
BRANCH   1  13
ATOM     12  C   UNL     1      10.342  -0.069  24.221  0.00  0.00    +0.015 A 
ATOM     13  C   UNL     1       9.155  -0.423  23.550  0.00  0.00    +0.025 A 
ATOM     14  C   UNL     1       8.640   0.440  22.578  0.00  0.00    +0.060 A 
ATOM     15  C   UNL     1       9.234   1.682  22.380  0.00  0.00    +0.159 A 
ATOM     16  C   UNL     1      10.349   2.067  23.124  0.00  0.00    +0.158 A 
ATOM     17  C   UNL     1      10.936   1.184  24.019  0.00  0.00    +0.050 A 
BRANCH  15  18
ATOM     18  O   UNL     1       8.672   2.553  21.492  0.00  0.00    -0.503 OA
ATOM     19  H   UNL     1       8.839   2.146  20.616  0.00  0.00    +0.292 HD
ENDBRANCH  15  18
BRANCH  16  20
ATOM     20  O   UNL     1      10.801   3.348  22.971  0.00  0.00    -0.503 OA
ATOM     21  H   UNL     1      10.183   3.947  23.430  0.00  0.00    +0.292 HD
ENDBRANCH  16  20
ENDBRANCH   1  13
BRANCH   5  22
ATOM     22  O   UNL     1       4.956  -4.908  25.752  0.00  0.00    -0.506 OA
ATOM     23  H   UNL     1       5.043  -4.091  26.290  0.00  0.00    +0.292 HD
ENDBRANCH   5  22
BRANCH   7  24
ATOM     24  O   UNL     1       6.034  -6.454  21.400  0.00  0.00    -0.507 OA
ATOM     25  H   UNL     1       5.105  -6.743  21.397  0.00  0.00    +0.292 HD
ENDBRANCH   7  24
BRANCH  11  26
ATOM     26  O   UNL     1       7.659  -0.400  25.922  0.00  0.00    -0.453 OA
BRANCH  26  27
ATOM     27  C   UNL     1       6.413   0.205  26.294  0.00  0.00    +0.340 C 
ATOM     28  O   UNL     1       5.941   0.802  25.076  0.00  0.00    -0.322 OA
ATOM     29  C   UNL     1       5.176   2.025  25.177  0.00  0.00    +0.261 C 
ATOM     30  C   UNL     1       5.857   3.132  26.005  0.00  0.00    +0.185 C 
ATOM     31  C   UNL     1       7.074   2.572  26.750  0.00  0.00    +0.180 C 
ATOM     32  C   UNL     1       6.663   1.244  27.408  0.00  0.00    +0.214 C 
BRANCH  29  33
ATOM     33  C   UNL     1       5.072   2.495  23.721  0.00  0.00    +0.337 C 
ATOM     34  O   UNL     1       6.014   2.766  22.994  0.00  0.00    -0.248 OA
BRANCH  33  35
ATOM     35  O   UNL     1       3.782   2.576  23.294  0.00  0.00    -0.479 OA
ATOM     36  H   UNL     1       3.189   2.333  24.043  0.00  0.00    +0.295 HD
ENDBRANCH  33  35
ENDBRANCH  29  33
BRANCH  30  37
ATOM     37  O   UNL     1       4.918   3.674  26.951  0.00  0.00    -0.386 OA
ATOM     38  H   UNL     1       4.760   2.985  27.636  0.00  0.00    +0.210 HD
ENDBRANCH  30  37
BRANCH  31  39
ATOM     39  O   UNL     1       8.188   2.440  25.865  0.00  0.00    -0.386 OA
ATOM     40  H   UNL     1       8.959   2.916  26.220  0.00  0.00    +0.210 HD
ENDBRANCH  31  39
BRANCH  32  41
ATOM     41  O   UNL     1       5.474   1.449  28.191  0.00  0.00    -0.383 OA
ATOM     42  H   UNL     1       5.248   2.401  28.152  0.00  0.00    +0.210 HD
ENDBRANCH  32  41
ENDBRANCH  26  27
ENDBRANCH  11  26
TORSDOF 12
ENDMDL
MODEL 5
REMARK VINA RESULT:      -6.7      2.663      7.238
REMARK  Name = 
REMARK  12 active torsions:
REMARK  status: ('A' for Active; 'I' for Inactive)
REMARK    1  A    between atoms: C_3  and  O_39
REMARK    2  A    between atoms: C_4  and  O_38
REMARK    3  A    between atoms: C_6  and  C_7
REMARK    4  A    between atoms: C_8  and  O_20
REMARK    5  A    between atoms: C_12  and  O_19
REMARK    6  A    between atoms: C_14  and  O_18
REMARK    7  A    between atoms: O_20  and  C_21
REMARK    8  A    between atoms: C_23  and  O_37
REMARK    9  A    between atoms: C_25  and  O_36
REMARK   10  A    between atoms: C_27  and  O_35
REMARK   11  A    between atoms: C_29  and  C_32
REMARK   12  A    between atoms: C_32  and  O_34
REMARK                            x       y       z     vdW  Elec       q    Type
REMARK                         _______ _______ _______ _____ _____    ______ ____
ROOT
ATOM      1  C   UNL     1       8.424  -1.717  24.002  0.00  0.00    +0.181 A 
ATOM      2  O   UNL     1       8.357  -2.750  23.077  0.00  0.00    -0.451 OA
ATOM      3  C   UNL     1       7.404  -3.725  23.266  0.00  0.00    +0.147 A 
ATOM      4  C   UNL     1       6.670  -3.830  24.442  0.00  0.00    +0.109 A 
ATOM      5  C   UNL     1       5.702  -4.830  24.593  0.00  0.00    +0.135 A 
ATOM      6  C   UNL     1       5.463  -5.731  23.563  0.00  0.00    +0.091 A 
ATOM      7  C   UNL     1       6.208  -5.628  22.387  0.00  0.00    +0.124 A 
ATOM      8  C   UNL     1       6.928  -2.866  25.508  0.00  0.00    +0.238 A 
ATOM      9  O   UNL     1       6.471  -3.067  26.630  0.00  0.00    -0.283 OA
ATOM     10  C   UNL     1       7.172  -4.631  22.231  0.00  0.00    +0.092 A 
ATOM     11  C   UNL     1       7.737  -1.670  25.164  0.00  0.00    +0.214 A 
ENDROOT
BRANCH   1  13
ATOM     12  C   UNL     1      10.352  -0.143  24.382  0.00  0.00    +0.015 A 
ATOM     13  C   UNL     1       9.263  -0.570  23.596  0.00  0.00    +0.025 A 
ATOM     14  C   UNL     1       8.864   0.209  22.506  0.00  0.00    +0.060 A 
ATOM     15  C   UNL     1       9.462   1.446  22.292  0.00  0.00    +0.159 A 
ATOM     16  C   UNL     1      10.470   1.908  23.138  0.00  0.00    +0.158 A 
ATOM     17  C   UNL     1      10.951   1.106  24.162  0.00  0.00    +0.050 A 
BRANCH  15  18
ATOM     18  O   UNL     1       9.006   2.237  21.277  0.00  0.00    -0.503 OA
ATOM     19  H   UNL     1       8.049   2.340  21.463  0.00  0.00    +0.292 HD
ENDBRANCH  15  18
BRANCH  16  20
ATOM     20  O   UNL     1      10.921   3.184  22.947  0.00  0.00    -0.503 OA
ATOM     21  H   UNL     1      10.194   3.712  22.567  0.00  0.00    +0.292 HD
ENDBRANCH  16  20
ENDBRANCH   1  13
BRANCH   5  22
ATOM     22  O   UNL     1       4.936  -4.970  25.721  0.00  0.00    -0.506 OA
ATOM     23  H   UNL     1       4.786  -4.079  26.106  0.00  0.00    +0.292 HD
ENDBRANCH   5  22
BRANCH   7  24
ATOM     24  O   UNL     1       6.006  -6.497  21.360  0.00  0.00    -0.507 OA
ATOM     25  H   UNL     1       6.841  -6.955  21.161  0.00  0.00    +0.292 HD
ENDBRANCH   7  24
BRANCH  11  26
ATOM     26  O   UNL     1       7.751  -0.534  25.958  0.00  0.00    -0.453 OA
BRANCH  26  27
ATOM     27  C   UNL     1       6.998   0.624  25.569  0.00  0.00    +0.340 C 
ATOM     28  O   UNL     1       7.305   1.592  26.583  0.00  0.00    -0.322 OA
ATOM     29  C   UNL     1       6.273   2.539  26.947  0.00  0.00    +0.261 C 
ATOM     30  C   UNL     1       4.921   1.893  27.310  0.00  0.00    +0.185 C 
ATOM     31  C   UNL     1       4.921   0.406  26.941  0.00  0.00    +0.180 C 
ATOM     32  C   UNL     1       5.498   0.264  25.523  0.00  0.00    +0.214 C 
BRANCH  29  33
ATOM     33  C   UNL     1       6.845   3.218  28.196  0.00  0.00    +0.337 C 
ATOM     34  O   UNL     1       6.621   4.367  28.544  0.00  0.00    -0.248 OA
BRANCH  33  35
ATOM     35  O   UNL     1       7.649   2.388  28.916  0.00  0.00    -0.479 OA
ATOM     36  H   UNL     1       8.343   2.027  28.314  0.00  0.00    +0.295 HD
ENDBRANCH  33  35
ENDBRANCH  29  33
BRANCH  30  37
ATOM     37  O   UNL     1       3.861   2.567  26.609  0.00  0.00    -0.386 OA
ATOM     38  H   UNL     1       3.608   2.001  25.844  0.00  0.00    +0.210 HD
ENDBRANCH  30  37
BRANCH  31  39
ATOM     39  O   UNL     1       5.635  -0.355  27.918  0.00  0.00    -0.386 OA
ATOM     40  H   UNL     1       6.553  -0.497  27.628  0.00  0.00    +0.210 HD
ENDBRANCH  31  39
BRANCH  32  41
ATOM     41  O   UNL     1       4.789   1.144  24.631  0.00  0.00    -0.383 OA
ATOM     42  H   UNL     1       5.393   1.382  23.898  0.00  0.00    +0.210 HD
ENDBRANCH  32  41
ENDBRANCH  26  27
ENDBRANCH  11  26
TORSDOF 12
ENDMDL
MODEL 6
REMARK VINA RESULT:      -6.5      2.301      7.308
REMARK  Name = 
REMARK  12 active torsions:
REMARK  status: ('A' for Active; 'I' for Inactive)
REMARK    1  A    between atoms: C_3  and  O_39
REMARK    2  A    between atoms: C_4  and  O_38
REMARK    3  A    between atoms: C_6  and  C_7
REMARK    4  A    between atoms: C_8  and  O_20
REMARK    5  A    between atoms: C_12  and  O_19
REMARK    6  A    between atoms: C_14  and  O_18
REMARK    7  A    between atoms: O_20  and  C_21
REMARK    8  A    between atoms: C_23  and  O_37
REMARK    9  A    between atoms: C_25  and  O_36
REMARK   10  A    between atoms: C_27  and  O_35
REMARK   11  A    between atoms: C_29  and  C_32
REMARK   12  A    between atoms: C_32  and  O_34
REMARK                            x       y       z     vdW  Elec       q    Type
REMARK                         _______ _______ _______ _____ _____    ______ ____
ROOT
ATOM      1  C   UNL     1       7.314  -3.286  23.827  0.00  0.00    +0.181 A 
ATOM      2  O   UNL     1       6.506  -4.264  23.262  0.00  0.00    -0.451 OA
ATOM      3  C   UNL     1       5.921  -5.183  24.104  0.00  0.00    +0.147 A 
ATOM      4  C   UNL     1       6.277  -5.300  25.442  0.00  0.00    +0.109 A 
ATOM      5  C   UNL     1       5.651  -6.240  26.269  0.00  0.00    +0.135 A 
ATOM      6  C   UNL     1       4.662  -7.070  25.758  0.00  0.00    +0.091 A 
ATOM      7  C   UNL     1       4.313  -6.956  24.411  0.00  0.00    +0.124 A 
ATOM      8  C   UNL     1       7.310  -4.410  25.964  0.00  0.00    +0.238 A 
ATOM      9  O   UNL     1       7.807  -4.637  27.065  0.00  0.00    -0.283 OA
ATOM     10  C   UNL     1       4.932  -6.019  23.584  0.00  0.00    +0.092 A 
ATOM     11  C   UNL     1       7.704  -3.253  25.120  0.00  0.00    +0.214 A 
ENDROOT
BRANCH   1  13
ATOM     12  C   UNL     1       8.915  -2.157  22.247  0.00  0.00    +0.015 A 
ATOM     13  C   UNL     1       7.678  -2.178  22.920  0.00  0.00    +0.025 A 
ATOM     14  C   UNL     1       6.853  -1.050  22.865  0.00  0.00    +0.060 A 
ATOM     15  C   UNL     1       7.320   0.110  22.257  0.00  0.00    +0.159 A 
ATOM     16  C   UNL     1       8.591   0.155  21.683  0.00  0.00    +0.158 A 
ATOM     17  C   UNL     1       9.381  -0.984  21.637  0.00  0.00    +0.050 A 
BRANCH  15  18
ATOM     18  O   UNL     1       6.544   1.233  22.284  0.00  0.00    -0.503 OA
ATOM     19  H   UNL     1       6.246   1.298  23.216  0.00  0.00    +0.292 HD
ENDBRANCH  15  18
BRANCH  16  20
ATOM     20  O   UNL     1       9.035   1.362  21.220  0.00  0.00    -0.503 OA
ATOM     21  H   UNL     1       8.425   1.665  20.521  0.00  0.00    +0.292 HD
ENDBRANCH  16  20
ENDBRANCH   1  13
BRANCH   5  22
ATOM     22  O   UNL     1       5.947  -6.386  27.599  0.00  0.00    -0.506 OA
ATOM     23  H   UNL     1       5.667  -7.285  27.882  0.00  0.00    +0.292 HD
ENDBRANCH   5  22
BRANCH   7  24
ATOM     24  O   UNL     1       3.353  -7.757  23.874  0.00  0.00    -0.507 OA
ATOM     25  H   UNL     1       3.266  -8.559  24.418  0.00  0.00    +0.292 HD
ENDBRANCH   7  24
BRANCH  11  26
ATOM     26  O   UNL     1       8.387  -2.163  25.633  0.00  0.00    -0.453 OA
BRANCH  26  27
ATOM     27  C   UNL     1       7.837  -1.423  26.732  0.00  0.00    +0.340 C 
ATOM     28  O   UNL     1       6.589  -0.928  26.225  0.00  0.00    -0.322 OA
ATOM     29  C   UNL     1       6.127   0.356  26.704  0.00  0.00    +0.261 C 
ATOM     30  C   UNL     1       7.165   1.490  26.577  0.00  0.00    +0.185 C 
ATOM     31  C   UNL     1       8.540   0.919  26.214  0.00  0.00    +0.180 C 
ATOM     32  C   UNL     1       8.812  -0.291  27.123  0.00  0.00    +0.214 C 
BRANCH  29  33
ATOM     33  C   UNL     1       4.943   0.670  25.783  0.00  0.00    +0.337 C 
ATOM     34  O   UNL     1       5.004   1.297  24.737  0.00  0.00    -0.248 OA
BRANCH  33  35
ATOM     35  O   UNL     1       3.772   0.157  26.252  0.00  0.00    -0.479 OA
ATOM     36  H   UNL     1       3.966  -0.694  26.710  0.00  0.00    +0.295 HD
ENDBRANCH  33  35
ENDBRANCH  29  33
BRANCH  30  37
ATOM     37  O   UNL     1       7.250   2.206  27.823  0.00  0.00    -0.386 OA
ATOM     38  H   UNL     1       8.206   2.317  28.033  0.00  0.00    +0.210 HD
ENDBRANCH  30  37
BRANCH  31  39
ATOM     39  O   UNL     1       8.601   0.602  24.822  0.00  0.00    -0.386 OA
ATOM     40  H   UNL     1       9.251   1.171  24.375  0.00  0.00    +0.210 HD
ENDBRANCH  31  39
BRANCH  32  41
ATOM     41  O   UNL     1       8.622   0.094  28.497  0.00  0.00    -0.383 OA
ATOM     42  H   UNL     1       9.336  -0.317  29.027  0.00  0.00    +0.210 HD
ENDBRANCH  32  41
ENDBRANCH  26  27
ENDBRANCH  11  26
TORSDOF 12
ENDMDL
MODEL 7
REMARK VINA RESULT:      -6.5      2.872      7.539
REMARK  Name = 
REMARK  12 active torsions:
REMARK  status: ('A' for Active; 'I' for Inactive)
REMARK    1  A    between atoms: C_3  and  O_39
REMARK    2  A    between atoms: C_4  and  O_38
REMARK    3  A    between atoms: C_6  and  C_7
REMARK    4  A    between atoms: C_8  and  O_20
REMARK    5  A    between atoms: C_12  and  O_19
REMARK    6  A    between atoms: C_14  and  O_18
REMARK    7  A    between atoms: O_20  and  C_21
REMARK    8  A    between atoms: C_23  and  O_37
REMARK    9  A    between atoms: C_25  and  O_36
REMARK   10  A    between atoms: C_27  and  O_35
REMARK   11  A    between atoms: C_29  and  C_32
REMARK   12  A    between atoms: C_32  and  O_34
REMARK                            x       y       z     vdW  Elec       q    Type
REMARK                         _______ _______ _______ _____ _____    ______ ____
ROOT
ATOM      1  C   UNL     1       7.754  -0.921  25.011  0.00  0.00    +0.181 A 
ATOM      2  O   UNL     1       8.289  -2.010  25.686  0.00  0.00    -0.451 OA
ATOM      3  C   UNL     1       7.415  -2.900  26.269  0.00  0.00    +0.147 A 
ATOM      4  C   UNL     1       6.057  -2.635  26.395  0.00  0.00    +0.109 A 
ATOM      5  C   UNL     1       5.198  -3.569  26.986  0.00  0.00    +0.135 A 
ATOM      6  C   UNL     1       5.698  -4.778  27.455  0.00  0.00    +0.091 A 
ATOM      7  C   UNL     1       7.064  -5.037  27.335  0.00  0.00    +0.124 A 
ATOM      8  C   UNL     1       5.549  -1.365  25.886  0.00  0.00    +0.238 A 
ATOM      9  O   UNL     1       4.413  -1.003  26.183  0.00  0.00    -0.283 OA
ATOM     10  C   UNL     1       7.923  -4.109  26.744  0.00  0.00    +0.092 A 
ATOM     11  C   UNL     1       6.450  -0.571  25.013  0.00  0.00    +0.214 A 
ENDROOT
BRANCH   1  13
ATOM     12  C   UNL     1       9.697   0.659  24.757  0.00  0.00    +0.015 A 
ATOM     13  C   UNL     1       8.717  -0.171  24.178  0.00  0.00    +0.025 A 
ATOM     14  C   UNL     1       8.540  -0.150  22.791  0.00  0.00    +0.060 A 
ATOM     15  C   UNL     1       9.241   0.775  22.025  0.00  0.00    +0.159 A 
ATOM     16  C   UNL     1      10.135   1.665  22.620  0.00  0.00    +0.158 A 
ATOM     17  C   UNL     1      10.401   1.590  23.979  0.00  0.00    +0.050 A 
BRANCH  15  18
ATOM     18  O   UNL     1       8.997   0.847  20.684  0.00  0.00    -0.503 OA
ATOM     19  H   UNL     1       8.474   1.668  20.577  0.00  0.00    +0.292 HD
ENDBRANCH  15  18
BRANCH  16  20
ATOM     20  O   UNL     1      10.690   2.630  21.827  0.00  0.00    -0.503 OA
ATOM     21  H   UNL     1      10.984   3.364  22.398  0.00  0.00    +0.292 HD
ENDBRANCH  16  20
ENDBRANCH   1  13
BRANCH   5  22
ATOM     22  O   UNL     1       3.848  -3.371  27.120  0.00  0.00    -0.506 OA
ATOM     23  H   UNL     1       3.478  -4.111  27.649  0.00  0.00    +0.292 HD
ENDBRANCH   5  22
BRANCH   7  24
ATOM     24  O   UNL     1       7.590  -6.207  27.789  0.00  0.00    -0.507 OA
ATOM     25  H   UNL     1       8.431  -6.377  27.330  0.00  0.00    +0.292 HD
ENDBRANCH   7  24
BRANCH  11  26
ATOM     26  O   UNL     1       5.981   0.444  24.194  0.00  0.00    -0.453 OA
BRANCH  26  27
ATOM     27  C   UNL     1       5.580   1.698  24.763  0.00  0.00    +0.340 C 
ATOM     28  O   UNL     1       4.392   2.044  24.034  0.00  0.00    -0.322 OA
ATOM     29  C   UNL     1       4.128   3.446  23.798  0.00  0.00    +0.261 C 
ATOM     30  C   UNL     1       5.305   4.213  23.162  0.00  0.00    +0.185 C 
ATOM     31  C   UNL     1       6.575   3.355  23.176  0.00  0.00    +0.180 C 
ATOM     32  C   UNL     1       6.714   2.728  24.574  0.00  0.00    +0.214 C 
BRANCH  29  33
ATOM     33  C   UNL     1       2.963   3.421  22.802  0.00  0.00    +0.337 C 
ATOM     34  O   UNL     1       1.863   2.935  23.009  0.00  0.00    -0.248 OA
BRANCH  33  35
ATOM     35  O   UNL     1       3.277   4.025  21.622  0.00  0.00    -0.479 OA
ATOM     36  H   UNL     1       3.482   3.325  20.959  0.00  0.00    +0.295 HD
ENDBRANCH  33  35
ENDBRANCH  29  33
BRANCH  30  37
ATOM     37  O   UNL     1       5.535   5.432  23.891  0.00  0.00    -0.386 OA
ATOM     38  H   UNL     1       6.327   5.289  24.460  0.00  0.00    +0.210 HD
ENDBRANCH  30  37
BRANCH  31  39
ATOM     39  O   UNL     1       6.538   2.385  22.127  0.00  0.00    -0.386 OA
ATOM     40  H   UNL     1       6.602   1.487  22.496  0.00  0.00    +0.210 HD
ENDBRANCH  31  39
BRANCH  32  41
ATOM     41  O   UNL     1       6.632   3.765  25.570  0.00  0.00    -0.383 OA
ATOM     42  H   UNL     1       6.317   3.359  26.403  0.00  0.00    +0.210 HD
ENDBRANCH  32  41
ENDBRANCH  26  27
ENDBRANCH  11  26
TORSDOF 12
ENDMDL
MODEL 8
REMARK VINA RESULT:      -6.5      1.793      2.556
REMARK  Name = 
REMARK  12 active torsions:
REMARK  status: ('A' for Active; 'I' for Inactive)
REMARK    1  A    between atoms: C_3  and  O_39
REMARK    2  A    between atoms: C_4  and  O_38
REMARK    3  A    between atoms: C_6  and  C_7
REMARK    4  A    between atoms: C_8  and  O_20
REMARK    5  A    between atoms: C_12  and  O_19
REMARK    6  A    between atoms: C_14  and  O_18
REMARK    7  A    between atoms: O_20  and  C_21
REMARK    8  A    between atoms: C_23  and  O_37
REMARK    9  A    between atoms: C_25  and  O_36
REMARK   10  A    between atoms: C_27  and  O_35
REMARK   11  A    between atoms: C_29  and  C_32
REMARK   12  A    between atoms: C_32  and  O_34
REMARK                            x       y       z     vdW  Elec       q    Type
REMARK                         _______ _______ _______ _____ _____    ______ ____
ROOT
ATOM      1  C   UNL     1       7.381  -2.608  25.828  0.00  0.00    +0.181 A 
ATOM      2  O   UNL     1       7.982  -1.370  26.015  0.00  0.00    -0.451 OA
ATOM      3  C   UNL     1       8.707  -0.841  24.971  0.00  0.00    +0.147 A 
ATOM      4  C   UNL     1       9.036  -1.581  23.842  0.00  0.00    +0.109 A 
ATOM      5  C   UNL     1       9.766  -1.005  22.797  0.00  0.00    +0.135 A 
ATOM      6  C   UNL     1      10.171   0.322  22.877  0.00  0.00    +0.091 A 
ATOM      7  C   UNL     1       9.846   1.060  24.016  0.00  0.00    +0.124 A 
ATOM      8  C   UNL     1       8.591  -2.970  23.771  0.00  0.00    +0.238 A 
ATOM      9  O   UNL     1       9.053  -3.712  22.907  0.00  0.00    -0.283 OA
ATOM     10  C   UNL     1       9.117   0.490  25.060  0.00  0.00    +0.092 A 
ATOM     11  C   UNL     1       7.578  -3.413  24.762  0.00  0.00    +0.214 A 
ENDROOT
BRANCH   1  13
ATOM     12  C   UNL     1       6.473  -4.227  27.528  0.00  0.00    +0.015 A 
ATOM     13  C   UNL     1       6.399  -2.986  26.865  0.00  0.00    +0.025 A 
ATOM     14  C   UNL     1       5.279  -2.172  27.066  0.00  0.00    +0.060 A 
ATOM     15  C   UNL     1       4.208  -2.653  27.812  0.00  0.00    +0.159 A 
ATOM     16  C   UNL     1       4.247  -3.926  28.380  0.00  0.00    +0.158 A 
ATOM     17  C   UNL     1       5.390  -4.706  28.278  0.00  0.00    +0.050 A 
BRANCH  15  18
ATOM     18  O   UNL     1       3.085  -1.887  27.929  0.00  0.00    -0.503 OA
ATOM     19  H   UNL     1       3.340  -1.023  27.544  0.00  0.00    +0.292 HD
ENDBRANCH  15  18
BRANCH  16  20
ATOM     20  O   UNL     1       3.111  -4.383  28.988  0.00  0.00    -0.503 OA
ATOM     21  H   UNL     1       3.358  -5.108  29.593  0.00  0.00    +0.292 HD
ENDBRANCH  16  20
ENDBRANCH   1  13
BRANCH   5  22
ATOM     22  O   UNL     1      10.102  -1.680  21.652  0.00  0.00    -0.506 OA
ATOM     23  H   UNL     1      10.155  -1.032  20.915  0.00  0.00    +0.292 HD
ENDBRANCH   5  22
BRANCH   7  24
ATOM     24  O   UNL     1      10.232   2.360  24.132  0.00  0.00    -0.507 OA
ATOM     25  H   UNL     1       9.999   2.683  25.020  0.00  0.00    +0.292 HD
ENDBRANCH   7  24
BRANCH  11  26
ATOM     26  O   UNL     1       6.825  -4.563  24.586  0.00  0.00    -0.453 OA
BRANCH  26  27
ATOM     27  C   UNL     1       5.772  -4.590  23.612  0.00  0.00    +0.340 C 
ATOM     28  O   UNL     1       4.624  -4.113  24.331  0.00  0.00    -0.322 OA
ATOM     29  C   UNL     1       3.330  -4.646  23.968  0.00  0.00    +0.261 C 
ATOM     30  C   UNL     1       3.263  -6.186  23.951  0.00  0.00    +0.185 C 
ATOM     31  C   UNL     1       4.669  -6.786  24.068  0.00  0.00    +0.180 C 
ATOM     32  C   UNL     1       5.592  -6.033  23.095  0.00  0.00    +0.214 C 
BRANCH  29  33
ATOM     33  C   UNL     1       2.412  -4.128  25.080  0.00  0.00    +0.337 C 
ATOM     34  O   UNL     1       1.991  -2.986  25.178  0.00  0.00    -0.248 OA
BRANCH  33  35
ATOM     35  O   UNL     1       2.087  -5.098  25.979  0.00  0.00    -0.479 OA
ATOM     36  H   UNL     1       2.920  -5.447  26.375  0.00  0.00    +0.295 HD
ENDBRANCH  33  35
ENDBRANCH  29  33
BRANCH  30  37
ATOM     37  O   UNL     1       2.647  -6.628  22.728  0.00  0.00    -0.386 OA
ATOM     38  H   UNL     1       3.369  -6.924  22.126  0.00  0.00    +0.210 HD
ENDBRANCH  30  37
BRANCH  31  39
ATOM     39  O   UNL     1       5.123  -6.743  25.422  0.00  0.00    -0.386 OA
ATOM     40  H   UNL     1       5.621  -7.551  25.636  0.00  0.00    +0.210 HD
ENDBRANCH  31  39
BRANCH  32  41
ATOM     41  O   UNL     1       5.003  -6.036  21.782  0.00  0.00    -0.383 OA
ATOM     42  H   UNL     1       5.030  -5.119  21.438  0.00  0.00    +0.210 HD
ENDBRANCH  32  41
ENDBRANCH  26  27
ENDBRANCH  11  26
TORSDOF 12
ENDMDL
MODEL 9
REMARK VINA RESULT:      -6.5      2.674      7.512
REMARK  Name = 
REMARK  12 active torsions:
REMARK  status: ('A' for Active; 'I' for Inactive)
REMARK    1  A    between atoms: C_3  and  O_39
REMARK    2  A    between atoms: C_4  and  O_38
REMARK    3  A    between atoms: C_6  and  C_7
REMARK    4  A    between atoms: C_8  and  O_20
REMARK    5  A    between atoms: C_12  and  O_19
REMARK    6  A    between atoms: C_14  and  O_18
REMARK    7  A    between atoms: O_20  and  C_21
REMARK    8  A    between atoms: C_23  and  O_37
REMARK    9  A    between atoms: C_25  and  O_36
REMARK   10  A    between atoms: C_27  and  O_35
REMARK   11  A    between atoms: C_29  and  C_32
REMARK   12  A    between atoms: C_32  and  O_34
REMARK                            x       y       z     vdW  Elec       q    Type
REMARK                         _______ _______ _______ _____ _____    ______ ____
ROOT
ATOM      1  C   UNL     1       7.734  -1.513  23.832  0.00  0.00    +0.181 A 
ATOM      2  O   UNL     1       8.012  -2.798  23.386  0.00  0.00    -0.451 OA
ATOM      3  C   UNL     1       6.967  -3.689  23.292  0.00  0.00    +0.147 A 
ATOM      4  C   UNL     1       5.711  -3.422  23.824  0.00  0.00    +0.109 A 
ATOM      5  C   UNL     1       4.670  -4.349  23.699  0.00  0.00    +0.135 A 
ATOM      6  C   UNL     1       4.882  -5.552  23.037  0.00  0.00    +0.091 A 
ATOM      7  C   UNL     1       6.147  -5.821  22.512  0.00  0.00    +0.124 A 
ATOM      8  C   UNL     1       5.505  -2.147  24.505  0.00  0.00    +0.238 A 
ATOM      9  O   UNL     1       4.491  -1.977  25.179  0.00  0.00    -0.283 OA
ATOM     10  C   UNL     1       7.187  -4.898  22.632  0.00  0.00    +0.092 A 
ATOM     11  C   UNL     1       6.549  -1.106  24.333  0.00  0.00    +0.214 A 
ENDROOT
BRANCH   1  13
ATOM     12  C   UNL     1       9.804  -0.329  24.638  0.00  0.00    +0.015 A 
ATOM     13  C   UNL     1       8.828  -0.538  23.643  0.00  0.00    +0.025 A 
ATOM     14  C   UNL     1       8.793   0.313  22.534  0.00  0.00    +0.060 A 
ATOM     15  C   UNL     1       9.635   1.419  22.493  0.00  0.00    +0.159 A 
ATOM     16  C   UNL     1      10.527   1.678  23.534  0.00  0.00    +0.158 A 
ATOM     17  C   UNL     1      10.649   0.789  24.592  0.00  0.00    +0.050 A 
BRANCH  15  18
ATOM     18  O   UNL     1       9.533   2.292  21.449  0.00  0.00    -0.503 OA
ATOM     19  H   UNL     1       9.155   3.103  21.848  0.00  0.00    +0.292 HD
ENDBRANCH  15  18
BRANCH  16  20
ATOM     20  O   UNL     1      11.229   2.850  23.490  0.00  0.00    -0.503 OA
ATOM     21  H   UNL     1      12.095   2.704  23.913  0.00  0.00    +0.292 HD
ENDBRANCH  16  20
ENDBRANCH   1  13
BRANCH   5  22
ATOM     22  O   UNL     1       3.407  -4.132  24.186  0.00  0.00    -0.506 OA
ATOM     23  H   UNL     1       3.255  -4.747  24.937  0.00  0.00    +0.292 HD
ENDBRANCH   5  22
BRANCH   7  24
ATOM     24  O   UNL     1       6.394  -6.991  21.863  0.00  0.00    -0.507 OA
ATOM     25  H   UNL     1       6.248  -7.732  22.477  0.00  0.00    +0.292 HD
ENDBRANCH   7  24
BRANCH  11  26
ATOM     26  O   UNL     1       6.313   0.230  24.617  0.00  0.00    -0.453 OA
BRANCH  26  27
ATOM     27  C   UNL     1       6.197   0.666  25.979  0.00  0.00    +0.340 C 
ATOM     28  O   UNL     1       5.154   1.651  25.939  0.00  0.00    -0.322 OA
ATOM     29  C   UNL     1       5.238   2.762  26.861  0.00  0.00    +0.261 C 
ATOM     30  C   UNL     1       6.586   3.509  26.831  0.00  0.00    +0.185 C 
ATOM     31  C   UNL     1       7.616   2.724  26.011  0.00  0.00    +0.180 C 
ATOM     32  C   UNL     1       7.549   1.249  26.443  0.00  0.00    +0.214 C 
BRANCH  29  33
ATOM     33  C   UNL     1       4.140   3.711  26.369  0.00  0.00    +0.337 C 
ATOM     34  O   UNL     1       3.129   4.008  26.986  0.00  0.00    -0.248 OA
BRANCH  33  35
ATOM     35  O   UNL     1       4.411   4.222  25.136  0.00  0.00    -0.479 OA
ATOM     36  H   UNL     1       5.293   4.662  25.168  0.00  0.00    +0.295 HD
ENDBRANCH  33  35
ENDBRANCH  29  33
BRANCH  30  37
ATOM     37  O   UNL     1       7.069   3.685  28.175  0.00  0.00    -0.386 OA
ATOM     38  H   UNL     1       8.042   3.532  28.161  0.00  0.00    +0.210 HD
ENDBRANCH  30  37
BRANCH  31  39
ATOM     39  O   UNL     1       7.393   2.911  24.613  0.00  0.00    -0.386 OA
ATOM     40  H   UNL     1       6.551   3.376  24.465  0.00  0.00    +0.210 HD
ENDBRANCH  31  39
BRANCH  32  41
ATOM     41  O   UNL     1       7.675   1.167  27.875  0.00  0.00    -0.383 OA
ATOM     42  H   UNL     1       7.805   0.226  28.113  0.00  0.00    +0.210 HD
ENDBRANCH  32  41
ENDBRANCH  26  27
ENDBRANCH  11  26
TORSDOF 12
ENDMDL
