MODEL 1
REMARK VINA RESULT:      -7.0      0.000      0.000
REMARK  Name = 
REMARK  22 active torsions:
REMARK  status: ('A' for Active; 'I' for Inactive)
REMARK    1  A    between atoms: C_1  and  C_2
REMARK    2  A    between atoms: C_3  and  O_62
REMARK    3  A    between atoms: C_5  and  O_49
REMARK    4  A    between atoms: C_6  and  O_48
REMARK    5  A    between atoms: C_8  and  O_11
REMARK    6  A    between atoms: O_11  and  C_12
REMARK    7  A    between atoms: C_12  and  C_13
REMARK    8  A    between atoms: C_14  and  O_47
REMARK    9  A    between atoms: C_16  and  O_46
REMARK   10  A    between atoms: C_18  and  O_45
REMARK   11  A    between atoms: C_19  and  O_22
REMARK   12  A    between atoms: O_22  and  C_23
REMARK   13  A    between atoms: C_24  and  C_36
REMARK   14  A    between atoms: C_28  and  O_35
REMARK   15  A    between atoms: C_30  and  O_34
REMARK   16  A    between atoms: C_38  and  O_43
REMARK   17  A    between atoms: C_39  and  O_42
REMARK   18  A    between atoms: O_43  and  C_44
REMARK   19  A    between atoms: O_49  and  C_50
REMARK   20  A    between atoms: C_52  and  O_61
REMARK   21  A    between atoms: C_53  and  O_60
REMARK   22  A    between atoms: C_55  and  O_59
REMARK                            x       y       z     vdW  Elec       q    Type
REMARK                         _______ _______ _______ _____ _____    ______ ____
ROOT
ATOM      1  C   UNL     1       4.235  -2.180  28.693  0.00  0.00    +0.179 C 
ATOM      2  O   UNL     1       5.250  -2.017  27.682  0.00  0.00    -0.331 OA
ATOM      3  C   UNL     1       5.543  -3.061  26.746  0.00  0.00    +0.340 C 
ATOM      4  C   UNL     1       5.372  -4.499  27.306  0.00  0.00    +0.214 C 
ATOM      5  C   UNL     1       4.030  -4.597  28.027  0.00  0.00    +0.180 C 
ATOM      6  C   UNL     1       4.057  -3.632  29.208  0.00  0.00    +0.177 C 
ENDROOT
BRANCH   6   7
ATOM      7  O   UNL     1       2.857  -3.826  29.972  0.00  0.00    -0.386 OA
ATOM      8  H   UNL     1       2.989  -3.383  30.832  0.00  0.00    +0.210 HD
ENDBRANCH   6   7
BRANCH   5   9
ATOM      9  O   UNL     1       3.759  -5.930  28.479  0.00  0.00    -0.386 OA
ATOM     10  H   UNL     1       2.905  -5.875  28.952  0.00  0.00    +0.210 HD
ENDBRANCH   5   9
BRANCH   4  11
ATOM     11  O   UNL     1       6.434  -4.848  28.221  0.00  0.00    -0.383 OA
ATOM     12  H   UNL     1       6.384  -5.811  28.385  0.00  0.00    +0.210 HD
ENDBRANCH   4  11
BRANCH   3  13
ATOM     13  O   UNL     1       6.894  -3.025  26.182  0.00  0.00    -0.453 OA
BRANCH  13  14
ATOM     14  C   UNL     1       7.186  -2.001  25.294  0.00  0.00    +0.214 A 
ATOM     15  C   UNL     1       8.395  -1.143  25.583  0.00  0.00    +0.238 A 
ATOM     16  O   UNL     1       9.071  -1.364  26.566  0.00  0.00    -0.283 OA
ATOM     17  C   UNL     1       8.831  -0.184  24.531  0.00  0.00    +0.109 A 
ATOM     18  C   UNL     1       8.096  -0.126  23.353  0.00  0.00    +0.147 A 
ATOM     19  C   UNL     1       8.469   0.705  22.289  0.00  0.00    +0.092 A 
ATOM     20  C   UNL     1       9.614   1.479  22.411  0.00  0.00    +0.124 A 
ATOM     21  C   UNL     1      10.379   1.429  23.571  0.00  0.00    +0.091 A 
ATOM     22  O   UNL     1       7.012  -0.925  23.134  0.00  0.00    -0.451 OA
ATOM     23  C   UNL     1       9.990   0.597  24.627  0.00  0.00    +0.135 A 
ATOM     24  C   UNL     1       6.799  -1.989  24.002  0.00  0.00    +0.181 A 
BRANCH  24  25
ATOM     25  C   UNL     1       6.344  -3.180  23.249  0.00  0.00    +0.025 A 
ATOM     26  C   UNL     1       7.350  -3.898  22.560  0.00  0.00    +0.015 A 
ATOM     27  C   UNL     1       7.056  -5.028  21.808  0.00  0.00    +0.050 A 
ATOM     28  C   UNL     1       5.761  -5.527  21.820  0.00  0.00    +0.158 A 
ATOM     29  C   UNL     1       4.761  -4.884  22.561  0.00  0.00    +0.162 A 
ATOM     30  C   UNL     1       5.042  -3.673  23.216  0.00  0.00    +0.061 A 
BRANCH  29  31
ATOM     31  O   UNL     1       3.479  -5.336  22.734  0.00  0.00    -0.491 OA
ATOM     32  C   UNL     1       2.907  -5.115  24.024  0.00  0.00    +0.277 C 
ENDBRANCH  29  31
BRANCH  28  33
ATOM     33  O   UNL     1       5.507  -6.659  21.100  0.00  0.00    -0.503 OA
ATOM     34  H   UNL     1       6.355  -7.117  20.965  0.00  0.00    +0.292 HD
ENDBRANCH  28  33
ENDBRANCH  24  25
BRANCH  23  35
ATOM     35  O   UNL     1      10.773   0.554  25.743  0.00  0.00    -0.506 OA
ATOM     36  H   UNL     1      11.403   1.291  25.743  0.00  0.00    +0.292 HD
ENDBRANCH  23  35
BRANCH  20  37
ATOM     37  O   UNL     1      10.038   2.294  21.407  0.00  0.00    -0.507 OA
ATOM     38  H   UNL     1      10.994   2.179  21.272  0.00  0.00    +0.292 HD
ENDBRANCH  20  37
ENDBRANCH  13  14
ENDBRANCH   3  13
BRANCH   1  39
ATOM     39  C   UNL     1       2.875  -1.541  28.301  0.00  0.00    +0.197 C 
BRANCH  39  40
ATOM     40  O   UNL     1       2.948  -0.496  27.333  0.00  0.00    -0.346 OA
BRANCH  40  44
ATOM     41  C   UNL     1       4.780   2.317  30.030  0.00  0.00    +0.041 C 
ATOM     42  C   UNL     1       3.651   2.643  29.056  0.00  0.00    +0.149 C 
ATOM     43  O   UNL     1       3.021   1.444  28.576  0.00  0.00    -0.343 OA
ATOM     44  C   UNL     1       3.731   0.669  27.586  0.00  0.00    +0.282 C 
ATOM     45  C   UNL     1       4.052   1.570  26.370  0.00  0.00    +0.202 C 
ATOM     46  C   UNL     1       4.880   2.762  26.867  0.00  0.00    +0.186 C 
ATOM     47  C   UNL     1       4.100   3.572  27.912  0.00  0.00    +0.174 C 
BRANCH  47  48
ATOM     48  O   UNL     1       2.956   4.196  27.311  0.00  0.00    -0.387 OA
ATOM     49  H   UNL     1       3.295   4.805  26.621  0.00  0.00    +0.210 HD
ENDBRANCH  47  48
BRANCH  45  50
ATOM     50  O   UNL     1       2.871   2.037  25.696  0.00  0.00    -0.384 OA
ATOM     51  H   UNL     1       2.538   2.793  26.223  0.00  0.00    +0.210 HD
ENDBRANCH  45  50
BRANCH  46  52
ATOM     52  O   UNL     1       5.299   3.496  25.703  0.00  0.00    -0.340 OA
BRANCH  52  53
ATOM     53  C   UNL     1       5.967   2.742  24.678  0.00  0.00    +0.282 C 
ATOM     54  O   UNL     1       7.364   3.074  24.717  0.00  0.00    -0.346 OA
ATOM     55  C   UNL     1       7.648   4.445  24.402  0.00  0.00    +0.197 C 
ATOM     56  C   UNL     1       7.085   4.891  23.040  0.00  0.00    +0.171 C 
ATOM     57  C   UNL     1       5.609   4.498  22.902  0.00  0.00    +0.178 C 
ATOM     58  C   UNL     1       5.451   3.001  23.240  0.00  0.00    +0.201 C 
BRANCH  58  59
ATOM     59  O   UNL     1       4.105   2.549  23.042  0.00  0.00    -0.384 OA
ATOM     60  H   UNL     1       4.146   1.667  22.627  0.00  0.00    +0.210 HD
ENDBRANCH  58  59
BRANCH  57  61
ATOM     61  O   UNL     1       4.781   5.327  23.726  0.00  0.00    -0.386 OA
ATOM     62  H   UNL     1       5.202   6.212  23.752  0.00  0.00    +0.210 HD
ENDBRANCH  57  61
BRANCH  56  63
ATOM     63  O   UNL     1       7.835   4.263  21.997  0.00  0.00    -0.387 OA
ATOM     64  H   UNL     1       8.398   3.575  22.396  0.00  0.00    +0.210 HD
ENDBRANCH  56  63
ENDBRANCH  52  53
ENDBRANCH  46  52
ENDBRANCH  40  44
ENDBRANCH  39  40
ENDBRANCH   1  39
TORSDOF 20
ENDMDL
MODEL 2
REMARK VINA RESULT:      -7.0      2.275      7.732
REMARK  Name = 
REMARK  22 active torsions:
REMARK  status: ('A' for Active; 'I' for Inactive)
REMARK    1  A    between atoms: C_1  and  C_2
REMARK    2  A    between atoms: C_3  and  O_62
REMARK    3  A    between atoms: C_5  and  O_49
REMARK    4  A    between atoms: C_6  and  O_48
REMARK    5  A    between atoms: C_8  and  O_11
REMARK    6  A    between atoms: O_11  and  C_12
REMARK    7  A    between atoms: C_12  and  C_13
REMARK    8  A    between atoms: C_14  and  O_47
REMARK    9  A    between atoms: C_16  and  O_46
REMARK   10  A    between atoms: C_18  and  O_45
REMARK   11  A    between atoms: C_19  and  O_22
REMARK   12  A    between atoms: O_22  and  C_23
REMARK   13  A    between atoms: C_24  and  C_36
REMARK   14  A    between atoms: C_28  and  O_35
REMARK   15  A    between atoms: C_30  and  O_34
REMARK   16  A    between atoms: C_38  and  O_43
REMARK   17  A    between atoms: C_39  and  O_42
REMARK   18  A    between atoms: O_43  and  C_44
REMARK   19  A    between atoms: O_49  and  C_50
REMARK   20  A    between atoms: C_52  and  O_61
REMARK   21  A    between atoms: C_53  and  O_60
REMARK   22  A    between atoms: C_55  and  O_59
REMARK                            x       y       z     vdW  Elec       q    Type
REMARK                         _______ _______ _______ _____ _____    ______ ____
ROOT
ATOM      1  C   UNL     1       8.063  -3.758  25.082  0.00  0.00    +0.179 C 
ATOM      2  O   UNL     1       7.172  -2.637  25.247  0.00  0.00    -0.331 OA
ATOM      3  C   UNL     1       5.877  -2.619  24.634  0.00  0.00    +0.340 C 
ATOM      4  C   UNL     1       5.796  -3.351  23.267  0.00  0.00    +0.214 C 
ATOM      5  C   UNL     1       6.463  -4.718  23.395  0.00  0.00    +0.180 C 
ATOM      6  C   UNL     1       7.936  -4.497  23.724  0.00  0.00    +0.177 C 
ENDROOT
BRANCH   6   7
ATOM      7  O   UNL     1       8.597  -5.771  23.701  0.00  0.00    -0.386 OA
ATOM      8  H   UNL     1       9.557  -5.597  23.710  0.00  0.00    +0.210 HD
ENDBRANCH   6   7
BRANCH   5   9
ATOM      9  O   UNL     1       6.332  -5.493  22.196  0.00  0.00    -0.386 OA
ATOM     10  H   UNL     1       7.062  -5.198  21.616  0.00  0.00    +0.210 HD
ENDBRANCH   5   9
BRANCH   4  11
ATOM     11  O   UNL     1       6.443  -2.598  22.217  0.00  0.00    -0.383 OA
ATOM     12  H   UNL     1       6.672  -3.222  21.499  0.00  0.00    +0.210 HD
ENDBRANCH   4  11
BRANCH   3  13
ATOM     13  O   UNL     1       5.327  -1.284  24.389  0.00  0.00    -0.453 OA
BRANCH  13  14
ATOM     14  C   UNL     1       6.092  -0.197  24.786  0.00  0.00    +0.214 A 
ATOM     15  C   UNL     1       6.937   0.487  23.737  0.00  0.00    +0.238 A 
ATOM     16  O   UNL     1       6.928   0.080  22.595  0.00  0.00    -0.283 OA
ATOM     17  C   UNL     1       7.593   1.772  24.107  0.00  0.00    +0.109 A 
ATOM     18  C   UNL     1       7.399   2.258  25.395  0.00  0.00    +0.147 A 
ATOM     19  C   UNL     1       7.931   3.486  25.808  0.00  0.00    +0.092 A 
ATOM     20  C   UNL     1       8.657   4.244  24.901  0.00  0.00    +0.124 A 
ATOM     21  C   UNL     1       8.853   3.790  23.601  0.00  0.00    +0.091 A 
ATOM     22  O   UNL     1       6.623   1.607  26.308  0.00  0.00    -0.451 OA
ATOM     23  C   UNL     1       8.320   2.559  23.205  0.00  0.00    +0.135 A 
ATOM     24  C   UNL     1       5.810   0.574  25.856  0.00  0.00    +0.181 A 
BRANCH  24  25
ATOM     25  C   UNL     1       4.495   0.623  26.535  0.00  0.00    +0.025 A 
ATOM     26  C   UNL     1       3.810   1.859  26.468  0.00  0.00    +0.015 A 
ATOM     27  C   UNL     1       2.572   2.042  27.071  0.00  0.00    +0.050 A 
ATOM     28  C   UNL     1       1.944   0.955  27.661  0.00  0.00    +0.158 A 
ATOM     29  C   UNL     1       2.562  -0.303  27.670  0.00  0.00    +0.162 A 
ATOM     30  C   UNL     1       3.867  -0.447  27.167  0.00  0.00    +0.061 A 
BRANCH  29  31
ATOM     31  O   UNL     1       2.001  -1.466  28.126  0.00  0.00    -0.491 OA
ATOM     32  C   UNL     1       2.002  -2.562  27.210  0.00  0.00    +0.277 C 
ENDBRANCH  29  31
BRANCH  28  33
ATOM     33  O   UNL     1       0.713   1.154  28.217  0.00  0.00    -0.503 OA
ATOM     34  H   UNL     1       0.454   0.327  28.660  0.00  0.00    +0.292 HD
ENDBRANCH  28  33
ENDBRANCH  24  25
BRANCH  23  35
ATOM     35  O   UNL     1       8.510   2.152  21.917  0.00  0.00    -0.506 OA
ATOM     36  H   UNL     1       7.990   1.354  21.733  0.00  0.00    +0.292 HD
ENDBRANCH  23  35
BRANCH  20  37
ATOM     37  O   UNL     1       9.186   5.452  25.237  0.00  0.00    -0.507 OA
ATOM     38  H   UNL     1       8.474   6.109  25.324  0.00  0.00    +0.292 HD
ENDBRANCH  20  37
ENDBRANCH  13  14
ENDBRANCH   3  13
BRANCH   1  39
ATOM     39  C   UNL     1       8.023  -4.749  26.278  0.00  0.00    +0.197 C 
BRANCH  39  40
ATOM     40  O   UNL     1       7.443  -4.237  27.475  0.00  0.00    -0.346 OA
BRANCH  40  44
ATOM     41  C   UNL     1       4.069  -4.037  30.142  0.00  0.00    +0.041 C 
ATOM     42  C   UNL     1       4.784  -5.321  29.727  0.00  0.00    +0.149 C 
ATOM     43  O   UNL     1       6.065  -5.031  29.143  0.00  0.00    -0.343 OA
ATOM     44  C   UNL     1       6.081  -4.515  27.795  0.00  0.00    +0.282 C 
ATOM     45  C   UNL     1       5.334  -5.500  26.865  0.00  0.00    +0.202 C 
ATOM     46  C   UNL     1       3.905  -5.667  27.398  0.00  0.00    +0.186 C 
ATOM     47  C   UNL     1       3.916  -6.223  28.829  0.00  0.00    +0.174 C 
BRANCH  47  48
ATOM     48  O   UNL     1       4.430  -7.563  28.843  0.00  0.00    -0.387 OA
ATOM     49  H   UNL     1       4.234  -7.931  29.731  0.00  0.00    +0.210 HD
ENDBRANCH  47  48
BRANCH  45  50
ATOM     50  O   UNL     1       5.980  -6.782  26.778  0.00  0.00    -0.384 OA
ATOM     51  H   UNL     1       5.821  -7.225  27.637  0.00  0.00    +0.210 HD
ENDBRANCH  45  50
BRANCH  46  52
ATOM     52  O   UNL     1       3.187  -6.456  26.435  0.00  0.00    -0.340 OA
BRANCH  52  53
ATOM     53  C   UNL     1       3.095  -5.915  25.106  0.00  0.00    +0.282 C 
ATOM     54  O   UNL     1       1.783  -5.352  24.942  0.00  0.00    -0.346 OA
ATOM     55  C   UNL     1       0.721  -6.313  25.017  0.00  0.00    +0.197 C 
ATOM     56  C   UNL     1       0.874  -7.476  24.019  0.00  0.00    +0.171 C 
ATOM     57  C   UNL     1       2.283  -8.077  24.088  0.00  0.00    +0.178 C 
ATOM     58  C   UNL     1       3.323  -6.943  23.968  0.00  0.00    +0.201 C 
BRANCH  58  59
ATOM     59  O   UNL     1       4.664  -7.449  23.937  0.00  0.00    -0.384 OA
ATOM     60  H   UNL     1       4.617  -8.417  24.047  0.00  0.00    +0.210 HD
ENDBRANCH  58  59
BRANCH  57  61
ATOM     61  O   UNL     1       2.454  -8.840  25.289  0.00  0.00    -0.386 OA
ATOM     62  H   UNL     1       3.411  -9.039  25.363  0.00  0.00    +0.210 HD
ENDBRANCH  57  61
BRANCH  56  63
ATOM     63  O   UNL     1       0.640  -6.987  22.695  0.00  0.00    -0.387 OA
ATOM     64  H   UNL     1       1.237  -7.457  22.085  0.00  0.00    +0.210 HD
ENDBRANCH  56  63
ENDBRANCH  52  53
ENDBRANCH  46  52
ENDBRANCH  40  44
ENDBRANCH  39  40
ENDBRANCH   1  39
TORSDOF 20
ENDMDL
MODEL 3
REMARK VINA RESULT:      -6.8      2.848      9.618
REMARK  Name = 
REMARK  22 active torsions:
REMARK  status: ('A' for Active; 'I' for Inactive)
REMARK    1  A    between atoms: C_1  and  C_2
REMARK    2  A    between atoms: C_3  and  O_62
REMARK    3  A    between atoms: C_5  and  O_49
REMARK    4  A    between atoms: C_6  and  O_48
REMARK    5  A    between atoms: C_8  and  O_11
REMARK    6  A    between atoms: O_11  and  C_12
REMARK    7  A    between atoms: C_12  and  C_13
REMARK    8  A    between atoms: C_14  and  O_47
REMARK    9  A    between atoms: C_16  and  O_46
REMARK   10  A    between atoms: C_18  and  O_45
REMARK   11  A    between atoms: C_19  and  O_22
REMARK   12  A    between atoms: O_22  and  C_23
REMARK   13  A    between atoms: C_24  and  C_36
REMARK   14  A    between atoms: C_28  and  O_35
REMARK   15  A    between atoms: C_30  and  O_34
REMARK   16  A    between atoms: C_38  and  O_43
REMARK   17  A    between atoms: C_39  and  O_42
REMARK   18  A    between atoms: O_43  and  C_44
REMARK   19  A    between atoms: O_49  and  C_50
REMARK   20  A    between atoms: C_52  and  O_61
REMARK   21  A    between atoms: C_53  and  O_60
REMARK   22  A    between atoms: C_55  and  O_59
REMARK                            x       y       z     vdW  Elec       q    Type
REMARK                         _______ _______ _______ _____ _____    ______ ____
ROOT
ATOM      1  C   UNL     1       9.189   1.220  24.663  0.00  0.00    +0.179 C 
ATOM      2  O   UNL     1       8.451   2.314  24.083  0.00  0.00    -0.331 OA
ATOM      3  C   UNL     1       7.997   2.269  22.725  0.00  0.00    +0.340 C 
ATOM      4  C   UNL     1       8.929   1.493  21.756  0.00  0.00    +0.214 C 
ATOM      5  C   UNL     1       9.301   0.154  22.388  0.00  0.00    +0.180 C 
ATOM      6  C   UNL     1      10.082   0.436  23.667  0.00  0.00    +0.177 C 
ENDROOT
BRANCH   6   7
ATOM      7  O   UNL     1      10.558  -0.815  24.186  0.00  0.00    -0.386 OA
ATOM      8  H   UNL     1      11.218  -0.608  24.874  0.00  0.00    +0.210 HD
ENDBRANCH   6   7
BRANCH   5   9
ATOM      9  O   UNL     1      10.077  -0.661  21.500  0.00  0.00    -0.386 OA
ATOM     10  H   UNL     1      10.449  -0.043  20.839  0.00  0.00    +0.210 HD
ENDBRANCH   5   9
BRANCH   4  11
ATOM     11  O   UNL     1      10.133   2.235  21.461  0.00  0.00    -0.383 OA
ATOM     12  H   UNL     1      10.771   2.070  22.185  0.00  0.00    +0.210 HD
ENDBRANCH   4  11
BRANCH   3  13
ATOM     13  O   UNL     1       7.791   3.576  22.098  0.00  0.00    -0.453 OA
BRANCH  13  14
ATOM     14  C   UNL     1       6.753   4.358  22.582  0.00  0.00    +0.214 A 
ATOM     15  C   UNL     1       5.424   3.685  22.834  0.00  0.00    +0.238 A 
ATOM     16  O   UNL     1       5.296   2.500  22.612  0.00  0.00    -0.283 OA
ATOM     17  C   UNL     1       4.376   4.467  23.546  0.00  0.00    +0.109 A 
ATOM     18  C   UNL     1       4.677   5.770  23.925  0.00  0.00    +0.147 A 
ATOM     19  C   UNL     1       3.771   6.557  24.648  0.00  0.00    +0.092 A 
ATOM     20  C   UNL     1       2.547   6.012  25.009  0.00  0.00    +0.124 A 
ATOM     21  C   UNL     1       2.226   4.706  24.658  0.00  0.00    +0.091 A 
ATOM     22  O   UNL     1       5.894   6.336  23.679  0.00  0.00    -0.451 OA
ATOM     23  C   UNL     1       3.140   3.935  23.931  0.00  0.00    +0.135 A 
ATOM     24  C   UNL     1       6.929   5.504  23.271  0.00  0.00    +0.181 A 
BRANCH  24  25
ATOM     25  C   UNL     1       8.196   5.907  23.924  0.00  0.00    +0.025 A 
ATOM     26  C   UNL     1       8.103   6.262  25.290  0.00  0.00    +0.015 A 
ATOM     27  C   UNL     1       9.215   6.668  26.017  0.00  0.00    +0.050 A 
ATOM     28  C   UNL     1      10.465   6.620  25.417  0.00  0.00    +0.158 A 
ATOM     29  C   UNL     1      10.599   6.193  24.090  0.00  0.00    +0.162 A 
ATOM     30  C   UNL     1       9.455   5.904  23.327  0.00  0.00    +0.061 A 
BRANCH  29  31
ATOM     31  O   UNL     1      11.783   6.004  23.427  0.00  0.00    -0.491 OA
ATOM     32  C   UNL     1      12.262   4.660  23.372  0.00  0.00    +0.277 C 
ENDBRANCH  29  31
BRANCH  28  33
ATOM     33  O   UNL     1      11.546   6.992  26.165  0.00  0.00    -0.503 OA
ATOM     34  H   UNL     1      11.217   7.264  27.040  0.00  0.00    +0.292 HD
ENDBRANCH  28  33
ENDBRANCH  24  25
BRANCH  23  35
ATOM     35  O   UNL     1       2.804   2.649  23.622  0.00  0.00    -0.506 OA
ATOM     36  H   UNL     1       2.651   2.559  22.668  0.00  0.00    +0.292 HD
ENDBRANCH  23  35
BRANCH  20  37
ATOM     37  O   UNL     1       1.632   6.720  25.725  0.00  0.00    -0.507 OA
ATOM     38  H   UNL     1       1.912   7.649  25.790  0.00  0.00    +0.292 HD
ENDBRANCH  20  37
ENDBRANCH  13  14
ENDBRANCH   3  13
BRANCH   1  39
ATOM     39  C   UNL     1       8.300   0.265  25.507  0.00  0.00    +0.197 C 
BRANCH  39  40
ATOM     40  O   UNL     1       7.507  -0.652  24.758  0.00  0.00    -0.346 OA
BRANCH  40  44
ATOM     41  C   UNL     1       9.434  -4.258  26.110  0.00  0.00    +0.041 C 
ATOM     42  C   UNL     1       8.826  -4.055  24.725  0.00  0.00    +0.149 C 
ATOM     43  O   UNL     1       8.599  -2.660  24.461  0.00  0.00    -0.343 OA
ATOM     44  C   UNL     1       7.473  -2.034  25.111  0.00  0.00    +0.282 C 
ATOM     45  C   UNL     1       6.184  -2.812  24.757  0.00  0.00    +0.202 C 
ATOM     46  C   UNL     1       6.369  -4.268  25.206  0.00  0.00    +0.186 C 
ATOM     47  C   UNL     1       7.567  -4.912  24.495  0.00  0.00    +0.174 C 
BRANCH  47  48
ATOM     48  O   UNL     1       7.310  -5.033  23.088  0.00  0.00    -0.387 OA
ATOM     49  H   UNL     1       6.345  -4.899  22.964  0.00  0.00    +0.210 HD
ENDBRANCH  47  48
BRANCH  45  50
ATOM     50  O   UNL     1       5.873  -2.765  23.354  0.00  0.00    -0.384 OA
ATOM     51  H   UNL     1       6.132  -3.637  22.989  0.00  0.00    +0.210 HD
ENDBRANCH  45  50
BRANCH  46  52
ATOM     52  O   UNL     1       5.107  -4.930  25.013  0.00  0.00    -0.340 OA
BRANCH  52  53
ATOM     53  C   UNL     1       5.157  -6.351  24.799  0.00  0.00    +0.282 C 
ATOM     54  O   UNL     1       4.823  -6.610  23.426  0.00  0.00    -0.346 OA
ATOM     55  C   UNL     1       3.484  -6.235  23.070  0.00  0.00    +0.197 C 
ATOM     56  C   UNL     1       2.408  -6.887  23.957  0.00  0.00    +0.171 C 
ATOM     57  C   UNL     1       2.744  -6.713  25.444  0.00  0.00    +0.178 C 
ATOM     58  C   UNL     1       4.195  -7.176  25.692  0.00  0.00    +0.201 C 
BRANCH  58  59
ATOM     59  O   UNL     1       4.542  -7.122  27.082  0.00  0.00    -0.384 OA
ATOM     60  H   UNL     1       4.639  -6.184  27.327  0.00  0.00    +0.210 HD
ENDBRANCH  58  59
BRANCH  57  61
ATOM     61  O   UNL     1       2.532  -5.358  25.860  0.00  0.00    -0.386 OA
ATOM     62  H   UNL     1       1.590  -5.152  25.684  0.00  0.00    +0.210 HD
ENDBRANCH  57  61
BRANCH  56  63
ATOM     63  O   UNL     1       2.337  -8.283  23.655  0.00  0.00    -0.387 OA
ATOM     64  H   UNL     1       2.864  -8.766  24.317  0.00  0.00    +0.210 HD
ENDBRANCH  56  63
ENDBRANCH  52  53
ENDBRANCH  46  52
ENDBRANCH  40  44
ENDBRANCH  39  40
ENDBRANCH   1  39
TORSDOF 20
ENDMDL
MODEL 4
REMARK VINA RESULT:      -6.8      1.967      5.517
REMARK  Name = 
REMARK  22 active torsions:
REMARK  status: ('A' for Active; 'I' for Inactive)
REMARK    1  A    between atoms: C_1  and  C_2
REMARK    2  A    between atoms: C_3  and  O_62
REMARK    3  A    between atoms: C_5  and  O_49
REMARK    4  A    between atoms: C_6  and  O_48
REMARK    5  A    between atoms: C_8  and  O_11
REMARK    6  A    between atoms: O_11  and  C_12
REMARK    7  A    between atoms: C_12  and  C_13
REMARK    8  A    between atoms: C_14  and  O_47
REMARK    9  A    between atoms: C_16  and  O_46
REMARK   10  A    between atoms: C_18  and  O_45
REMARK   11  A    between atoms: C_19  and  O_22
REMARK   12  A    between atoms: O_22  and  C_23
REMARK   13  A    between atoms: C_24  and  C_36
REMARK   14  A    between atoms: C_28  and  O_35
REMARK   15  A    between atoms: C_30  and  O_34
REMARK   16  A    between atoms: C_38  and  O_43
REMARK   17  A    between atoms: C_39  and  O_42
REMARK   18  A    between atoms: O_43  and  C_44
REMARK   19  A    between atoms: O_49  and  C_50
REMARK   20  A    between atoms: C_52  and  O_61
REMARK   21  A    between atoms: C_53  and  O_60
REMARK   22  A    between atoms: C_55  and  O_59
REMARK                            x       y       z     vdW  Elec       q    Type
REMARK                         _______ _______ _______ _____ _____    ______ ____
ROOT
ATOM      1  C   UNL     1       6.720  -4.760  23.971  0.00  0.00    +0.179 C 
ATOM      2  O   UNL     1       6.204  -4.125  25.158  0.00  0.00    -0.331 OA
ATOM      3  C   UNL     1       7.073  -3.724  26.225  0.00  0.00    +0.340 C 
ATOM      4  C   UNL     1       8.310  -4.638  26.431  0.00  0.00    +0.214 C 
ATOM      5  C   UNL     1       8.974  -4.889  25.080  0.00  0.00    +0.180 C 
ATOM      6  C   UNL     1       7.980  -5.636  24.196  0.00  0.00    +0.177 C 
ENDROOT
BRANCH   6   7
ATOM      7  O   UNL     1       8.649  -6.002  22.980  0.00  0.00    -0.386 OA
ATOM      8  H   UNL     1       8.218  -5.509  22.256  0.00  0.00    +0.210 HD
ENDBRANCH   6   7
BRANCH   5   9
ATOM      9  O   UNL     1      10.188  -5.642  25.210  0.00  0.00    -0.386 OA
ATOM     10  H   UNL     1      10.636  -5.276  25.998  0.00  0.00    +0.210 HD
ENDBRANCH   5   9
BRANCH   4  11
ATOM     11  O   UNL     1       7.949  -5.902  27.031  0.00  0.00    -0.383 OA
ATOM     12  H   UNL     1       8.660  -6.543  26.828  0.00  0.00    +0.210 HD
ENDBRANCH   4  11
BRANCH   3  13
ATOM     13  O   UNL     1       6.435  -3.635  27.540  0.00  0.00    -0.453 OA
BRANCH  13  14
ATOM     14  C   UNL     1       5.297  -2.850  27.645  0.00  0.00    +0.214 A 
ATOM     15  C   UNL     1       5.441  -1.366  27.397  0.00  0.00    +0.238 A 
ATOM     16  O   UNL     1       6.527  -0.904  27.117  0.00  0.00    -0.283 OA
ATOM     17  C   UNL     1       4.196  -0.556  27.302  0.00  0.00    +0.109 A 
ATOM     18  C   UNL     1       2.978  -1.208  27.459  0.00  0.00    +0.147 A 
ATOM     19  C   UNL     1       1.757  -0.534  27.327  0.00  0.00    +0.092 A 
ATOM     20  C   UNL     1       1.766   0.818  27.016  0.00  0.00    +0.124 A 
ATOM     21  C   UNL     1       2.969   1.493  26.838  0.00  0.00    +0.091 A 
ATOM     22  O   UNL     1       2.896  -2.552  27.677  0.00  0.00    -0.451 OA
ATOM     23  C   UNL     1       4.180   0.806  26.977  0.00  0.00    +0.135 A 
ATOM     24  C   UNL     1       4.041  -3.315  27.485  0.00  0.00    +0.181 A 
BRANCH  24  25
ATOM     25  C   UNL     1       3.697  -4.598  26.830  0.00  0.00    +0.025 A 
ATOM     26  C   UNL     1       4.266  -5.759  27.404  0.00  0.00    +0.015 A 
ATOM     27  C   UNL     1       4.031  -7.024  26.880  0.00  0.00    +0.050 A 
ATOM     28  C   UNL     1       3.130  -7.162  25.834  0.00  0.00    +0.158 A 
ATOM     29  C   UNL     1       2.487  -6.038  25.298  0.00  0.00    +0.162 A 
ATOM     30  C   UNL     1       2.826  -4.753  25.753  0.00  0.00    +0.061 A 
BRANCH  29  31
ATOM     31  O   UNL     1       1.507  -6.059  24.341  0.00  0.00    -0.491 OA
ATOM     32  C   UNL     1       1.956  -6.033  22.985  0.00  0.00    +0.277 C 
ENDBRANCH  29  31
BRANCH  28  33
ATOM     33  O   UNL     1       2.891  -8.421  25.361  0.00  0.00    -0.503 OA
ATOM     34  H   UNL     1       3.078  -8.415  24.406  0.00  0.00    +0.292 HD
ENDBRANCH  28  33
ENDBRANCH  24  25
BRANCH  23  35
ATOM     35  O   UNL     1       5.342   1.490  26.773  0.00  0.00    -0.506 OA
ATOM     36  H   UNL     1       5.973   1.308  27.487  0.00  0.00    +0.292 HD
ENDBRANCH  23  35
BRANCH  20  37
ATOM     37  O   UNL     1       0.614   1.525  26.860  0.00  0.00    -0.507 OA
ATOM     38  H   UNL     1       0.119   1.182  26.097  0.00  0.00    +0.292 HD
ENDBRANCH  20  37
ENDBRANCH  13  14
ENDBRANCH   3  13
BRANCH   1  39
ATOM     39  C   UNL     1       6.914  -3.774  22.787  0.00  0.00    +0.197 C 
BRANCH  39  40
ATOM     40  O   UNL     1       6.512  -2.430  23.040  0.00  0.00    -0.346 OA
BRANCH  40  44
ATOM     41  C   UNL     1      10.567  -1.001  22.817  0.00  0.00    +0.041 C 
ATOM     42  C   UNL     1       9.644  -0.835  24.022  0.00  0.00    +0.149 C 
ATOM     43  O   UNL     1       8.515  -1.721  23.932  0.00  0.00    -0.343 OA
ATOM     44  C   UNL     1       7.467  -1.370  23.004  0.00  0.00    +0.282 C 
ATOM     45  C   UNL     1       6.946   0.048  23.336  0.00  0.00    +0.202 C 
ATOM     46  C   UNL     1       8.131   1.020  23.256  0.00  0.00    +0.186 C 
ATOM     47  C   UNL     1       9.228   0.630  24.256  0.00  0.00    +0.174 C 
BRANCH  47  48
ATOM     48  O   UNL     1       8.761   0.794  25.603  0.00  0.00    -0.387 OA
ATOM     49  H   UNL     1       9.554   0.935  26.162  0.00  0.00    +0.210 HD
ENDBRANCH  47  48
BRANCH  45  50
ATOM     50  O   UNL     1       6.333   0.126  24.634  0.00  0.00    -0.384 OA
ATOM     51  H   UNL     1       6.970  -0.276  25.261  0.00  0.00    +0.210 HD
ENDBRANCH  45  50
BRANCH  46  52
ATOM     52  O   UNL     1       7.598   2.346  23.411  0.00  0.00    -0.340 OA
BRANCH  52  53
ATOM     53  C   UNL     1       6.614   2.756  22.447  0.00  0.00    +0.282 C 
ATOM     54  O   UNL     1       7.174   3.818  21.658  0.00  0.00    -0.346 OA
ATOM     55  C   UNL     1       7.469   5.007  22.404  0.00  0.00    +0.197 C 
ATOM     56  C   UNL     1       6.256   5.566  23.171  0.00  0.00    +0.171 C 
ATOM     57  C   UNL     1       5.562   4.463  23.979  0.00  0.00    +0.178 C 
ATOM     58  C   UNL     1       5.280   3.260  23.054  0.00  0.00    +0.201 C 
BRANCH  58  59
ATOM     59  O   UNL     1       4.550   2.228  23.730  0.00  0.00    -0.384 OA
ATOM     60  H   UNL     1       3.908   2.659  24.323  0.00  0.00    +0.210 HD
ENDBRANCH  58  59
BRANCH  57  61
ATOM     61  O   UNL     1       6.348   4.093  25.119  0.00  0.00    -0.386 OA
ATOM     62  H   UNL     1       5.718   3.859  25.833  0.00  0.00    +0.210 HD
ENDBRANCH  57  61
BRANCH  56  63
ATOM     63  O   UNL     1       5.325   6.115  22.235  0.00  0.00    -0.387 OA
ATOM     64  H   UNL     1       5.772   6.203  21.374  0.00  0.00    +0.210 HD
ENDBRANCH  56  63
ENDBRANCH  52  53
ENDBRANCH  46  52
ENDBRANCH  40  44
ENDBRANCH  39  40
ENDBRANCH   1  39
TORSDOF 20
ENDMDL
MODEL 5
REMARK VINA RESULT:      -6.6      2.095      4.068
REMARK  Name = 
REMARK  22 active torsions:
REMARK  status: ('A' for Active; 'I' for Inactive)
REMARK    1  A    between atoms: C_1  and  C_2
REMARK    2  A    between atoms: C_3  and  O_62
REMARK    3  A    between atoms: C_5  and  O_49
REMARK    4  A    between atoms: C_6  and  O_48
REMARK    5  A    between atoms: C_8  and  O_11
REMARK    6  A    between atoms: O_11  and  C_12
REMARK    7  A    between atoms: C_12  and  C_13
REMARK    8  A    between atoms: C_14  and  O_47
REMARK    9  A    between atoms: C_16  and  O_46
REMARK   10  A    between atoms: C_18  and  O_45
REMARK   11  A    between atoms: C_19  and  O_22
REMARK   12  A    between atoms: O_22  and  C_23
REMARK   13  A    between atoms: C_24  and  C_36
REMARK   14  A    between atoms: C_28  and  O_35
REMARK   15  A    between atoms: C_30  and  O_34
REMARK   16  A    between atoms: C_38  and  O_43
REMARK   17  A    between atoms: C_39  and  O_42
REMARK   18  A    between atoms: O_43  and  C_44
REMARK   19  A    between atoms: O_49  and  C_50
REMARK   20  A    between atoms: C_52  and  O_61
REMARK   21  A    between atoms: C_53  and  O_60
REMARK   22  A    between atoms: C_55  and  O_59
REMARK                            x       y       z     vdW  Elec       q    Type
REMARK                         _______ _______ _______ _____ _____    ______ ____
ROOT
ATOM      1  C   UNL     1       2.780   1.638  27.629  0.00  0.00    +0.179 C 
ATOM      2  O   UNL     1       3.979   0.961  27.202  0.00  0.00    -0.331 OA
ATOM      3  C   UNL     1       3.952  -0.411  26.789  0.00  0.00    +0.340 C 
ATOM      4  C   UNL     1       2.907  -1.290  27.526  0.00  0.00    +0.214 C 
ATOM      5  C   UNL     1       1.564  -0.562  27.536  0.00  0.00    +0.180 C 
ATOM      6  C   UNL     1       1.734   0.731  28.328  0.00  0.00    +0.177 C 
ENDROOT
BRANCH   6   7
ATOM      7  O   UNL     1       0.443   1.344  28.464  0.00  0.00    -0.386 OA
ATOM      8  H   UNL     1       0.578   2.310  28.420  0.00  0.00    +0.210 HD
ENDBRANCH   6   7
BRANCH   5   9
ATOM      9  O   UNL     1       0.524  -1.365  28.111  0.00  0.00    -0.386 OA
ATOM     10  H   UNL     1      -0.273  -0.798  28.107  0.00  0.00    +0.210 HD
ENDBRANCH   5   9
BRANCH   4  11
ATOM     11  O   UNL     1       3.308  -1.576  28.884  0.00  0.00    -0.383 OA
ATOM     12  H   UNL     1       3.526  -2.528  28.937  0.00  0.00    +0.210 HD
ENDBRANCH   4  11
BRANCH   3  13
ATOM     13  O   UNL     1       5.224  -1.124  26.930  0.00  0.00    -0.453 OA
BRANCH  13  14
ATOM     14  C   UNL     1       6.017  -1.242  25.799  0.00  0.00    +0.214 A 
ATOM     15  C   UNL     1       7.222  -0.338  25.688  0.00  0.00    +0.238 A 
ATOM     16  O   UNL     1       7.466   0.455  26.573  0.00  0.00    -0.283 OA
ATOM     17  C   UNL     1       8.188  -0.603  24.586  0.00  0.00    +0.109 A 
ATOM     18  C   UNL     1       7.918  -1.656  23.719  0.00  0.00    +0.147 A 
ATOM     19  C   UNL     1       8.800  -2.012  22.691  0.00  0.00    +0.092 A 
ATOM     20  C   UNL     1       9.984  -1.302  22.546  0.00  0.00    +0.124 A 
ATOM     21  C   UNL     1      10.288  -0.254  23.408  0.00  0.00    +0.091 A 
ATOM     22  O   UNL     1       6.818  -2.450  23.861  0.00  0.00    -0.451 OA
ATOM     23  C   UNL     1       9.393   0.092  24.427  0.00  0.00    +0.135 A 
ATOM     24  C   UNL     1       6.094  -2.357  25.044  0.00  0.00    +0.181 A 
BRANCH  24  25
ATOM     25  C   UNL     1       5.659  -3.703  25.484  0.00  0.00    +0.025 A 
ATOM     26  C   UNL     1       4.661  -4.320  24.694  0.00  0.00    +0.015 A 
ATOM     27  C   UNL     1       4.158  -5.577  25.004  0.00  0.00    +0.050 A 
ATOM     28  C   UNL     1       4.725  -6.290  26.050  0.00  0.00    +0.158 A 
ATOM     29  C   UNL     1       5.772  -5.738  26.799  0.00  0.00    +0.162 A 
ATOM     30  C   UNL     1       6.188  -4.418  26.556  0.00  0.00    +0.061 A 
BRANCH  29  31
ATOM     31  O   UNL     1       6.478  -6.381  27.781  0.00  0.00    -0.491 OA
ATOM     32  C   UNL     1       6.109  -6.067  29.125  0.00  0.00    +0.277 C 
ENDBRANCH  29  31
BRANCH  28  33
ATOM     33  O   UNL     1       4.235  -7.538  26.311  0.00  0.00    -0.503 OA
ATOM     34  H   UNL     1       4.995  -8.124  26.467  0.00  0.00    +0.292 HD
ENDBRANCH  28  33
ENDBRANCH  24  25
BRANCH  23  35
ATOM     35  O   UNL     1       9.731   1.109  25.271  0.00  0.00    -0.506 OA
ATOM     36  H   UNL     1       9.453   1.962  24.901  0.00  0.00    +0.292 HD
ENDBRANCH  23  35
BRANCH  20  37
ATOM     37  O   UNL     1      10.889  -1.609  21.577  0.00  0.00    -0.507 OA
ATOM     38  H   UNL     1      10.424  -1.888  20.771  0.00  0.00    +0.292 HD
ENDBRANCH  20  37
ENDBRANCH  13  14
ENDBRANCH   3  13
BRANCH   1  39
ATOM     39  C   UNL     1       2.134   2.497  26.508  0.00  0.00    +0.197 C 
BRANCH  39  40
ATOM     40  O   UNL     1       2.761   3.754  26.265  0.00  0.00    -0.346 OA
BRANCH  40  44
ATOM     41  C   UNL     1       2.499   4.325  22.005  0.00  0.00    +0.041 C 
ATOM     42  C   UNL     1       3.234   3.177  22.692  0.00  0.00    +0.149 C 
ATOM     43  O   UNL     1       2.834   3.060  24.068  0.00  0.00    -0.343 OA
ATOM     44  C   UNL     1       3.358   4.031  24.998  0.00  0.00    +0.282 C 
ATOM     45  C   UNL     1       4.904   4.012  24.938  0.00  0.00    +0.202 C 
ATOM     46  C   UNL     1       5.326   4.314  23.494  0.00  0.00    +0.186 C 
ATOM     47  C   UNL     1       4.763   3.264  22.527  0.00  0.00    +0.174 C 
BRANCH  47  48
ATOM     48  O   UNL     1       5.355   1.981  22.779  0.00  0.00    -0.387 OA
ATOM     49  H   UNL     1       4.865   1.588  23.534  0.00  0.00    +0.210 HD
ENDBRANCH  47  48
BRANCH  45  50
ATOM     50  O   UNL     1       5.462   2.756  25.361  0.00  0.00    -0.384 OA
ATOM     51  H   UNL     1       4.785   2.077  25.162  0.00  0.00    +0.210 HD
ENDBRANCH  45  50
BRANCH  46  52
ATOM     52  O   UNL     1       6.758   4.448  23.495  0.00  0.00    -0.340 OA
BRANCH  52  53
ATOM     53  C   UNL     1       7.328   5.213  24.570  0.00  0.00    +0.282 C 
ATOM     54  O   UNL     1       7.690   6.505  24.057  0.00  0.00    -0.346 OA
ATOM     55  C   UNL     1       8.715   6.470  23.054  0.00  0.00    +0.197 C 
ATOM     56  C   UNL     1      10.000   5.758  23.515  0.00  0.00    +0.171 C 
ATOM     57  C   UNL     1       9.678   4.397  24.144  0.00  0.00    +0.178 C 
ATOM     58  C   UNL     1       8.586   4.584  25.220  0.00  0.00    +0.201 C 
BRANCH  58  59
ATOM     59  O   UNL     1       8.303   3.360  25.910  0.00  0.00    -0.384 OA
ATOM     60  H   UNL     1       8.179   3.573  26.853  0.00  0.00    +0.210 HD
ENDBRANCH  58  59
BRANCH  57  61
ATOM     61  O   UNL     1       9.290   3.450  23.142  0.00  0.00    -0.386 OA
ATOM     62  H   UNL     1      10.053   3.354  22.533  0.00  0.00    +0.210 HD
ENDBRANCH  57  61
BRANCH  56  63
ATOM     63  O   UNL     1      10.664   6.575  24.483  0.00  0.00    -0.387 OA
ATOM     64  H   UNL     1      10.214   7.439  24.515  0.00  0.00    +0.210 HD
ENDBRANCH  56  63
ENDBRANCH  52  53
ENDBRANCH  46  52
ENDBRANCH  40  44
ENDBRANCH  39  40
ENDBRANCH   1  39
TORSDOF 20
ENDMDL
MODEL 6
REMARK VINA RESULT:      -6.6      2.377      8.890
REMARK  Name = 
REMARK  22 active torsions:
REMARK  status: ('A' for Active; 'I' for Inactive)
REMARK    1  A    between atoms: C_1  and  C_2
REMARK    2  A    between atoms: C_3  and  O_62
REMARK    3  A    between atoms: C_5  and  O_49
REMARK    4  A    between atoms: C_6  and  O_48
REMARK    5  A    between atoms: C_8  and  O_11
REMARK    6  A    between atoms: O_11  and  C_12
REMARK    7  A    between atoms: C_12  and  C_13
REMARK    8  A    between atoms: C_14  and  O_47
REMARK    9  A    between atoms: C_16  and  O_46
REMARK   10  A    between atoms: C_18  and  O_45
REMARK   11  A    between atoms: C_19  and  O_22
REMARK   12  A    between atoms: O_22  and  C_23
REMARK   13  A    between atoms: C_24  and  C_36
REMARK   14  A    between atoms: C_28  and  O_35
REMARK   15  A    between atoms: C_30  and  O_34
REMARK   16  A    between atoms: C_38  and  O_43
REMARK   17  A    between atoms: C_39  and  O_42
REMARK   18  A    between atoms: O_43  and  C_44
REMARK   19  A    between atoms: O_49  and  C_50
REMARK   20  A    between atoms: C_52  and  O_61
REMARK   21  A    between atoms: C_53  and  O_60
REMARK   22  A    between atoms: C_55  and  O_59
REMARK                            x       y       z     vdW  Elec       q    Type
REMARK                         _______ _______ _______ _____ _____    ______ ____
ROOT
ATOM      1  C   UNL     1       9.453   2.849  23.480  0.00  0.00    +0.179 C 
ATOM      2  O   UNL     1       8.062   3.023  23.818  0.00  0.00    -0.331 OA
ATOM      3  C   UNL     1       7.472   4.326  23.891  0.00  0.00    +0.340 C 
ATOM      4  C   UNL     1       8.431   5.446  24.379  0.00  0.00    +0.214 C 
ATOM      5  C   UNL     1       9.746   5.344  23.610  0.00  0.00    +0.180 C 
ATOM      6  C   UNL     1      10.385   3.999  23.944  0.00  0.00    +0.177 C 
ENDROOT
BRANCH   6   7
ATOM      7  O   UNL     1      11.687   3.960  23.340  0.00  0.00    -0.386 OA
ATOM      8  H   UNL     1      12.303   3.610  24.011  0.00  0.00    +0.210 HD
ENDBRANCH   6   7
BRANCH   5   9
ATOM      9  O   UNL     1      10.642   6.415  23.936  0.00  0.00    -0.386 OA
ATOM     10  H   UNL     1      11.025   6.177  24.804  0.00  0.00    +0.210 HD
ENDBRANCH   5   9
BRANCH   4  11
ATOM     11  O   UNL     1       8.694   5.347  25.796  0.00  0.00    -0.383 OA
ATOM     12  H   UNL     1       7.840   5.435  26.265  0.00  0.00    +0.210 HD
ENDBRANCH   4  11
BRANCH   3  13
ATOM     13  O   UNL     1       6.294   4.423  24.757  0.00  0.00    -0.453 OA
BRANCH  13  14
ATOM     14  C   UNL     1       5.801   3.245  25.297  0.00  0.00    +0.214 A 
ATOM     15  C   UNL     1       6.227   2.882  26.700  0.00  0.00    +0.238 A 
ATOM     16  O   UNL     1       6.975   3.615  27.312  0.00  0.00    -0.283 OA
ATOM     17  C   UNL     1       5.541   1.736  27.357  0.00  0.00    +0.109 A 
ATOM     18  C   UNL     1       4.562   1.061  26.639  0.00  0.00    +0.147 A 
ATOM     19  C   UNL     1       3.827   0.008  27.200  0.00  0.00    +0.092 A 
ATOM     20  C   UNL     1       4.075  -0.357  28.515  0.00  0.00    +0.124 A 
ATOM     21  C   UNL     1       5.038   0.311  29.263  0.00  0.00    +0.091 A 
ATOM     22  O   UNL     1       4.207   1.427  25.373  0.00  0.00    -0.451 OA
ATOM     23  C   UNL     1       5.767   1.357  28.686  0.00  0.00    +0.135 A 
ATOM     24  C   UNL     1       4.657   2.652  24.898  0.00  0.00    +0.181 A 
BRANCH  24  25
ATOM     25  C   UNL     1       3.590   3.322  24.119  0.00  0.00    +0.025 A 
ATOM     26  C   UNL     1       2.817   4.277  24.821  0.00  0.00    +0.015 A 
ATOM     27  C   UNL     1       1.779   4.968  24.210  0.00  0.00    +0.050 A 
ATOM     28  C   UNL     1       1.565   4.797  22.850  0.00  0.00    +0.158 A 
ATOM     29  C   UNL     1       2.369   3.920  22.110  0.00  0.00    +0.162 A 
ATOM     30  C   UNL     1       3.334   3.133  22.763  0.00  0.00    +0.061 A 
BRANCH  29  31
ATOM     31  O   UNL     1       2.323   3.746  20.752  0.00  0.00    -0.491 OA
ATOM     32  C   UNL     1       1.555   2.634  20.289  0.00  0.00    +0.277 C 
ENDBRANCH  29  31
BRANCH  28  33
ATOM     33  O   UNL     1       0.561   5.516  22.267  0.00  0.00    -0.503 OA
ATOM     34  H   UNL     1       0.142   6.051  22.963  0.00  0.00    +0.292 HD
ENDBRANCH  28  33
ENDBRANCH  24  25
BRANCH  23  35
ATOM     35  O   UNL     1       6.688   2.008  29.454  0.00  0.00    -0.506 OA
ATOM     36  H   UNL     1       6.460   1.932  30.393  0.00  0.00    +0.292 HD
ENDBRANCH  23  35
BRANCH  20  37
ATOM     37  O   UNL     1       3.384  -1.361  29.122  0.00  0.00    -0.507 OA
ATOM     38  H   UNL     1       3.975  -1.854  29.715  0.00  0.00    +0.292 HD
ENDBRANCH  20  37
ENDBRANCH  13  14
ENDBRANCH   3  13
BRANCH   1  39
ATOM     39  C   UNL     1       9.678   2.499  21.984  0.00  0.00    +0.197 C 
BRANCH  39  40
ATOM     40  O   UNL     1       9.683   1.106  21.677  0.00  0.00    -0.346 OA
BRANCH  40  44
ATOM     41  C   UNL     1       8.950  -0.175  25.722  0.00  0.00    +0.041 C 
ATOM     42  C   UNL     1       9.910  -0.853  24.747  0.00  0.00    +0.149 C 
ATOM     43  O   UNL     1      10.206   0.007  23.633  0.00  0.00    -0.343 OA
ATOM     44  C   UNL     1       9.189   0.156  22.620  0.00  0.00    +0.282 C 
ATOM     45  C   UNL     1       8.809  -1.239  22.070  0.00  0.00    +0.202 C 
ATOM     46  C   UNL     1       8.324  -2.097  23.246  0.00  0.00    +0.186 C 
ATOM     47  C   UNL     1       9.425  -2.247  24.305  0.00  0.00    +0.174 C 
BRANCH  47  48
ATOM     48  O   UNL     1      10.527  -3.002  23.780  0.00  0.00    -0.387 OA
ATOM     49  H   UNL     1      10.236  -3.362  22.915  0.00  0.00    +0.210 HD
ENDBRANCH  47  48
BRANCH  45  50
ATOM     50  O   UNL     1       9.902  -1.891  21.402  0.00  0.00    -0.384 OA
ATOM     51  H   UNL     1      10.587  -2.043  22.087  0.00  0.00    +0.210 HD
ENDBRANCH  45  50
BRANCH  46  52
ATOM     52  O   UNL     1       7.829  -3.328  22.691  0.00  0.00    -0.340 OA
BRANCH  52  53
ATOM     53  C   UNL     1       7.480  -4.358  23.631  0.00  0.00    +0.282 C 
ATOM     54  O   UNL     1       7.701  -5.631  23.003  0.00  0.00    -0.346 OA
ATOM     55  C   UNL     1       6.860  -5.876  21.866  0.00  0.00    +0.197 C 
ATOM     56  C   UNL     1       5.358  -5.747  22.176  0.00  0.00    +0.171 C 
ATOM     57  C   UNL     1       5.061  -4.438  22.918  0.00  0.00    +0.178 C 
ATOM     58  C   UNL     1       6.013  -4.315  24.127  0.00  0.00    +0.201 C 
BRANCH  58  59
ATOM     59  O   UNL     1       5.726  -3.153  24.916  0.00  0.00    -0.384 OA
ATOM     60  H   UNL     1       6.570  -2.819  25.271  0.00  0.00    +0.210 HD
ENDBRANCH  58  59
BRANCH  57  61
ATOM     61  O   UNL     1       5.165  -3.315  22.034  0.00  0.00    -0.386 OA
ATOM     62  H   UNL     1       6.120  -3.101  21.961  0.00  0.00    +0.210 HD
ENDBRANCH  57  61
BRANCH  56  63
ATOM     63  O   UNL     1       4.954  -6.849  22.994  0.00  0.00    -0.387 OA
ATOM     64  H   UNL     1       4.794  -7.616  22.416  0.00  0.00    +0.210 HD
ENDBRANCH  56  63
ENDBRANCH  52  53
ENDBRANCH  46  52
ENDBRANCH  40  44
ENDBRANCH  39  40
ENDBRANCH   1  39
TORSDOF 20
ENDMDL
MODEL 7
REMARK VINA RESULT:      -6.5      1.990      5.646
REMARK  Name = 
REMARK  22 active torsions:
REMARK  status: ('A' for Active; 'I' for Inactive)
REMARK    1  A    between atoms: C_1  and  C_2
REMARK    2  A    between atoms: C_3  and  O_62
REMARK    3  A    between atoms: C_5  and  O_49
REMARK    4  A    between atoms: C_6  and  O_48
REMARK    5  A    between atoms: C_8  and  O_11
REMARK    6  A    between atoms: O_11  and  C_12
REMARK    7  A    between atoms: C_12  and  C_13
REMARK    8  A    between atoms: C_14  and  O_47
REMARK    9  A    between atoms: C_16  and  O_46
REMARK   10  A    between atoms: C_18  and  O_45
REMARK   11  A    between atoms: C_19  and  O_22
REMARK   12  A    between atoms: O_22  and  C_23
REMARK   13  A    between atoms: C_24  and  C_36
REMARK   14  A    between atoms: C_28  and  O_35
REMARK   15  A    between atoms: C_30  and  O_34
REMARK   16  A    between atoms: C_38  and  O_43
REMARK   17  A    between atoms: C_39  and  O_42
REMARK   18  A    between atoms: O_43  and  C_44
REMARK   19  A    between atoms: O_49  and  C_50
REMARK   20  A    between atoms: C_52  and  O_61
REMARK   21  A    between atoms: C_53  and  O_60
REMARK   22  A    between atoms: C_55  and  O_59
REMARK                            x       y       z     vdW  Elec       q    Type
REMARK                         _______ _______ _______ _____ _____    ______ ____
ROOT
ATOM      1  C   UNL     1       6.374  -4.679  23.683  0.00  0.00    +0.179 C 
ATOM      2  O   UNL     1       5.861  -4.119  24.909  0.00  0.00    -0.331 OA
ATOM      3  C   UNL     1       6.731  -3.790  25.999  0.00  0.00    +0.340 C 
ATOM      4  C   UNL     1       7.966  -4.718  26.145  0.00  0.00    +0.214 C 
ATOM      5  C   UNL     1       8.628  -4.885  24.779  0.00  0.00    +0.180 C 
ATOM      6  C   UNL     1       7.631  -5.571  23.851  0.00  0.00    +0.177 C 
ENDROOT
BRANCH   6   7
ATOM      7  O   UNL     1       8.298  -5.860  22.613  0.00  0.00    -0.386 OA
ATOM      8  H   UNL     1       8.669  -5.020  22.284  0.00  0.00    +0.210 HD
ENDBRANCH   6   7
BRANCH   5   9
ATOM      9  O   UNL     1       9.839  -5.648  24.860  0.00  0.00    -0.386 OA
ATOM     10  H   UNL     1      10.169  -5.709  23.941  0.00  0.00    +0.210 HD
ENDBRANCH   5   9
BRANCH   4  11
ATOM     11  O   UNL     1       7.602  -6.017  26.663  0.00  0.00    -0.383 OA
ATOM     12  H   UNL     1       6.667  -5.974  26.947  0.00  0.00    +0.210 HD
ENDBRANCH   4  11
BRANCH   3  13
ATOM     13  O   UNL     1       6.095  -3.783  27.318  0.00  0.00    -0.453 OA
BRANCH  13  14
ATOM     14  C   UNL     1       5.297  -2.694  27.635  0.00  0.00    +0.214 A 
ATOM     15  C   UNL     1       5.897  -1.316  27.485  0.00  0.00    +0.238 A 
ATOM     16  O   UNL     1       7.040  -1.194  27.097  0.00  0.00    -0.283 OA
ATOM     17  C   UNL     1       4.987  -0.146  27.621  0.00  0.00    +0.109 A 
ATOM     18  C   UNL     1       3.645  -0.389  27.891  0.00  0.00    +0.147 A 
ATOM     19  C   UNL     1       2.709   0.649  27.978  0.00  0.00    +0.092 A 
ATOM     20  C   UNL     1       3.133   1.955  27.774  0.00  0.00    +0.124 A 
ATOM     21  C   UNL     1       4.466   2.227  27.487  0.00  0.00    +0.091 A 
ATOM     22  O   UNL     1       3.147  -1.652  28.014  0.00  0.00    -0.451 OA
ATOM     23  C   UNL     1       5.390   1.178  27.408  0.00  0.00    +0.135 A 
ATOM     24  C   UNL     1       3.949  -2.713  27.611  0.00  0.00    +0.181 A 
BRANCH  24  25
ATOM     25  C   UNL     1       3.134  -3.734  26.912  0.00  0.00    +0.025 A 
ATOM     26  C   UNL     1       2.698  -3.392  25.610  0.00  0.00    +0.015 A 
ATOM     27  C   UNL     1       1.919  -4.256  24.850  0.00  0.00    +0.050 A 
ATOM     28  C   UNL     1       1.653  -5.527  25.338  0.00  0.00    +0.158 A 
ATOM     29  C   UNL     1       2.142  -5.923  26.590  0.00  0.00    +0.162 A 
ATOM     30  C   UNL     1       2.823  -5.000  27.401  0.00  0.00    +0.061 A 
BRANCH  29  31
ATOM     31  O   UNL     1       2.035  -7.178  27.129  0.00  0.00    -0.491 OA
ATOM     32  C   UNL     1       1.985  -7.244  28.555  0.00  0.00    +0.277 C 
ENDBRANCH  29  31
BRANCH  28  33
ATOM     33  O   UNL     1       0.915  -6.368  24.556  0.00  0.00    -0.503 OA
ATOM     34  H   UNL     1       1.089  -6.134  23.628  0.00  0.00    +0.292 HD
ENDBRANCH  28  33
ENDBRANCH  24  25
BRANCH  23  35
ATOM     35  O   UNL     1       6.685   1.476  27.102  0.00  0.00    -0.506 OA
ATOM     36  H   UNL     1       7.228   0.672  27.111  0.00  0.00    +0.292 HD
ENDBRANCH  23  35
BRANCH  20  37
ATOM     37  O   UNL     1       2.269   3.005  27.829  0.00  0.00    -0.507 OA
ATOM     38  H   UNL     1       2.469   3.554  28.606  0.00  0.00    +0.292 HD
ENDBRANCH  20  37
ENDBRANCH  13  14
ENDBRANCH   3  13
BRANCH   1  39
ATOM     39  C   UNL     1       6.570  -3.619  22.565  0.00  0.00    +0.197 C 
BRANCH  39  40
ATOM     40  O   UNL     1       6.413  -2.262  22.975  0.00  0.00    -0.346 OA
BRANCH  40  44
ATOM     41  C   UNL     1      10.651  -1.503  22.926  0.00  0.00    +0.041 C 
ATOM     42  C   UNL     1       9.710  -1.150  24.075  0.00  0.00    +0.149 C 
ATOM     43  O   UNL     1       8.460  -1.848  23.950  0.00  0.00    -0.343 OA
ATOM     44  C   UNL     1       7.526  -1.369  22.960  0.00  0.00    +0.282 C 
ATOM     45  C   UNL     1       7.224   0.125  23.225  0.00  0.00    +0.202 C 
ATOM     46  C   UNL     1       8.551   0.893  23.180  0.00  0.00    +0.186 C 
ATOM     47  C   UNL     1       9.523   0.370  24.247  0.00  0.00    +0.174 C 
BRANCH  47  48
ATOM     48  O   UNL     1       9.024   0.654  25.562  0.00  0.00    -0.387 OA
ATOM     49  H   UNL     1       9.054   1.629  25.671  0.00  0.00    +0.210 HD
ENDBRANCH  47  48
BRANCH  45  50
ATOM     50  O   UNL     1       6.570   0.345  24.486  0.00  0.00    -0.384 OA
ATOM     51  H   UNL     1       5.669  -0.030  24.395  0.00  0.00    +0.210 HD
ENDBRANCH  45  50
BRANCH  46  52
ATOM     52  O   UNL     1       8.230   2.292  23.270  0.00  0.00    -0.340 OA
BRANCH  52  53
ATOM     53  C   UNL     1       8.790   3.006  24.384  0.00  0.00    +0.282 C 
ATOM     54  O   UNL     1       7.739   3.254  25.331  0.00  0.00    -0.346 OA
ATOM     55  C   UNL     1       6.698   4.109  24.838  0.00  0.00    +0.197 C 
ATOM     56  C   UNL     1       7.211   5.466  24.323  0.00  0.00    +0.171 C 
ATOM     57  C   UNL     1       8.390   5.277  23.360  0.00  0.00    +0.178 C 
ATOM     58  C   UNL     1       9.443   4.365  24.023  0.00  0.00    +0.201 C 
BRANCH  58  59
ATOM     59  O   UNL     1      10.613   4.221  23.208  0.00  0.00    -0.384 OA
ATOM     60  H   UNL     1      10.322   3.957  22.315  0.00  0.00    +0.210 HD
ENDBRANCH  58  59
BRANCH  57  61
ATOM     61  O   UNL     1       7.943   4.758  22.102  0.00  0.00    -0.386 OA
ATOM     62  H   UNL     1       7.945   5.507  21.469  0.00  0.00    +0.210 HD
ENDBRANCH  57  61
BRANCH  56  63
ATOM     63  O   UNL     1       7.640   6.256  25.436  0.00  0.00    -0.387 OA
ATOM     64  H   UNL     1       7.282   5.858  26.250  0.00  0.00    +0.210 HD
ENDBRANCH  56  63
ENDBRANCH  52  53
ENDBRANCH  46  52
ENDBRANCH  40  44
ENDBRANCH  39  40
ENDBRANCH   1  39
TORSDOF 20
ENDMDL
MODEL 8
REMARK VINA RESULT:      -6.5      2.031      8.482
REMARK  Name = 
REMARK  22 active torsions:
REMARK  status: ('A' for Active; 'I' for Inactive)
REMARK    1  A    between atoms: C_1  and  C_2
REMARK    2  A    between atoms: C_3  and  O_62
REMARK    3  A    between atoms: C_5  and  O_49
REMARK    4  A    between atoms: C_6  and  O_48
REMARK    5  A    between atoms: C_8  and  O_11
REMARK    6  A    between atoms: O_11  and  C_12
REMARK    7  A    between atoms: C_12  and  C_13
REMARK    8  A    between atoms: C_14  and  O_47
REMARK    9  A    between atoms: C_16  and  O_46
REMARK   10  A    between atoms: C_18  and  O_45
REMARK   11  A    between atoms: C_19  and  O_22
REMARK   12  A    between atoms: O_22  and  C_23
REMARK   13  A    between atoms: C_24  and  C_36
REMARK   14  A    between atoms: C_28  and  O_35
REMARK   15  A    between atoms: C_30  and  O_34
REMARK   16  A    between atoms: C_38  and  O_43
REMARK   17  A    between atoms: C_39  and  O_42
REMARK   18  A    between atoms: O_43  and  C_44
REMARK   19  A    between atoms: O_49  and  C_50
REMARK   20  A    between atoms: C_52  and  O_61
REMARK   21  A    between atoms: C_53  and  O_60
REMARK   22  A    between atoms: C_55  and  O_59
REMARK                            x       y       z     vdW  Elec       q    Type
REMARK                         _______ _______ _______ _____ _____    ______ ____
ROOT
ATOM      1  C   UNL     1       8.564  -4.093  25.397  0.00  0.00    +0.179 C 
ATOM      2  O   UNL     1       8.297  -2.781  25.932  0.00  0.00    -0.331 OA
ATOM      3  C   UNL     1       7.227  -1.974  25.426  0.00  0.00    +0.340 C 
ATOM      4  C   UNL     1       6.938  -2.157  23.911  0.00  0.00    +0.214 C 
ATOM      5  C   UNL     1       6.865  -3.649  23.596  0.00  0.00    +0.180 C 
ATOM      6  C   UNL     1       8.230  -4.262  23.892  0.00  0.00    +0.177 C 
ENDROOT
BRANCH   6   7
ATOM      7  O   UNL     1       8.208  -5.631  23.460  0.00  0.00    -0.386 OA
ATOM      8  H   UNL     1       7.323  -5.984  23.669  0.00  0.00    +0.210 HD
ENDBRANCH   6   7
BRANCH   5   9
ATOM      9  O   UNL     1       6.495  -3.891  22.232  0.00  0.00    -0.386 OA
ATOM     10  H   UNL     1       7.072  -3.309  21.700  0.00  0.00    +0.210 HD
ENDBRANCH   5   9
BRANCH   4  11
ATOM     11  O   UNL     1       7.957  -1.543  23.092  0.00  0.00    -0.383 OA
ATOM     12  H   UNL     1       8.828  -1.801  23.456  0.00  0.00    +0.210 HD
ENDBRANCH   4  11
BRANCH   3  13
ATOM     13  O   UNL     1       7.399  -0.531  25.613  0.00  0.00    -0.453 OA
BRANCH  13  14
ATOM     14  C   UNL     1       6.254   0.251  25.621  0.00  0.00    +0.214 A 
ATOM     15  C   UNL     1       5.307   0.100  26.788  0.00  0.00    +0.238 A 
ATOM     16  O   UNL     1       5.563  -0.686  27.675  0.00  0.00    -0.283 OA
ATOM     17  C   UNL     1       4.192   1.079  26.906  0.00  0.00    +0.109 A 
ATOM     18  C   UNL     1       4.081   2.065  25.931  0.00  0.00    +0.147 A 
ATOM     19  C   UNL     1       3.097   3.060  25.996  0.00  0.00    +0.092 A 
ATOM     20  C   UNL     1       2.221   3.070  27.072  0.00  0.00    +0.124 A 
ATOM     21  C   UNL     1       2.319   2.107  28.069  0.00  0.00    +0.091 A 
ATOM     22  O   UNL     1       4.963   2.165  24.896  0.00  0.00    -0.451 OA
ATOM     23  C   UNL     1       3.304   1.116  27.988  0.00  0.00    +0.135 A 
ATOM     24  C   UNL     1       6.137   1.424  24.965  0.00  0.00    +0.181 A 
BRANCH  24  25
ATOM     25  C   UNL     1       7.277   2.223  24.460  0.00  0.00    +0.025 A 
ATOM     26  C   UNL     1       7.633   3.352  25.235  0.00  0.00    +0.015 A 
ATOM     27  C   UNL     1       8.677   4.191  24.867  0.00  0.00    +0.050 A 
ATOM     28  C   UNL     1       9.458   3.852  23.771  0.00  0.00    +0.158 A 
ATOM     29  C   UNL     1       9.180   2.695  23.032  0.00  0.00    +0.162 A 
ATOM     30  C   UNL     1       8.047   1.922  23.339  0.00  0.00    +0.061 A 
BRANCH  29  31
ATOM     31  O   UNL     1       9.938   2.203  22.002  0.00  0.00    -0.491 OA
ATOM     32  C   UNL     1       9.874   0.791  21.797  0.00  0.00    +0.277 C 
ENDBRANCH  29  31
BRANCH  28  33
ATOM     33  O   UNL     1      10.500   4.676  23.452  0.00  0.00    -0.503 OA
ATOM     34  H   UNL     1      10.538   5.375  24.127  0.00  0.00    +0.292 HD
ENDBRANCH  28  33
ENDBRANCH  24  25
BRANCH  23  35
ATOM     35  O   UNL     1       3.388   0.199  28.994  0.00  0.00    -0.506 OA
ATOM     36  H   UNL     1       4.305  -0.100  29.104  0.00  0.00    +0.292 HD
ENDBRANCH  23  35
BRANCH  20  37
ATOM     37  O   UNL     1       1.255   4.020  27.200  0.00  0.00    -0.507 OA
ATOM     38  H   UNL     1       1.142   4.249  28.137  0.00  0.00    +0.292 HD
ENDBRANCH  20  37
ENDBRANCH  13  14
ENDBRANCH   3  13
BRANCH   1  39
ATOM     39  C   UNL     1       7.950  -5.235  26.251  0.00  0.00    +0.197 C 
BRANCH  39  40
ATOM     40  O   UNL     1       7.460  -4.844  27.532  0.00  0.00    -0.346 OA
BRANCH  40  44
ATOM     41  C   UNL     1       4.075  -3.796  29.977  0.00  0.00    +0.041 C 
ATOM     42  C   UNL     1       4.575  -5.218  29.735  0.00  0.00    +0.149 C 
ATOM     43  O   UNL     1       5.907  -5.211  29.195  0.00  0.00    -0.343 OA
ATOM     44  C   UNL     1       6.059  -4.857  27.804  0.00  0.00    +0.282 C 
ATOM     45  C   UNL     1       5.190  -5.800  26.940  0.00  0.00    +0.202 C 
ATOM     46  C   UNL     1       3.735  -5.668  27.410  0.00  0.00    +0.186 C 
ATOM     47  C   UNL     1       3.599  -6.057  28.888  0.00  0.00    +0.174 C 
BRANCH  47  48
ATOM     48  O   UNL     1       3.875  -7.454  29.067  0.00  0.00    -0.387 OA
ATOM     49  H   UNL     1       3.684  -7.662  30.007  0.00  0.00    +0.210 HD
ENDBRANCH  47  48
BRANCH  45  50
ATOM     50  O   UNL     1       5.610  -7.173  27.020  0.00  0.00    -0.384 OA
ATOM     51  H   UNL     1       4.905  -7.699  26.587  0.00  0.00    +0.210 HD
ENDBRANCH  45  50
BRANCH  46  52
ATOM     52  O   UNL     1       2.928  -6.429  26.494  0.00  0.00    -0.340 OA
BRANCH  52  53
ATOM     53  C   UNL     1       2.851  -5.935  25.147  0.00  0.00    +0.282 C 
ATOM     54  O   UNL     1       1.509  -5.481  24.912  0.00  0.00    -0.346 OA
ATOM     55  C   UNL     1       0.521  -6.520  24.974  0.00  0.00    +0.197 C 
ATOM     56  C   UNL     1       0.806  -7.695  24.020  0.00  0.00    +0.171 C 
ATOM     57  C   UNL     1       2.253  -8.181  24.165  0.00  0.00    +0.178 C 
ATOM     58  C   UNL     1       3.207  -6.973  24.052  0.00  0.00    +0.201 C 
BRANCH  58  59
ATOM     59  O   UNL     1       4.583  -7.374  24.091  0.00  0.00    -0.384 OA
ATOM     60  H   UNL     1       5.105  -6.610  24.397  0.00  0.00    +0.210 HD
ENDBRANCH  58  59
BRANCH  57  61
ATOM     61  O   UNL     1       2.431  -8.894  25.396  0.00  0.00    -0.386 OA
ATOM     62  H   UNL     1       1.878  -8.441  26.067  0.00  0.00    +0.210 HD
ENDBRANCH  57  61
BRANCH  56  63
ATOM     63  O   UNL     1       0.592  -7.264  22.673  0.00  0.00    -0.387 OA
ATOM     64  H   UNL     1      -0.091  -7.833  22.275  0.00  0.00    +0.210 HD
ENDBRANCH  56  63
ENDBRANCH  52  53
ENDBRANCH  46  52
ENDBRANCH  40  44
ENDBRANCH  39  40
ENDBRANCH   1  39
TORSDOF 20
ENDMDL
MODEL 9
REMARK VINA RESULT:      -6.5      1.891      7.044
REMARK  Name = 
REMARK  22 active torsions:
REMARK  status: ('A' for Active; 'I' for Inactive)
REMARK    1  A    between atoms: C_1  and  C_2
REMARK    2  A    between atoms: C_3  and  O_62
REMARK    3  A    between atoms: C_5  and  O_49
REMARK    4  A    between atoms: C_6  and  O_48
REMARK    5  A    between atoms: C_8  and  O_11
REMARK    6  A    between atoms: O_11  and  C_12
REMARK    7  A    between atoms: C_12  and  C_13
REMARK    8  A    between atoms: C_14  and  O_47
REMARK    9  A    between atoms: C_16  and  O_46
REMARK   10  A    between atoms: C_18  and  O_45
REMARK   11  A    between atoms: C_19  and  O_22
REMARK   12  A    between atoms: O_22  and  C_23
REMARK   13  A    between atoms: C_24  and  C_36
REMARK   14  A    between atoms: C_28  and  O_35
REMARK   15  A    between atoms: C_30  and  O_34
REMARK   16  A    between atoms: C_38  and  O_43
REMARK   17  A    between atoms: C_39  and  O_42
REMARK   18  A    between atoms: O_43  and  C_44
REMARK   19  A    between atoms: O_49  and  C_50
REMARK   20  A    between atoms: C_52  and  O_61
REMARK   21  A    between atoms: C_53  and  O_60
REMARK   22  A    between atoms: C_55  and  O_59
REMARK                            x       y       z     vdW  Elec       q    Type
REMARK                         _______ _______ _______ _____ _____    ______ ____
ROOT
ATOM      1  C   UNL     1       8.043   0.985  22.194  0.00  0.00    +0.179 C 
ATOM      2  O   UNL     1       7.329   0.272  23.224  0.00  0.00    -0.331 OA
ATOM      3  C   UNL     1       7.752   0.320  24.592  0.00  0.00    +0.340 C 
ATOM      4  C   UNL     1       9.287   0.438  24.792  0.00  0.00    +0.214 C 
ATOM      5  C   UNL     1       9.825   1.539  23.881  0.00  0.00    +0.180 C 
ATOM      6  C   UNL     1       9.569   1.123  22.435  0.00  0.00    +0.177 C 
ENDROOT
BRANCH   6   7
ATOM      7  O   UNL     1      10.201   2.083  21.575  0.00  0.00    -0.386 OA
ATOM      8  H   UNL     1      11.084   1.732  21.354  0.00  0.00    +0.210 HD
ENDBRANCH   6   7
BRANCH   5   9
ATOM      9  O   UNL     1      11.223   1.773  24.091  0.00  0.00    -0.386 OA
ATOM     10  H   UNL     1      11.547   0.990  24.578  0.00  0.00    +0.210 HD
ENDBRANCH   5   9
BRANCH   4  11
ATOM     11  O   UNL     1       9.963  -0.804  24.494  0.00  0.00    -0.383 OA
ATOM     12  H   UNL     1      10.723  -0.885  25.105  0.00  0.00    +0.210 HD
ENDBRANCH   4  11
BRANCH   3  13
ATOM     13  O   UNL     1       7.344  -0.827  25.406  0.00  0.00    -0.453 OA
BRANCH  13  14
ATOM     14  C   UNL     1       6.412  -1.696  24.860  0.00  0.00    +0.214 A 
ATOM     15  C   UNL     1       6.928  -2.899  24.106  0.00  0.00    +0.238 A 
ATOM     16  O   UNL     1       8.123  -3.076  23.997  0.00  0.00    -0.283 OA
ATOM     17  C   UNL     1       5.942  -3.938  23.701  0.00  0.00    +0.109 A 
ATOM     18  C   UNL     1       4.606  -3.736  24.029  0.00  0.00    +0.147 A 
ATOM     19  C   UNL     1       3.621  -4.688  23.738  0.00  0.00    +0.092 A 
ATOM     20  C   UNL     1       3.995  -5.873  23.120  0.00  0.00    +0.124 A 
ATOM     21  C   UNL     1       5.325  -6.110  22.795  0.00  0.00    +0.091 A 
ATOM     22  O   UNL     1       4.186  -2.634  24.715  0.00  0.00    -0.451 OA
ATOM     23  C   UNL     1       6.297  -5.146  23.088  0.00  0.00    +0.135 A 
ATOM     24  C   UNL     1       5.149  -1.832  25.315  0.00  0.00    +0.181 A 
BRANCH  24  25
ATOM     25  C   UNL     1       4.681  -1.378  26.645  0.00  0.00    +0.025 A 
ATOM     26  C   UNL     1       4.200  -0.049  26.712  0.00  0.00    +0.015 A 
ATOM     27  C   UNL     1       3.742   0.503  27.901  0.00  0.00    +0.050 A 
ATOM     28  C   UNL     1       3.652  -0.303  29.026  0.00  0.00    +0.158 A 
ATOM     29  C   UNL     1       4.044  -1.647  28.970  0.00  0.00    +0.162 A 
ATOM     30  C   UNL     1       4.622  -2.160  27.796  0.00  0.00    +0.061 A 
BRANCH  29  31
ATOM     31  O   UNL     1       3.905  -2.564  29.979  0.00  0.00    -0.491 OA
ATOM     32  C   UNL     1       2.840  -3.503  29.829  0.00  0.00    +0.277 C 
ENDBRANCH  29  31
BRANCH  28  33
ATOM     33  O   UNL     1       3.165   0.255  30.174  0.00  0.00    -0.503 OA
ATOM     34  H   UNL     1       2.848  -0.470  30.740  0.00  0.00    +0.292 HD
ENDBRANCH  28  33
ENDBRANCH  24  25
BRANCH  23  35
ATOM     35  O   UNL     1       7.597  -5.419  22.778  0.00  0.00    -0.506 OA
ATOM     36  H   UNL     1       7.884  -6.238  23.211  0.00  0.00    +0.292 HD
ENDBRANCH  23  35
BRANCH  20  37
ATOM     37  O   UNL     1       3.087  -6.844  22.826  0.00  0.00    -0.507 OA
ATOM     38  H   UNL     1       2.561  -6.578  22.053  0.00  0.00    +0.292 HD
ENDBRANCH  20  37
ENDBRANCH  13  14
ENDBRANCH   3  13
BRANCH   1  39
ATOM     39  C   UNL     1       7.395   2.350  21.836  0.00  0.00    +0.197 C 
BRANCH  39  40
ATOM     40  O   UNL     1       8.000   3.491  22.441  0.00  0.00    -0.346 OA
BRANCH  40  44
ATOM     41  C   UNL     1       5.692   7.108  22.803  0.00  0.00    +0.041 C 
ATOM     42  C   UNL     1       7.021   6.842  23.506  0.00  0.00    +0.149 C 
ATOM     43  O   UNL     1       7.707   5.729  22.907  0.00  0.00    -0.343 OA
ATOM     44  C   UNL     1       7.215   4.405  23.205  0.00  0.00    +0.282 C 
ATOM     45  C   UNL     1       7.203   4.200  24.739  0.00  0.00    +0.202 C 
ATOM     46  C   UNL     1       6.321   5.293  25.357  0.00  0.00    +0.186 C 
ATOM     47  C   UNL     1       6.869   6.689  25.031  0.00  0.00    +0.174 C 
BRANCH  47  48
ATOM     48  O   UNL     1       8.138   6.892  25.670  0.00  0.00    -0.387 OA
ATOM     49  H   UNL     1       8.579   6.016  25.707  0.00  0.00    +0.210 HD
ENDBRANCH  47  48
BRANCH  45  50
ATOM     50  O   UNL     1       8.519   4.245  25.316  0.00  0.00    -0.384 OA
ATOM     51  H   UNL     1       8.398   4.104  26.279  0.00  0.00    +0.210 HD
ENDBRANCH  45  50
BRANCH  46  52
ATOM     52  O   UNL     1       6.197   4.989  26.757  0.00  0.00    -0.340 OA
BRANCH  52  53
ATOM     53  C   UNL     1       5.543   3.753  27.088  0.00  0.00    +0.282 C 
ATOM     54  O   UNL     1       4.272   4.063  27.682  0.00  0.00    -0.346 OA
ATOM     55  C   UNL     1       4.366   4.768  28.927  0.00  0.00    +0.197 C 
ATOM     56  C   UNL     1       5.225   4.043  29.980  0.00  0.00    +0.171 C 
ATOM     57  C   UNL     1       6.573   3.615  29.387  0.00  0.00    +0.178 C 
ATOM     58  C   UNL     1       6.325   2.846  28.072  0.00  0.00    +0.201 C 
BRANCH  58  59
ATOM     59  O   UNL     1       7.545   2.340  27.512  0.00  0.00    -0.384 OA
ATOM     60  H   UNL     1       8.245   2.447  28.182  0.00  0.00    +0.210 HD
ENDBRANCH  58  59
BRANCH  57  61
ATOM     61  O   UNL     1       7.430   4.747  29.196  0.00  0.00    -0.386 OA
ATOM     62  H   UNL     1       8.333   4.464  29.453  0.00  0.00    +0.210 HD
ENDBRANCH  57  61
BRANCH  56  63
ATOM     63  O   UNL     1       4.524   2.881  30.434  0.00  0.00    -0.387 OA
ATOM     64  H   UNL     1       5.067   2.098  30.229  0.00  0.00    +0.210 HD
ENDBRANCH  56  63
ENDBRANCH  52  53
ENDBRANCH  46  52
ENDBRANCH  40  44
ENDBRANCH  39  40
ENDBRANCH   1  39
TORSDOF 20
ENDMDL
