MODEL 1
REMARK VINA RESULT:      -7.6      0.000      0.000
REMARK  Name = 
REMARK  18 active torsions:
REMARK  status: ('A' for Active; 'I' for Inactive)
REMARK    1  A    between atoms: C_1  and  C_2
REMARK    2  A    between atoms: C_3  and  O_44
REMARK    3  A    between atoms: C_4  and  O_43
REMARK    4  A    between atoms: C_5  and  O_42
REMARK    5  A    between atoms: C_6  and  O_8
REMARK    6  A    between atoms: O_8  and  C_9
REMARK    7  A    between atoms: C_10  and  O_41
REMARK    8  A    between atoms: C_11  and  O_40
REMARK    9  A    between atoms: C_12  and  C_38
REMARK   10  A    between atoms: C_14  and  O_15
REMARK   11  A    between atoms: O_15  and  C_16
REMARK   12  A    between atoms: C_17  and  O_36
REMARK   13  A    between atoms: C_19  and  C_22
REMARK   14  A    between atoms: C_23  and  O_35
REMARK   15  A    between atoms: C_27  and  O_34
REMARK   16  A    between atoms: C_29  and  O_33
REMARK   17  A    between atoms: O_36  and  C_37
REMARK   18  A    between atoms: C_38  and  O_39
REMARK                            x       y       z     vdW  Elec       q    Type
REMARK                         _______ _______ _______ _____ _____    ______ ____
ROOT
ATOM      1  C   UNL     1       6.852   3.998  22.880  0.00  0.00    +0.221 C 
ATOM      2  C   UNL     1       7.420   2.917  23.856  0.00  0.00    +0.340 C 
ATOM      3  O   UNL     1       8.349   3.480  24.811  0.00  0.00    -0.331 OA
ATOM      4  C   UNL     1       9.401   4.307  24.297  0.00  0.00    +0.179 C 
ATOM      5  C   UNL     1       8.818   5.463  23.475  0.00  0.00    +0.177 C 
ATOM      6  C   UNL     1       7.972   4.899  22.343  0.00  0.00    +0.180 C 
ENDROOT
BRANCH   6   7
ATOM      7  O   UNL     1       7.492   5.947  21.489  0.00  0.00    -0.386 OA
ATOM      8  H   UNL     1       6.672   5.623  21.062  0.00  0.00    +0.210 HD
ENDBRANCH   6   7
BRANCH   5   9
ATOM      9  O   UNL     1       9.823   6.333  22.943  0.00  0.00    -0.386 OA
ATOM     10  H   UNL     1       9.771   7.195  23.399  0.00  0.00    +0.210 HD
ENDBRANCH   5   9
BRANCH   4  11
ATOM     11  C   UNL     1      10.499   3.518  23.547  0.00  0.00    +0.190 C 
BRANCH  11  12
ATOM     12  O   UNL     1      11.614   4.331  23.196  0.00  0.00    -0.392 OA
ATOM     13  H   UNL     1      11.305   5.046  22.615  0.00  0.00    +0.210 HD
ENDBRANCH  11  12
ENDBRANCH   4  11
BRANCH   2  14
ATOM     14  O   UNL     1       8.019   1.808  23.173  0.00  0.00    -0.457 OA
BRANCH  14  15
ATOM     15  C   UNL     1       7.553   0.545  23.461  0.00  0.00    +0.165 A 
ATOM     16  C   UNL     1       6.447   0.303  24.279  0.00  0.00    +0.050 A 
ATOM     17  C   UNL     1       5.879  -0.963  24.363  0.00  0.00    +0.015 A 
ATOM     18  C   UNL     1       6.457  -2.055  23.719  0.00  0.00    +0.025 A 
ATOM     19  C   UNL     1       7.643  -1.837  22.996  0.00  0.00    +0.061 A 
ATOM     20  C   UNL     1       8.176  -0.548  22.829  0.00  0.00    +0.162 A 
BRANCH  18  21
ATOM     21  C   UNL     1       5.809  -3.387  23.860  0.00  0.00    +0.181 A 
ATOM     22  O   UNL     1       5.824  -3.844  25.174  0.00  0.00    -0.451 OA
ATOM     23  C   UNL     1       5.245  -5.046  25.465  0.00  0.00    +0.147 A 
ATOM     24  C   UNL     1       4.643  -5.845  24.501  0.00  0.00    +0.109 A 
ATOM     25  C   UNL     1       4.092  -7.079  24.864  0.00  0.00    +0.135 A 
ATOM     26  C   UNL     1       4.148  -7.511  26.186  0.00  0.00    +0.091 A 
ATOM     27  C   UNL     1       4.744  -6.695  27.142  0.00  0.00    +0.124 A 
ATOM     28  C   UNL     1       4.574  -5.343  23.124  0.00  0.00    +0.238 A 
ATOM     29  O   UNL     1       3.981  -5.988  22.264  0.00  0.00    -0.283 OA
ATOM     30  C   UNL     1       5.290  -5.464  26.794  0.00  0.00    +0.092 A 
ATOM     31  C   UNL     1       5.216  -4.035  22.842  0.00  0.00    +0.208 A 
BRANCH  31  32
ATOM     32  O   UNL     1       5.156  -3.564  21.553  0.00  0.00    -0.501 OA
ATOM     33  H   UNL     1       4.388  -3.987  21.138  0.00  0.00    +0.292 HD
ENDBRANCH  31  32
BRANCH  27  34
ATOM     34  O   UNL     1       4.814  -7.073  28.450  0.00  0.00    -0.507 OA
ATOM     35  H   UNL     1       4.506  -7.988  28.528  0.00  0.00    +0.292 HD
ENDBRANCH  27  34
BRANCH  25  36
ATOM     36  O   UNL     1       3.472  -7.908  23.968  0.00  0.00    -0.506 OA
ATOM     37  H   UNL     1       2.513  -7.682  23.951  0.00  0.00    +0.292 HD
ENDBRANCH  25  36
ENDBRANCH  18  21
BRANCH  20  38
ATOM     38  O   UNL     1       9.297  -0.274  22.085  0.00  0.00    -0.491 OA
ATOM     39  C   UNL     1      10.396  -1.174  22.195  0.00  0.00    +0.277 C 
ENDBRANCH  20  38
ENDBRANCH  14  15
ENDBRANCH   2  14
BRANCH   1  40
ATOM     40  O   UNL     1       5.762   4.680  23.547  0.00  0.00    -0.337 OA
BRANCH  40  44
ATOM     41  C   UNL     1       2.681   6.881  21.783  0.00  0.00    +0.041 C 
ATOM     42  C   UNL     1       2.371   5.795  22.825  0.00  0.00    +0.149 C 
ATOM     43  O   UNL     1       3.542   5.440  23.594  0.00  0.00    -0.343 OA
ATOM     44  C   UNL     1       4.545   4.779  22.802  0.00  0.00    +0.282 C 
ATOM     45  C   UNL     1       3.968   3.421  22.342  0.00  0.00    +0.201 C 
ATOM     46  C   UNL     1       2.742   3.687  21.469  0.00  0.00    +0.179 C 
ATOM     47  C   UNL     1       1.707   4.548  22.210  0.00  0.00    +0.174 C 
BRANCH  47  48
ATOM     48  O   UNL     1       0.640   4.939  21.341  0.00  0.00    -0.387 OA
ATOM     49  H   UNL     1       0.129   5.640  21.788  0.00  0.00    +0.210 HD
ENDBRANCH  47  48
BRANCH  46  50
ATOM     50  O   UNL     1       2.142   2.452  21.058  0.00  0.00    -0.386 OA
ATOM     51  H   UNL     1       2.446   1.778  21.700  0.00  0.00    +0.210 HD
ENDBRANCH  46  50
BRANCH  45  52
ATOM     52  O   UNL     1       3.586   2.598  23.464  0.00  0.00    -0.384 OA
ATOM     53  H   UNL     1       4.340   1.998  23.643  0.00  0.00    +0.210 HD
ENDBRANCH  45  52
ENDBRANCH  40  44
ENDBRANCH   1  40
TORSDOF 16
ENDMDL
MODEL 2
REMARK VINA RESULT:      -7.4      1.185      2.130
REMARK  Name = 
REMARK  18 active torsions:
REMARK  status: ('A' for Active; 'I' for Inactive)
REMARK    1  A    between atoms: C_1  and  C_2
REMARK    2  A    between atoms: C_3  and  O_44
REMARK    3  A    between atoms: C_4  and  O_43
REMARK    4  A    between atoms: C_5  and  O_42
REMARK    5  A    between atoms: C_6  and  O_8
REMARK    6  A    between atoms: O_8  and  C_9
REMARK    7  A    between atoms: C_10  and  O_41
REMARK    8  A    between atoms: C_11  and  O_40
REMARK    9  A    between atoms: C_12  and  C_38
REMARK   10  A    between atoms: C_14  and  O_15
REMARK   11  A    between atoms: O_15  and  C_16
REMARK   12  A    between atoms: C_17  and  O_36
REMARK   13  A    between atoms: C_19  and  C_22
REMARK   14  A    between atoms: C_23  and  O_35
REMARK   15  A    between atoms: C_27  and  O_34
REMARK   16  A    between atoms: C_29  and  O_33
REMARK   17  A    between atoms: O_36  and  C_37
REMARK   18  A    between atoms: C_38  and  O_39
REMARK                            x       y       z     vdW  Elec       q    Type
REMARK                         _______ _______ _______ _____ _____    ______ ____
ROOT
ATOM      1  C   UNL     1       6.701   3.695  22.890  0.00  0.00    +0.221 C 
ATOM      2  C   UNL     1       7.154   2.583  23.892  0.00  0.00    +0.340 C 
ATOM      3  O   UNL     1       8.101   3.079  24.866  0.00  0.00    -0.331 OA
ATOM      4  C   UNL     1       9.229   3.813  24.371  0.00  0.00    +0.179 C 
ATOM      5  C   UNL     1       8.765   5.002  23.523  0.00  0.00    +0.177 C 
ATOM      6  C   UNL     1       7.904   4.495  22.375  0.00  0.00    +0.180 C 
ENDROOT
BRANCH   6   7
ATOM      7  O   UNL     1       7.533   5.569  21.499  0.00  0.00    -0.386 OA
ATOM      8  H   UNL     1       8.192   6.283  21.618  0.00  0.00    +0.210 HD
ENDBRANCH   6   7
BRANCH   5   9
ATOM      9  O   UNL     1       9.850   5.781  23.010  0.00  0.00    -0.386 OA
ATOM     10  H   UNL     1      10.530   5.876  23.705  0.00  0.00    +0.210 HD
ENDBRANCH   5   9
BRANCH   4  11
ATOM     11  C   UNL     1      10.278   2.928  23.659  0.00  0.00    +0.190 C 
BRANCH  11  12
ATOM     12  O   UNL     1      10.446   1.663  24.289  0.00  0.00    -0.392 OA
ATOM     13  H   UNL     1       9.944   1.662  25.121  0.00  0.00    +0.210 HD
ENDBRANCH  11  12
ENDBRANCH   4  11
BRANCH   2  14
ATOM     14  O   UNL     1       7.678   1.421  23.236  0.00  0.00    -0.457 OA
BRANCH  14  15
ATOM     15  C   UNL     1       7.224   0.187  23.648  0.00  0.00    +0.165 A 
ATOM     16  C   UNL     1       6.220   0.019  24.604  0.00  0.00    +0.050 A 
ATOM     17  C   UNL     1       5.641  -1.224  24.827  0.00  0.00    +0.015 A 
ATOM     18  C   UNL     1       6.114  -2.364  24.180  0.00  0.00    +0.025 A 
ATOM     19  C   UNL     1       7.207  -2.217  23.309  0.00  0.00    +0.061 A 
ATOM     20  C   UNL     1       7.743  -0.953  23.008  0.00  0.00    +0.162 A 
BRANCH  18  21
ATOM     21  C   UNL     1       5.460  -3.669  24.472  0.00  0.00    +0.181 A 
ATOM     22  O   UNL     1       4.348  -3.893  23.666  0.00  0.00    -0.451 OA
ATOM     23  C   UNL     1       3.654  -5.062  23.803  0.00  0.00    +0.147 A 
ATOM     24  C   UNL     1       4.006  -6.043  24.722  0.00  0.00    +0.109 A 
ATOM     25  C   UNL     1       3.235  -7.205  24.828  0.00  0.00    +0.135 A 
ATOM     26  C   UNL     1       2.115  -7.382  24.021  0.00  0.00    +0.091 A 
ATOM     27  C   UNL     1       1.783  -6.395  23.098  0.00  0.00    +0.124 A 
ATOM     28  C   UNL     1       5.211  -5.837  25.535  0.00  0.00    +0.238 A 
ATOM     29  O   UNL     1       5.593  -6.717  26.300  0.00  0.00    -0.283 OA
ATOM     30  C   UNL     1       2.545  -5.238  22.979  0.00  0.00    +0.092 A 
ATOM     31  C   UNL     1       5.938  -4.555  25.363  0.00  0.00    +0.208 A 
BRANCH  31  32
ATOM     32  O   UNL     1       7.064  -4.357  26.124  0.00  0.00    -0.501 OA
ATOM     33  H   UNL     1       7.823  -4.464  25.529  0.00  0.00    +0.292 HD
ENDBRANCH  31  32
BRANCH  27  34
ATOM     34  O   UNL     1       0.701  -6.530  22.279  0.00  0.00    -0.507 OA
ATOM     35  H   UNL     1       0.067  -5.824  22.479  0.00  0.00    +0.292 HD
ENDBRANCH  27  34
BRANCH  25  36
ATOM     36  O   UNL     1       3.533  -8.217  25.702  0.00  0.00    -0.506 OA
ATOM     37  H   UNL     1       2.847  -8.228  26.407  0.00  0.00    +0.292 HD
ENDBRANCH  25  36
ENDBRANCH  18  21
BRANCH  20  38
ATOM     38  O   UNL     1       8.772  -0.750  22.120  0.00  0.00    -0.491 OA
ATOM     39  C   UNL     1       9.993  -1.444  22.359  0.00  0.00    +0.277 C 
ENDBRANCH  20  38
ENDBRANCH  14  15
ENDBRANCH   2  14
BRANCH   1  40
ATOM     40  O   UNL     1       5.654   4.471  23.522  0.00  0.00    -0.337 OA
BRANCH  40  44
ATOM     41  C   UNL     1       2.758   6.781  21.590  0.00  0.00    +0.041 C 
ATOM     42  C   UNL     1       2.363   5.801  22.706  0.00  0.00    +0.149 C 
ATOM     43  O   UNL     1       3.502   5.409  23.504  0.00  0.00    -0.343 OA
ATOM     44  C   UNL     1       4.447   4.614  22.766  0.00  0.00    +0.282 C 
ATOM     45  C   UNL     1       3.762   3.278  22.402  0.00  0.00    +0.201 C 
ATOM     46  C   UNL     1       2.561   3.578  21.507  0.00  0.00    +0.179 C 
ATOM     47  C   UNL     1       1.599   4.570  22.179  0.00  0.00    +0.174 C 
BRANCH  47  48
ATOM     48  O   UNL     1       0.566   4.983  21.279  0.00  0.00    -0.387 OA
ATOM     49  H   UNL     1       0.122   5.760  21.668  0.00  0.00    +0.210 HD
ENDBRANCH  47  48
BRANCH  46  50
ATOM     50  O   UNL     1       1.862   2.369  21.183  0.00  0.00    -0.386 OA
ATOM     51  H   UNL     1       2.090   2.167  20.253  0.00  0.00    +0.210 HD
ENDBRANCH  46  50
BRANCH  45  52
ATOM     52  O   UNL     1       3.316   2.570  23.579  0.00  0.00    -0.384 OA
ATOM     53  H   UNL     1       2.775   3.201  24.097  0.00  0.00    +0.210 HD
ENDBRANCH  45  52
ENDBRANCH  40  44
ENDBRANCH   1  40
TORSDOF 16
ENDMDL
MODEL 3
REMARK VINA RESULT:      -7.3      1.610      2.247
REMARK  Name = 
REMARK  18 active torsions:
REMARK  status: ('A' for Active; 'I' for Inactive)
REMARK    1  A    between atoms: C_1  and  C_2
REMARK    2  A    between atoms: C_3  and  O_44
REMARK    3  A    between atoms: C_4  and  O_43
REMARK    4  A    between atoms: C_5  and  O_42
REMARK    5  A    between atoms: C_6  and  O_8
REMARK    6  A    between atoms: O_8  and  C_9
REMARK    7  A    between atoms: C_10  and  O_41
REMARK    8  A    between atoms: C_11  and  O_40
REMARK    9  A    between atoms: C_12  and  C_38
REMARK   10  A    between atoms: C_14  and  O_15
REMARK   11  A    between atoms: O_15  and  C_16
REMARK   12  A    between atoms: C_17  and  O_36
REMARK   13  A    between atoms: C_19  and  C_22
REMARK   14  A    between atoms: C_23  and  O_35
REMARK   15  A    between atoms: C_27  and  O_34
REMARK   16  A    between atoms: C_29  and  O_33
REMARK   17  A    between atoms: O_36  and  C_37
REMARK   18  A    between atoms: C_38  and  O_39
REMARK                            x       y       z     vdW  Elec       q    Type
REMARK                         _______ _______ _______ _____ _____    ______ ____
ROOT
ATOM      1  C   UNL     1       6.639   3.933  23.116  0.00  0.00    +0.221 C 
ATOM      2  C   UNL     1       7.225   2.963  24.194  0.00  0.00    +0.340 C 
ATOM      3  O   UNL     1       8.198   3.616  25.043  0.00  0.00    -0.331 OA
ATOM      4  C   UNL     1       9.243   4.355  24.398  0.00  0.00    +0.179 C 
ATOM      5  C   UNL     1       8.650   5.417  23.465  0.00  0.00    +0.177 C 
ATOM      6  C   UNL     1       7.754   4.740  22.438  0.00  0.00    +0.180 C 
ENDROOT
BRANCH   6   7
ATOM      7  O   UNL     1       7.260   5.690  21.482  0.00  0.00    -0.386 OA
ATOM      8  H   UNL     1       7.701   6.545  21.667  0.00  0.00    +0.210 HD
ENDBRANCH   6   7
BRANCH   5   9
ATOM      9  O   UNL     1       9.649   6.197  22.799  0.00  0.00    -0.386 OA
ATOM     10  H   UNL     1       9.710   5.908  21.868  0.00  0.00    +0.210 HD
ENDBRANCH   5   9
BRANCH   4  11
ATOM     11  C   UNL     1      10.300   3.460  23.711  0.00  0.00    +0.190 C 
BRANCH  11  12
ATOM     12  O   UNL     1      11.414   4.202  23.226  0.00  0.00    -0.392 OA
ATOM     13  H   UNL     1      12.164   3.595  23.111  0.00  0.00    +0.210 HD
ENDBRANCH  11  12
ENDBRANCH   4  11
BRANCH   2  14
ATOM     14  O   UNL     1       7.781   1.769  23.628  0.00  0.00    -0.457 OA
BRANCH  14  15
ATOM     15  C   UNL     1       7.579   0.583  24.298  0.00  0.00    +0.165 A 
ATOM     16  C   UNL     1       7.048   0.511  25.588  0.00  0.00    +0.050 A 
ATOM     17  C   UNL     1       6.655  -0.704  26.137  0.00  0.00    +0.015 A 
ATOM     18  C   UNL     1       6.876  -1.903  25.461  0.00  0.00    +0.025 A 
ATOM     19  C   UNL     1       7.524  -1.844  24.215  0.00  0.00    +0.061 A 
ATOM     20  C   UNL     1       7.844  -0.616  23.611  0.00  0.00    +0.162 A 
BRANCH  18  21
ATOM     21  C   UNL     1       6.445  -3.172  26.108  0.00  0.00    +0.181 A 
ATOM     22  O   UNL     1       5.100  -3.448  25.884  0.00  0.00    -0.451 OA
ATOM     23  C   UNL     1       4.563  -4.593  26.400  0.00  0.00    +0.147 A 
ATOM     24  C   UNL     1       5.302  -5.501  27.148  0.00  0.00    +0.109 A 
ATOM     25  C   UNL     1       4.683  -6.642  27.669  0.00  0.00    +0.135 A 
ATOM     26  C   UNL     1       3.328  -6.870  27.443  0.00  0.00    +0.091 A 
ATOM     27  C   UNL     1       2.605  -5.958  26.682  0.00  0.00    +0.124 A 
ATOM     28  C   UNL     1       6.735  -5.244  27.339  0.00  0.00    +0.238 A 
ATOM     29  O   UNL     1       7.432  -6.064  27.929  0.00  0.00    -0.283 OA
ATOM     30  C   UNL     1       3.211  -4.823  26.154  0.00  0.00    +0.092 A 
ATOM     31  C   UNL     1       7.284  -3.989  26.769  0.00  0.00    +0.208 A 
BRANCH  31  32
ATOM     32  O   UNL     1       8.624  -3.743  26.949  0.00  0.00    -0.501 OA
ATOM     33  H   UNL     1       8.718  -2.783  27.053  0.00  0.00    +0.292 HD
ENDBRANCH  31  32
BRANCH  27  34
ATOM     34  O   UNL     1       1.278  -6.146  26.427  0.00  0.00    -0.507 OA
ATOM     35  H   UNL     1       0.806  -5.317  26.596  0.00  0.00    +0.292 HD
ENDBRANCH  27  34
BRANCH  25  36
ATOM     36  O   UNL     1       5.355  -7.584  28.402  0.00  0.00    -0.506 OA
ATOM     37  H   UNL     1       4.789  -7.841  29.166  0.00  0.00    +0.292 HD
ENDBRANCH  25  36
ENDBRANCH  18  21
BRANCH  20  38
ATOM     38  O   UNL     1       8.423  -0.502  22.370  0.00  0.00    -0.491 OA
ATOM     39  C   UNL     1       9.166  -1.618  21.887  0.00  0.00    +0.277 C 
ENDBRANCH  20  38
ENDBRANCH  14  15
ENDBRANCH   2  14
BRANCH   1  40
ATOM     40  O   UNL     1       5.586   4.711  23.735  0.00  0.00    -0.337 OA
BRANCH  40  44
ATOM     41  C   UNL     1       2.409   6.854  22.071  0.00  0.00    +0.041 C 
ATOM     42  C   UNL     1       2.150   5.717  23.072  0.00  0.00    +0.149 C 
ATOM     43  O   UNL     1       3.338   5.380  23.821  0.00  0.00    -0.343 OA
ATOM     44  C   UNL     1       4.361   4.790  22.999  0.00  0.00    +0.282 C 
ATOM     45  C   UNL     1       3.836   3.429  22.490  0.00  0.00    +0.201 C 
ATOM     46  C   UNL     1       2.595   3.678  21.634  0.00  0.00    +0.179 C 
ATOM     47  C   UNL     1       1.531   4.468  22.413  0.00  0.00    +0.174 C 
BRANCH  47  48
ATOM     48  O   UNL     1       0.444   4.850  21.564  0.00  0.00    -0.387 OA
ATOM     49  H   UNL     1      -0.380   4.780  22.081  0.00  0.00    +0.210 HD
ENDBRANCH  47  48
BRANCH  46  50
ATOM     50  O   UNL     1       2.042   2.437  21.180  0.00  0.00    -0.386 OA
ATOM     51  H   UNL     1       1.135   2.641  20.876  0.00  0.00    +0.210 HD
ENDBRANCH  46  50
BRANCH  45  52
ATOM     52  O   UNL     1       3.494   2.548  23.582  0.00  0.00    -0.384 OA
ATOM     53  H   UNL     1       3.672   3.044  24.409  0.00  0.00    +0.210 HD
ENDBRANCH  45  52
ENDBRANCH  40  44
ENDBRANCH   1  40
TORSDOF 16
ENDMDL
MODEL 4
REMARK VINA RESULT:      -7.1      3.534      4.998
REMARK  Name = 
REMARK  18 active torsions:
REMARK  status: ('A' for Active; 'I' for Inactive)
REMARK    1  A    between atoms: C_1  and  C_2
REMARK    2  A    between atoms: C_3  and  O_44
REMARK    3  A    between atoms: C_4  and  O_43
REMARK    4  A    between atoms: C_5  and  O_42
REMARK    5  A    between atoms: C_6  and  O_8
REMARK    6  A    between atoms: O_8  and  C_9
REMARK    7  A    between atoms: C_10  and  O_41
REMARK    8  A    between atoms: C_11  and  O_40
REMARK    9  A    between atoms: C_12  and  C_38
REMARK   10  A    between atoms: C_14  and  O_15
REMARK   11  A    between atoms: O_15  and  C_16
REMARK   12  A    between atoms: C_17  and  O_36
REMARK   13  A    between atoms: C_19  and  C_22
REMARK   14  A    between atoms: C_23  and  O_35
REMARK   15  A    between atoms: C_27  and  O_34
REMARK   16  A    between atoms: C_29  and  O_33
REMARK   17  A    between atoms: O_36  and  C_37
REMARK   18  A    between atoms: C_38  and  O_39
REMARK                            x       y       z     vdW  Elec       q    Type
REMARK                         _______ _______ _______ _____ _____    ______ ____
ROOT
ATOM      1  C   UNL     1       7.231   0.631  23.411  0.00  0.00    +0.221 C 
ATOM      2  C   UNL     1       7.968  -0.550  24.125  0.00  0.00    +0.340 C 
ATOM      3  O   UNL     1       9.372  -0.270  24.331  0.00  0.00    -0.331 OA
ATOM      4  C   UNL     1      10.124   0.195  23.202  0.00  0.00    +0.179 C 
ATOM      5  C   UNL     1       9.478   1.453  22.611  0.00  0.00    +0.177 C 
ATOM      6  C   UNL     1       8.042   1.144  22.215  0.00  0.00    +0.180 C 
ENDROOT
BRANCH   6   7
ATOM      7  O   UNL     1       7.436   2.269  21.563  0.00  0.00    -0.386 OA
ATOM      8  H   UNL     1       7.460   3.018  22.193  0.00  0.00    +0.210 HD
ENDBRANCH   6   7
BRANCH   5   9
ATOM      9  O   UNL     1      10.193   1.972  21.485  0.00  0.00    -0.386 OA
ATOM     10  H   UNL     1      10.037   1.392  20.715  0.00  0.00    +0.210 HD
ENDBRANCH   5   9
BRANCH   4  11
ATOM     11  C   UNL     1      10.398  -0.902  22.148  0.00  0.00    +0.190 C 
BRANCH  11  12
ATOM     12  O   UNL     1      10.568  -2.190  22.730  0.00  0.00    -0.392 OA
ATOM     13  H   UNL     1      10.333  -2.139  23.671  0.00  0.00    +0.210 HD
ENDBRANCH  11  12
ENDBRANCH   4  11
BRANCH   2  14
ATOM     14  O   UNL     1       7.805  -1.801  23.445  0.00  0.00    -0.457 OA
BRANCH  14  15
ATOM     15  C   UNL     1       6.909  -2.707  23.967  0.00  0.00    +0.165 A 
ATOM     16  C   UNL     1       5.546  -2.442  24.110  0.00  0.00    +0.050 A 
ATOM     17  C   UNL     1       4.647  -3.453  24.431  0.00  0.00    +0.015 A 
ATOM     18  C   UNL     1       5.088  -4.742  24.723  0.00  0.00    +0.025 A 
ATOM     19  C   UNL     1       6.473  -4.981  24.701  0.00  0.00    +0.061 A 
ATOM     20  C   UNL     1       7.384  -3.992  24.292  0.00  0.00    +0.162 A 
BRANCH  18  21
ATOM     21  C   UNL     1       4.077  -5.776  25.073  0.00  0.00    +0.181 A 
ATOM     22  O   UNL     1       3.631  -5.654  26.385  0.00  0.00    -0.451 OA
ATOM     23  C   UNL     1       2.683  -6.523  26.847  0.00  0.00    +0.147 A 
ATOM     24  C   UNL     1       2.143  -7.535  26.063  0.00  0.00    +0.109 A 
ATOM     25  C   UNL     1       1.194  -8.406  26.608  0.00  0.00    +0.135 A 
ATOM     26  C   UNL     1       0.791  -8.266  27.933  0.00  0.00    +0.091 A 
ATOM     27  C   UNL     1       1.332  -7.241  28.701  0.00  0.00    +0.124 A 
ATOM     28  C   UNL     1       2.568  -7.633  24.662  0.00  0.00    +0.238 A 
ATOM     29  O   UNL     1       2.054  -8.465  23.921  0.00  0.00    -0.283 OA
ATOM     30  C   UNL     1       2.272  -6.365  28.169  0.00  0.00    +0.092 A 
ATOM     31  C   UNL     1       3.602  -6.676  24.194  0.00  0.00    +0.208 A 
BRANCH  31  32
ATOM     32  O   UNL     1       4.005  -6.767  22.884  0.00  0.00    -0.501 OA
ATOM     33  H   UNL     1       4.974  -6.807  22.895  0.00  0.00    +0.292 HD
ENDBRANCH  31  32
BRANCH  27  34
ATOM     34  O   UNL     1       0.960  -7.060  30.000  0.00  0.00    -0.507 OA
ATOM     35  H   UNL     1      -0.007  -7.070  30.054  0.00  0.00    +0.292 HD
ENDBRANCH  27  34
BRANCH  25  36
ATOM     36  O   UNL     1       0.612  -9.415  25.888  0.00  0.00    -0.506 OA
ATOM     37  H   UNL     1      -0.366  -9.306  25.938  0.00  0.00    +0.292 HD
ENDBRANCH  25  36
ENDBRANCH  18  21
BRANCH  20  38
ATOM     38  O   UNL     1       8.740  -4.192  24.198  0.00  0.00    -0.491 OA
ATOM     39  C   UNL     1       9.368  -4.940  25.235  0.00  0.00    +0.277 C 
ENDBRANCH  20  38
ENDBRANCH  14  15
ENDBRANCH   2  14
BRANCH   1  40
ATOM     40  O   UNL     1       6.892   1.621  24.413  0.00  0.00    -0.337 OA
BRANCH  40  44
ATOM     41  C   UNL     1       4.389  -0.555  26.953  0.00  0.00    +0.041 C 
ATOM     42  C   UNL     1       4.705   0.922  27.239  0.00  0.00    +0.149 C 
ATOM     43  O   UNL     1       5.236   1.593  26.075  0.00  0.00    -0.343 OA
ATOM     44  C   UNL     1       6.535   1.104  25.698  0.00  0.00    +0.282 C 
ATOM     45  C   UNL     1       7.525   1.467  26.828  0.00  0.00    +0.201 C 
ATOM     46  C   UNL     1       7.081   0.760  28.107  0.00  0.00    +0.179 C 
ATOM     47  C   UNL     1       5.627   1.110  28.461  0.00  0.00    +0.174 C 
BRANCH  47  48
ATOM     48  O   UNL     1       5.155   0.320  29.557  0.00  0.00    -0.387 OA
ATOM     49  H   UNL     1       5.912   0.137  30.144  0.00  0.00    +0.210 HD
ENDBRANCH  47  48
BRANCH  46  50
ATOM     50  O   UNL     1       7.943   1.108  29.198  0.00  0.00    -0.386 OA
ATOM     51  H   UNL     1       7.805   0.421  29.880  0.00  0.00    +0.210 HD
ENDBRANCH  46  50
BRANCH  45  52
ATOM     52  O   UNL     1       7.568   2.892  27.060  0.00  0.00    -0.384 OA
ATOM     53  H   UNL     1       6.729   3.129  27.508  0.00  0.00    +0.210 HD
ENDBRANCH  45  52
ENDBRANCH  40  44
ENDBRANCH   1  40
TORSDOF 16
ENDMDL
MODEL 5
REMARK VINA RESULT:      -7.1      3.327      4.951
REMARK  Name = 
REMARK  18 active torsions:
REMARK  status: ('A' for Active; 'I' for Inactive)
REMARK    1  A    between atoms: C_1  and  C_2
REMARK    2  A    between atoms: C_3  and  O_44
REMARK    3  A    between atoms: C_4  and  O_43
REMARK    4  A    between atoms: C_5  and  O_42
REMARK    5  A    between atoms: C_6  and  O_8
REMARK    6  A    between atoms: O_8  and  C_9
REMARK    7  A    between atoms: C_10  and  O_41
REMARK    8  A    between atoms: C_11  and  O_40
REMARK    9  A    between atoms: C_12  and  C_38
REMARK   10  A    between atoms: C_14  and  O_15
REMARK   11  A    between atoms: O_15  and  C_16
REMARK   12  A    between atoms: C_17  and  O_36
REMARK   13  A    between atoms: C_19  and  C_22
REMARK   14  A    between atoms: C_23  and  O_35
REMARK   15  A    between atoms: C_27  and  O_34
REMARK   16  A    between atoms: C_29  and  O_33
REMARK   17  A    between atoms: O_36  and  C_37
REMARK   18  A    between atoms: C_38  and  O_39
REMARK                            x       y       z     vdW  Elec       q    Type
REMARK                         _______ _______ _______ _____ _____    ______ ____
ROOT
ATOM      1  C   UNL     1       7.937   1.392  24.330  0.00  0.00    +0.221 C 
ATOM      2  C   UNL     1       8.351  -0.116  24.333  0.00  0.00    +0.340 C 
ATOM      3  O   UNL     1       9.756  -0.296  24.039  0.00  0.00    -0.331 OA
ATOM      4  C   UNL     1      10.277   0.375  22.884  0.00  0.00    +0.179 C 
ATOM      5  C   UNL     1      10.008   1.882  22.974  0.00  0.00    +0.177 C 
ATOM      6  C   UNL     1       8.510   2.118  23.106  0.00  0.00    +0.180 C 
ENDROOT
BRANCH   6   7
ATOM      7  O   UNL     1       8.208   3.520  23.089  0.00  0.00    -0.386 OA
ATOM      8  H   UNL     1       9.001   3.993  23.416  0.00  0.00    +0.210 HD
ENDBRANCH   6   7
BRANCH   5   9
ATOM      9  O   UNL     1      10.517   2.608  21.851  0.00  0.00    -0.386 OA
ATOM     10  H   UNL     1      11.436   2.324  21.678  0.00  0.00    +0.210 HD
ENDBRANCH   5   9
BRANCH   4  11
ATOM     11  C   UNL     1       9.818  -0.249  21.547  0.00  0.00    +0.190 C 
BRANCH  11  12
ATOM     12  O   UNL     1       9.945  -1.667  21.532  0.00  0.00    -0.392 OA
ATOM     13  H   UNL     1       9.089  -2.051  21.282  0.00  0.00    +0.210 HD
ENDBRANCH  11  12
ENDBRANCH   4  11
BRANCH   2  14
ATOM     14  O   UNL     1       7.552  -0.916  23.453  0.00  0.00    -0.457 OA
BRANCH  14  15
ATOM     15  C   UNL     1       6.784  -1.915  24.008  0.00  0.00    +0.165 A 
ATOM     16  C   UNL     1       5.501  -1.703  24.518  0.00  0.00    +0.050 A 
ATOM     17  C   UNL     1       4.679  -2.770  24.863  0.00  0.00    +0.015 A 
ATOM     18  C   UNL     1       5.145  -4.082  24.810  0.00  0.00    +0.025 A 
ATOM     19  C   UNL     1       6.478  -4.290  24.414  0.00  0.00    +0.061 A 
ATOM     20  C   UNL     1       7.289  -3.228  23.979  0.00  0.00    +0.162 A 
BRANCH  18  21
ATOM     21  C   UNL     1       4.220  -5.180  25.205  0.00  0.00    +0.181 A 
ATOM     22  O   UNL     1       3.638  -5.800  24.104  0.00  0.00    -0.451 OA
ATOM     23  C   UNL     1       2.780  -6.843  24.308  0.00  0.00    +0.147 A 
ATOM     24  C   UNL     1       2.453  -7.314  25.574  0.00  0.00    +0.109 A 
ATOM     25  C   UNL     1       1.546  -8.370  25.712  0.00  0.00    +0.135 A 
ATOM     26  C   UNL     1       0.966  -8.948  24.587  0.00  0.00    +0.091 A 
ATOM     27  C   UNL     1       1.312  -8.474  23.325  0.00  0.00    +0.124 A 
ATOM     28  C   UNL     1       3.107  -6.700  26.736  0.00  0.00    +0.238 A 
ATOM     29  O   UNL     1       2.900  -7.142  27.862  0.00  0.00    -0.283 OA
ATOM     30  C   UNL     1       2.218  -7.429  23.176  0.00  0.00    +0.092 A 
ATOM     31  C   UNL     1       4.031  -5.567  26.479  0.00  0.00    +0.208 A 
BRANCH  31  32
ATOM     32  O   UNL     1       4.642  -4.988  27.564  0.00  0.00    -0.501 OA
ATOM     33  H   UNL     1       4.538  -5.607  28.304  0.00  0.00    +0.292 HD
ENDBRANCH  31  32
BRANCH  27  34
ATOM     34  O   UNL     1       0.777  -9.017  22.195  0.00  0.00    -0.507 OA
ATOM     35  H   UNL     1       1.286  -8.712  21.429  0.00  0.00    +0.292 HD
ENDBRANCH  27  34
BRANCH  25  36
ATOM     36  O   UNL     1       1.191  -8.890  26.927  0.00  0.00    -0.506 OA
ATOM     37  H   UNL     1       0.316  -9.333  26.831  0.00  0.00    +0.292 HD
ENDBRANCH  25  36
ENDBRANCH  18  21
BRANCH  20  38
ATOM     38  O   UNL     1       8.577  -3.386  23.528  0.00  0.00    -0.491 OA
ATOM     39  C   UNL     1       9.570  -3.742  24.485  0.00  0.00    +0.277 C 
ENDBRANCH  20  38
ENDBRANCH  14  15
ENDBRANCH   2  14
BRANCH   1  40
ATOM     40  O   UNL     1       8.285   1.958  25.617  0.00  0.00    -0.337 OA
BRANCH  40  44
ATOM     41  C   UNL     1       5.248   4.397  27.128  0.00  0.00    +0.041 C 
ATOM     42  C   UNL     1       6.325   3.817  28.059  0.00  0.00    +0.149 C 
ATOM     43  O   UNL     1       7.479   3.355  27.322  0.00  0.00    -0.343 OA
ATOM     44  C   UNL     1       7.187   2.211  26.499  0.00  0.00    +0.282 C 
ATOM     45  C   UNL     1       6.835   1.031  27.432  0.00  0.00    +0.201 C 
ATOM     46  C   UNL     1       5.585   1.400  28.229  0.00  0.00    +0.179 C 
ATOM     47  C   UNL     1       5.781   2.719  28.993  0.00  0.00    +0.174 C 
BRANCH  47  48
ATOM     48  O   UNL     1       4.560   3.153  29.600  0.00  0.00    -0.387 OA
ATOM     49  H   UNL     1       4.631   3.001  30.562  0.00  0.00    +0.210 HD
ENDBRANCH  47  48
BRANCH  46  50
ATOM     50  O   UNL     1       5.249   0.352  29.147  0.00  0.00    -0.386 OA
ATOM     51  H   UNL     1       5.429  -0.487  28.677  0.00  0.00    +0.210 HD
ENDBRANCH  46  50
BRANCH  45  52
ATOM     52  O   UNL     1       7.914   0.735  28.345  0.00  0.00    -0.384 OA
ATOM     53  H   UNL     1       8.121   1.570  28.816  0.00  0.00    +0.210 HD
ENDBRANCH  45  52
ENDBRANCH  40  44
ENDBRANCH   1  40
TORSDOF 16
ENDMDL
MODEL 6
REMARK VINA RESULT:      -7.0      3.627      9.501
REMARK  Name = 
REMARK  18 active torsions:
REMARK  status: ('A' for Active; 'I' for Inactive)
REMARK    1  A    between atoms: C_1  and  C_2
REMARK    2  A    between atoms: C_3  and  O_44
REMARK    3  A    between atoms: C_4  and  O_43
REMARK    4  A    between atoms: C_5  and  O_42
REMARK    5  A    between atoms: C_6  and  O_8
REMARK    6  A    between atoms: O_8  and  C_9
REMARK    7  A    between atoms: C_10  and  O_41
REMARK    8  A    between atoms: C_11  and  O_40
REMARK    9  A    between atoms: C_12  and  C_38
REMARK   10  A    between atoms: C_14  and  O_15
REMARK   11  A    between atoms: O_15  and  C_16
REMARK   12  A    between atoms: C_17  and  O_36
REMARK   13  A    between atoms: C_19  and  C_22
REMARK   14  A    between atoms: C_23  and  O_35
REMARK   15  A    between atoms: C_27  and  O_34
REMARK   16  A    between atoms: C_29  and  O_33
REMARK   17  A    between atoms: O_36  and  C_37
REMARK   18  A    between atoms: C_38  and  O_39
REMARK                            x       y       z     vdW  Elec       q    Type
REMARK                         _______ _______ _______ _____ _____    ______ ____
ROOT
ATOM      1  C   UNL     1       6.832  -2.923  22.919  0.00  0.00    +0.221 C 
ATOM      2  C   UNL     1       7.306  -3.606  24.243  0.00  0.00    +0.340 C 
ATOM      3  O   UNL     1       7.642  -4.999  24.049  0.00  0.00    -0.331 OA
ATOM      4  C   UNL     1       6.683  -5.818  23.367  0.00  0.00    +0.179 C 
ATOM      5  C   UNL     1       6.350  -5.222  21.994  0.00  0.00    +0.177 C 
ATOM      6  C   UNL     1       5.821  -3.806  22.176  0.00  0.00    +0.180 C 
ENDROOT
BRANCH   6   7
ATOM      7  O   UNL     1       5.401  -3.250  20.922  0.00  0.00    -0.386 OA
ATOM      8  H   UNL     1       5.539  -2.282  20.971  0.00  0.00    +0.210 HD
ENDBRANCH   6   7
BRANCH   5   9
ATOM      9  O   UNL     1       5.403  -6.004  21.259  0.00  0.00    -0.386 OA
ATOM     10  H   UNL     1       4.826  -5.407  20.746  0.00  0.00    +0.210 HD
ENDBRANCH   5   9
BRANCH   4  11
ATOM     11  C   UNL     1       5.430  -6.138  24.213  0.00  0.00    +0.190 C 
BRANCH  11  12
ATOM     12  O   UNL     1       4.720  -7.275  23.732  0.00  0.00    -0.392 OA
ATOM     13  H   UNL     1       4.088  -6.982  23.056  0.00  0.00    +0.210 HD
ENDBRANCH  11  12
ENDBRANCH   4  11
BRANCH   2  14
ATOM     14  O   UNL     1       6.361  -3.467  25.312  0.00  0.00    -0.457 OA
BRANCH  14  15
ATOM     15  C   UNL     1       6.360  -2.287  26.023  0.00  0.00    +0.165 A 
ATOM     16  C   UNL     1       7.493  -1.770  26.653  0.00  0.00    +0.050 A 
ATOM     17  C   UNL     1       7.504  -0.478  27.166  0.00  0.00    +0.015 A 
ATOM     18  C   UNL     1       6.352   0.306  27.163  0.00  0.00    +0.025 A 
ATOM     19  C   UNL     1       5.176  -0.259  26.641  0.00  0.00    +0.061 A 
ATOM     20  C   UNL     1       5.175  -1.529  26.039  0.00  0.00    +0.162 A 
BRANCH  18  21
ATOM     21  C   UNL     1       6.425   1.676  27.740  0.00  0.00    +0.181 A 
ATOM     22  O   UNL     1       6.964   2.596  26.846  0.00  0.00    -0.451 OA
ATOM     23  C   UNL     1       7.075   3.903  27.227  0.00  0.00    +0.147 A 
ATOM     24  C   UNL     1       6.678   4.360  28.477  0.00  0.00    +0.109 A 
ATOM     25  C   UNL     1       6.844   5.709  28.811  0.00  0.00    +0.135 A 
ATOM     26  C   UNL     1       7.410   6.594  27.898  0.00  0.00    +0.091 A 
ATOM     27  C   UNL     1       7.792   6.123  26.645  0.00  0.00    +0.124 A 
ATOM     28  C   UNL     1       6.056   3.405  29.403  0.00  0.00    +0.238 A 
ATOM     29  O   UNL     1       5.624   3.792  30.485  0.00  0.00    -0.283 OA
ATOM     30  C   UNL     1       7.626   4.786  26.300  0.00  0.00    +0.092 A 
ATOM     31  C   UNL     1       5.955   1.993  28.959  0.00  0.00    +0.208 A 
BRANCH  31  32
ATOM     32  O   UNL     1       5.377   1.096  29.824  0.00  0.00    -0.501 OA
ATOM     33  H   UNL     1       4.728   0.592  29.308  0.00  0.00    +0.292 HD
ENDBRANCH  31  32
BRANCH  27  34
ATOM     34  O   UNL     1       8.341   6.955  25.716  0.00  0.00    -0.507 OA
ATOM     35  H   UNL     1       7.832   7.779  25.693  0.00  0.00    +0.292 HD
ENDBRANCH  27  34
BRANCH  25  36
ATOM     36  O   UNL     1       6.462   6.228  30.019  0.00  0.00    -0.506 OA
ATOM     37  H   UNL     1       7.270   6.518  30.501  0.00  0.00    +0.292 HD
ENDBRANCH  25  36
ENDBRANCH  18  21
BRANCH  20  38
ATOM     38  O   UNL     1       4.067  -2.100  25.462  0.00  0.00    -0.491 OA
ATOM     39  C   UNL     1       3.072  -2.632  26.333  0.00  0.00    +0.277 C 
ENDBRANCH  20  38
ENDBRANCH  14  15
ENDBRANCH   2  14
BRANCH   1  40
ATOM     40  O   UNL     1       8.007  -2.541  22.163  0.00  0.00    -0.337 OA
BRANCH  40  44
ATOM     41  C   UNL     1       7.779   1.609  21.736  0.00  0.00    +0.041 C 
ATOM     42  C   UNL     1       9.038   0.843  21.299  0.00  0.00    +0.149 C 
ATOM     43  O   UNL     1       8.781  -0.571  21.149  0.00  0.00    -0.343 OA
ATOM     44  C   UNL     1       8.492  -1.216  22.403  0.00  0.00    +0.282 C 
ATOM     45  C   UNL     1       9.766  -1.153  23.275  0.00  0.00    +0.201 C 
ATOM     46  C   UNL     1      10.099   0.315  23.538  0.00  0.00    +0.179 C 
ATOM     47  C   UNL     1      10.245   1.098  22.223  0.00  0.00    +0.174 C 
BRANCH  47  48
ATOM     48  O   UNL     1      10.387   2.500  22.468  0.00  0.00    -0.387 OA
ATOM     49  H   UNL     1      10.688   2.616  23.389  0.00  0.00    +0.210 HD
ENDBRANCH  47  48
BRANCH  46  50
ATOM     50  O   UNL     1      11.306   0.425  24.304  0.00  0.00    -0.386 OA
ATOM     51  H   UNL     1      11.490   1.382  24.382  0.00  0.00    +0.210 HD
ENDBRANCH  46  50
BRANCH  45  52
ATOM     52  O   UNL     1      10.888  -1.789  22.625  0.00  0.00    -0.384 OA
ATOM     53  H   UNL     1      11.133  -2.559  23.179  0.00  0.00    +0.210 HD
ENDBRANCH  45  52
ENDBRANCH  40  44
ENDBRANCH   1  40
TORSDOF 16
ENDMDL
MODEL 7
REMARK VINA RESULT:      -7.0      2.368      3.282
REMARK  Name = 
REMARK  18 active torsions:
REMARK  status: ('A' for Active; 'I' for Inactive)
REMARK    1  A    between atoms: C_1  and  C_2
REMARK    2  A    between atoms: C_3  and  O_44
REMARK    3  A    between atoms: C_4  and  O_43
REMARK    4  A    between atoms: C_5  and  O_42
REMARK    5  A    between atoms: C_6  and  O_8
REMARK    6  A    between atoms: O_8  and  C_9
REMARK    7  A    between atoms: C_10  and  O_41
REMARK    8  A    between atoms: C_11  and  O_40
REMARK    9  A    between atoms: C_12  and  C_38
REMARK   10  A    between atoms: C_14  and  O_15
REMARK   11  A    between atoms: O_15  and  C_16
REMARK   12  A    between atoms: C_17  and  O_36
REMARK   13  A    between atoms: C_19  and  C_22
REMARK   14  A    between atoms: C_23  and  O_35
REMARK   15  A    between atoms: C_27  and  O_34
REMARK   16  A    between atoms: C_29  and  O_33
REMARK   17  A    between atoms: O_36  and  C_37
REMARK   18  A    between atoms: C_38  and  O_39
REMARK                            x       y       z     vdW  Elec       q    Type
REMARK                         _______ _______ _______ _____ _____    ______ ____
ROOT
ATOM      1  C   UNL     1       6.837   3.434  24.094  0.00  0.00    +0.221 C 
ATOM      2  C   UNL     1       7.928   3.295  25.206  0.00  0.00    +0.340 C 
ATOM      3  O   UNL     1       8.632   4.537  25.437  0.00  0.00    -0.331 OA
ATOM      4  C   UNL     1       9.155   5.220  24.290  0.00  0.00    +0.179 C 
ATOM      5  C   UNL     1       8.039   5.497  23.277  0.00  0.00    +0.177 C 
ATOM      6  C   UNL     1       7.388   4.182  22.873  0.00  0.00    +0.180 C 
ENDROOT
BRANCH   6   7
ATOM      7  O   UNL     1       6.405   4.389  21.849  0.00  0.00    -0.386 OA
ATOM      8  H   UNL     1       5.919   5.209  22.072  0.00  0.00    +0.210 HD
ENDBRANCH   6   7
BRANCH   5   9
ATOM      9  O   UNL     1       8.500   6.189  22.112  0.00  0.00    -0.386 OA
ATOM     10  H   UNL     1       7.868   6.901  21.894  0.00  0.00    +0.210 HD
ENDBRANCH   5   9
BRANCH   4  11
ATOM     11  C   UNL     1      10.387   4.525  23.666  0.00  0.00    +0.190 C 
BRANCH  11  12
ATOM     12  O   UNL     1      11.184   5.416  22.891  0.00  0.00    -0.392 OA
ATOM     13  H   UNL     1      11.221   6.273  23.347  0.00  0.00    +0.210 HD
ENDBRANCH  11  12
ENDBRANCH   4  11
BRANCH   2  14
ATOM     14  O   UNL     1       8.859   2.237  24.946  0.00  0.00    -0.457 OA
BRANCH  14  15
ATOM     15  C   UNL     1       8.373   0.949  24.891  0.00  0.00    +0.165 A 
ATOM     16  C   UNL     1       7.709   0.334  25.954  0.00  0.00    +0.050 A 
ATOM     17  C   UNL     1       7.044  -0.875  25.783  0.00  0.00    +0.015 A 
ATOM     18  C   UNL     1       7.107  -1.565  24.574  0.00  0.00    +0.025 A 
ATOM     19  C   UNL     1       7.879  -1.008  23.540  0.00  0.00    +0.061 A 
ATOM     20  C   UNL     1       8.481   0.255  23.671  0.00  0.00    +0.162 A 
BRANCH  18  21
ATOM     21  C   UNL     1       6.385  -2.861  24.458  0.00  0.00    +0.181 A 
ATOM     22  O   UNL     1       6.412  -3.587  25.645  0.00  0.00    -0.451 OA
ATOM     23  C   UNL     1       5.772  -4.792  25.700  0.00  0.00    +0.147 A 
ATOM     24  C   UNL     1       5.094  -5.336  24.616  0.00  0.00    +0.109 A 
ATOM     25  C   UNL     1       4.482  -6.588  24.734  0.00  0.00    +0.135 A 
ATOM     26  C   UNL     1       4.552  -7.294  25.931  0.00  0.00    +0.091 A 
ATOM     27  C   UNL     1       5.224  -6.731  27.012  0.00  0.00    +0.124 A 
ATOM     28  C   UNL     1       5.014  -4.549  23.379  0.00  0.00    +0.238 A 
ATOM     29  O   UNL     1       4.358  -4.965  22.428  0.00  0.00    -0.283 OA
ATOM     30  C   UNL     1       5.832  -5.484  26.908  0.00  0.00    +0.092 A 
ATOM     31  C   UNL     1       5.724  -3.246  23.353  0.00  0.00    +0.208 A 
BRANCH  31  32
ATOM     32  O   UNL     1       5.654  -2.509  22.195  0.00  0.00    -0.501 OA
ATOM     33  H   UNL     1       5.999  -3.074  21.486  0.00  0.00    +0.292 HD
ENDBRANCH  31  32
BRANCH  27  34
ATOM     34  O   UNL     1       5.310  -7.382  28.206  0.00  0.00    -0.507 OA
ATOM     35  H   UNL     1       4.525  -7.174  28.734  0.00  0.00    +0.292 HD
ENDBRANCH  27  34
BRANCH  25  36
ATOM     36  O   UNL     1       3.787  -7.175  23.710  0.00  0.00    -0.506 OA
ATOM     37  H   UNL     1       2.837  -6.932  23.802  0.00  0.00    +0.292 HD
ENDBRANCH  25  36
ENDBRANCH  18  21
BRANCH  20  38
ATOM     38  O   UNL     1       9.196   0.870  22.671  0.00  0.00    -0.491 OA
ATOM     39  C   UNL     1       9.457   0.115  21.492  0.00  0.00    +0.277 C 
ENDBRANCH  20  38
ENDBRANCH  14  15
ENDBRANCH   2  14
BRANCH   1  40
ATOM     40  O   UNL     1       5.649   4.002  24.697  0.00  0.00    -0.337 OA
BRANCH  40  44
ATOM     41  C   UNL     1       4.094   0.744  26.799  0.00  0.00    +0.041 C 
ATOM     42  C   UNL     1       3.387   2.108  26.832  0.00  0.00    +0.149 C 
ATOM     43  O   UNL     1       3.829   2.968  25.758  0.00  0.00    -0.343 OA
ATOM     44  C   UNL     1       5.203   3.370  25.901  0.00  0.00    +0.282 C 
ATOM     45  C   UNL     1       5.310   4.256  27.162  0.00  0.00    +0.201 C 
ATOM     46  C   UNL     1       4.909   3.419  28.376  0.00  0.00    +0.179 C 
ATOM     47  C   UNL     1       3.508   2.813  28.197  0.00  0.00    +0.174 C 
BRANCH  47  48
ATOM     48  O   UNL     1       3.202   1.895  29.251  0.00  0.00    -0.387 OA
ATOM     49  H   UNL     1       2.930   1.050  28.845  0.00  0.00    +0.210 HD
ENDBRANCH  47  48
BRANCH  46  50
ATOM     50  O   UNL     1       4.945   4.215  29.567  0.00  0.00    -0.386 OA
ATOM     51  H   UNL     1       4.012   4.374  29.814  0.00  0.00    +0.210 HD
ENDBRANCH  46  50
BRANCH  45  52
ATOM     52  O   UNL     1       4.450   5.413  27.075  0.00  0.00    -0.384 OA
ATOM     53  H   UNL     1       4.685   5.875  26.243  0.00  0.00    +0.210 HD
ENDBRANCH  45  52
ENDBRANCH  40  44
ENDBRANCH   1  40
TORSDOF 16
ENDMDL
MODEL 8
REMARK VINA RESULT:      -6.9      3.588      5.248
REMARK  Name = 
REMARK  18 active torsions:
REMARK  status: ('A' for Active; 'I' for Inactive)
REMARK    1  A    between atoms: C_1  and  C_2
REMARK    2  A    between atoms: C_3  and  O_44
REMARK    3  A    between atoms: C_4  and  O_43
REMARK    4  A    between atoms: C_5  and  O_42
REMARK    5  A    between atoms: C_6  and  O_8
REMARK    6  A    between atoms: O_8  and  C_9
REMARK    7  A    between atoms: C_10  and  O_41
REMARK    8  A    between atoms: C_11  and  O_40
REMARK    9  A    between atoms: C_12  and  C_38
REMARK   10  A    between atoms: C_14  and  O_15
REMARK   11  A    between atoms: O_15  and  C_16
REMARK   12  A    between atoms: C_17  and  O_36
REMARK   13  A    between atoms: C_19  and  C_22
REMARK   14  A    between atoms: C_23  and  O_35
REMARK   15  A    between atoms: C_27  and  O_34
REMARK   16  A    between atoms: C_29  and  O_33
REMARK   17  A    between atoms: O_36  and  C_37
REMARK   18  A    between atoms: C_38  and  O_39
REMARK                            x       y       z     vdW  Elec       q    Type
REMARK                         _______ _______ _______ _____ _____    ______ ____
ROOT
ATOM      1  C   UNL     1       7.401  -0.680  24.690  0.00  0.00    +0.221 C 
ATOM      2  C   UNL     1       8.761  -1.393  24.986  0.00  0.00    +0.340 C 
ATOM      3  O   UNL     1       9.896  -0.576  24.617  0.00  0.00    -0.331 OA
ATOM      4  C   UNL     1       9.895  -0.004  23.303  0.00  0.00    +0.179 C 
ATOM      5  C   UNL     1       8.628   0.831  23.083  0.00  0.00    +0.177 C 
ATOM      6  C   UNL     1       7.404  -0.049  23.291  0.00  0.00    +0.180 C 
ENDROOT
BRANCH   6   7
ATOM      7  O   UNL     1       6.199   0.670  22.995  0.00  0.00    -0.386 OA
ATOM      8  H   UNL     1       5.483   0.010  22.891  0.00  0.00    +0.210 HD
ENDBRANCH   6   7
BRANCH   5   9
ATOM      9  O   UNL     1       8.576   1.439  21.789  0.00  0.00    -0.386 OA
ATOM     10  H   UNL     1       8.902   2.357  21.855  0.00  0.00    +0.210 HD
ENDBRANCH   5   9
BRANCH   4  11
ATOM     11  C   UNL     1      10.148  -1.035  22.179  0.00  0.00    +0.190 C 
BRANCH  11  12
ATOM     12  O   UNL     1      10.942  -2.134  22.613  0.00  0.00    -0.392 OA
ATOM     13  H   UNL     1      11.831  -2.043  22.232  0.00  0.00    +0.210 HD
ENDBRANCH  11  12
ENDBRANCH   4  11
BRANCH   2  14
ATOM     14  O   UNL     1       8.859  -2.686  24.375  0.00  0.00    -0.457 OA
BRANCH  14  15
ATOM     15  C   UNL     1       7.882  -3.612  24.667  0.00  0.00    +0.165 A 
ATOM     16  C   UNL     1       7.712  -4.175  25.933  0.00  0.00    +0.050 A 
ATOM     17  C   UNL     1       6.586  -4.931  26.238  0.00  0.00    +0.015 A 
ATOM     18  C   UNL     1       5.641  -5.240  25.261  0.00  0.00    +0.025 A 
ATOM     19  C   UNL     1       5.875  -4.779  23.954  0.00  0.00    +0.061 A 
ATOM     20  C   UNL     1       6.962  -3.940  23.654  0.00  0.00    +0.162 A 
BRANCH  18  21
ATOM     21  C   UNL     1       4.464  -6.065  25.648  0.00  0.00    +0.181 A 
ATOM     22  O   UNL     1       3.858  -5.605  26.813  0.00  0.00    -0.451 OA
ATOM     23  C   UNL     1       2.749  -6.250  27.282  0.00  0.00    +0.147 A 
ATOM     24  C   UNL     1       2.197  -7.357  26.650  0.00  0.00    +0.109 A 
ATOM     25  C   UNL     1       1.075  -7.986  27.200  0.00  0.00    +0.135 A 
ATOM     26  C   UNL     1       0.512  -7.510  28.380  0.00  0.00    +0.091 A 
ATOM     27  C   UNL     1       1.069  -6.393  28.995  0.00  0.00    +0.124 A 
ATOM     28  C   UNL     1       2.799  -7.812  25.391  0.00  0.00    +0.238 A 
ATOM     29  O   UNL     1       2.290  -8.739  24.767  0.00  0.00    -0.283 OA
ATOM     30  C   UNL     1       2.181  -5.756  28.454  0.00  0.00    +0.092 A 
ATOM     31  C   UNL     1       4.004  -7.092  24.911  0.00  0.00    +0.208 A 
BRANCH  31  32
ATOM     32  O   UNL     1       4.572  -7.517  23.735  0.00  0.00    -0.501 OA
ATOM     33  H   UNL     1       4.337  -6.860  23.060  0.00  0.00    +0.292 HD
ENDBRANCH  31  32
BRANCH  27  34
ATOM     34  O   UNL     1       0.545  -5.886  30.147  0.00  0.00    -0.507 OA
ATOM     35  H   UNL     1       1.135  -6.104  30.884  0.00  0.00    +0.292 HD
ENDBRANCH  27  34
BRANCH  25  36
ATOM     36  O   UNL     1       0.474  -9.071  26.622  0.00  0.00    -0.506 OA
ATOM     37  H   UNL     1       1.138  -9.795  26.558  0.00  0.00    +0.292 HD
ENDBRANCH  25  36
ENDBRANCH  18  21
BRANCH  20  38
ATOM     38  O   UNL     1       7.201  -3.415  22.407  0.00  0.00    -0.491 OA
ATOM     39  C   UNL     1       6.114  -3.389  21.485  0.00  0.00    +0.277 C 
ENDBRANCH  20  38
ENDBRANCH  14  15
ENDBRANCH   2  14
BRANCH   1  40
ATOM     40  O   UNL     1       7.116   0.222  25.786  0.00  0.00    -0.337 OA
BRANCH  40  44
ATOM     41  C   UNL     1       4.717  -2.320  28.074  0.00  0.00    +0.041 C 
ATOM     42  C   UNL     1       4.180  -1.689  26.780  0.00  0.00    +0.149 C 
ATOM     43  O   UNL     1       5.246  -1.187  25.944  0.00  0.00    -0.343 OA
ATOM     44  C   UNL     1       5.929  -0.065  26.532  0.00  0.00    +0.282 C 
ATOM     45  C   UNL     1       4.929   1.110  26.614  0.00  0.00    +0.201 C 
ATOM     46  C   UNL     1       3.774   0.699  27.526  0.00  0.00    +0.179 C 
ATOM     47  C   UNL     1       3.117  -0.603  27.041  0.00  0.00    +0.174 C 
BRANCH  47  48
ATOM     48  O   UNL     1       2.151  -1.079  27.984  0.00  0.00    -0.387 OA
ATOM     49  H   UNL     1       2.161  -2.055  27.957  0.00  0.00    +0.210 HD
ENDBRANCH  47  48
BRANCH  46  50
ATOM     50  O   UNL     1       2.793   1.742  27.593  0.00  0.00    -0.386 OA
ATOM     51  H   UNL     1       3.232   2.497  28.034  0.00  0.00    +0.210 HD
ENDBRANCH  46  50
BRANCH  45  52
ATOM     52  O   UNL     1       4.409   1.458  25.312  0.00  0.00    -0.384 OA
ATOM     53  H   UNL     1       3.435   1.361  25.364  0.00  0.00    +0.210 HD
ENDBRANCH  45  52
ENDBRANCH  40  44
ENDBRANCH   1  40
TORSDOF 16
ENDMDL
MODEL 9
REMARK VINA RESULT:      -6.8      2.673      9.200
REMARK  Name = 
REMARK  18 active torsions:
REMARK  status: ('A' for Active; 'I' for Inactive)
REMARK    1  A    between atoms: C_1  and  C_2
REMARK    2  A    between atoms: C_3  and  O_44
REMARK    3  A    between atoms: C_4  and  O_43
REMARK    4  A    between atoms: C_5  and  O_42
REMARK    5  A    between atoms: C_6  and  O_8
REMARK    6  A    between atoms: O_8  and  C_9
REMARK    7  A    between atoms: C_10  and  O_41
REMARK    8  A    between atoms: C_11  and  O_40
REMARK    9  A    between atoms: C_12  and  C_38
REMARK   10  A    between atoms: C_14  and  O_15
REMARK   11  A    between atoms: O_15  and  C_16
REMARK   12  A    between atoms: C_17  and  O_36
REMARK   13  A    between atoms: C_19  and  C_22
REMARK   14  A    between atoms: C_23  and  O_35
REMARK   15  A    between atoms: C_27  and  O_34
REMARK   16  A    between atoms: C_29  and  O_33
REMARK   17  A    between atoms: O_36  and  C_37
REMARK   18  A    between atoms: C_38  and  O_39
REMARK                            x       y       z     vdW  Elec       q    Type
REMARK                         _______ _______ _______ _____ _____    ______ ____
ROOT
ATOM      1  C   UNL     1       8.364  -2.712  24.284  0.00  0.00    +0.221 C 
ATOM      2  C   UNL     1       8.637  -3.144  25.763  0.00  0.00    +0.340 C 
ATOM      3  O   UNL     1       8.969  -4.547  25.869  0.00  0.00    -0.331 OA
ATOM      4  C   UNL     1       8.098  -5.481  25.216  0.00  0.00    +0.179 C 
ATOM      5  C   UNL     1       7.971  -5.142  23.726  0.00  0.00    +0.177 C 
ATOM      6  C   UNL     1       7.449  -3.720  23.577  0.00  0.00    +0.180 C 
ENDROOT
BRANCH   6   7
ATOM      7  O   UNL     1       7.219  -3.400  22.197  0.00  0.00    -0.386 OA
ATOM      8  H   UNL     1       6.877  -4.209  21.764  0.00  0.00    +0.210 HD
ENDBRANCH   6   7
BRANCH   5   9
ATOM      9  O   UNL     1       7.120  -6.049  23.017  0.00  0.00    -0.386 OA
ATOM     10  H   UNL     1       7.631  -6.847  22.783  0.00  0.00    +0.210 HD
ENDBRANCH   5   9
BRANCH   4  11
ATOM     11  C   UNL     1       6.734  -5.651  25.922  0.00  0.00    +0.190 C 
BRANCH  11  12
ATOM     12  O   UNL     1       6.861  -5.796  27.332  0.00  0.00    -0.392 OA
ATOM     13  H   UNL     1       6.124  -6.340  27.655  0.00  0.00    +0.210 HD
ENDBRANCH  11  12
ENDBRANCH   4  11
BRANCH   2  14
ATOM     14  O   UNL     1       7.555  -2.821  26.647  0.00  0.00    -0.457 OA
BRANCH  14  15
ATOM     15  C   UNL     1       7.020  -1.554  26.575  0.00  0.00    +0.165 A 
ATOM     16  C   UNL     1       7.706  -0.407  26.981  0.00  0.00    +0.050 A 
ATOM     17  C   UNL     1       7.221   0.862  26.688  0.00  0.00    +0.015 A 
ATOM     18  C   UNL     1       5.983   1.034  26.072  0.00  0.00    +0.025 A 
ATOM     19  C   UNL     1       5.233  -0.117  25.774  0.00  0.00    +0.061 A 
ATOM     20  C   UNL     1       5.751  -1.407  25.984  0.00  0.00    +0.162 A 
BRANCH  18  21
ATOM     21  C   UNL     1       5.513   2.419  25.798  0.00  0.00    +0.181 A 
ATOM     22  O   UNL     1       6.088   2.953  24.649  0.00  0.00    -0.451 OA
ATOM     23  C   UNL     1       5.737   4.213  24.255  0.00  0.00    +0.147 A 
ATOM     24  C   UNL     1       4.829   4.996  24.957  0.00  0.00    +0.109 A 
ATOM     25  C   UNL     1       4.535   6.289  24.511  0.00  0.00    +0.135 A 
ATOM     26  C   UNL     1       5.150   6.796  23.371  0.00  0.00    +0.091 A 
ATOM     27  C   UNL     1       6.047   5.995  22.672  0.00  0.00    +0.124 A 
ATOM     28  C   UNL     1       4.177   4.417  26.138  0.00  0.00    +0.238 A 
ATOM     29  O   UNL     1       3.314   5.053  26.735  0.00  0.00    -0.283 OA
ATOM     30  C   UNL     1       6.344   4.706  23.102  0.00  0.00    +0.092 A 
ATOM     31  C   UNL     1       4.585   3.048  26.539  0.00  0.00    +0.208 A 
BRANCH  31  32
ATOM     32  O   UNL     1       3.979   2.505  27.646  0.00  0.00    -0.501 OA
ATOM     33  H   UNL     1       4.168   3.102  28.387  0.00  0.00    +0.292 HD
ENDBRANCH  31  32
BRANCH  27  34
ATOM     34  O   UNL     1       6.666   6.446  21.543  0.00  0.00    -0.507 OA
ATOM     35  H   UNL     1       6.321   5.959  20.780  0.00  0.00    +0.292 HD
ENDBRANCH  27  34
BRANCH  25  36
ATOM     36  O   UNL     1       3.640   7.108  25.147  0.00  0.00    -0.506 OA
ATOM     37  H   UNL     1       4.031   7.383  26.008  0.00  0.00    +0.292 HD
ENDBRANCH  25  36
ENDBRANCH  18  21
BRANCH  20  38
ATOM     38  O   UNL     1       5.084  -2.562  25.656  0.00  0.00    -0.491 OA
ATOM     39  C   UNL     1       4.161  -3.081  26.609  0.00  0.00    +0.277 C 
ENDBRANCH  20  38
ENDBRANCH  14  15
ENDBRANCH   2  14
BRANCH   1  40
ATOM     40  O   UNL     1       9.640  -2.465  23.645  0.00  0.00    -0.337 OA
BRANCH  40  44
ATOM     41  C   UNL     1      11.703   1.118  24.248  0.00  0.00    +0.041 C 
ATOM     42  C   UNL     1      10.169   1.075  24.318  0.00  0.00    +0.149 C 
ATOM     43  O   UNL     1       9.676  -0.273  24.484  0.00  0.00    -0.343 OA
ATOM     44  C   UNL     1       9.919  -1.097  23.330  0.00  0.00    +0.282 C 
ATOM     45  C   UNL     1       9.085  -0.531  22.159  0.00  0.00    +0.201 C 
ATOM     46  C   UNL     1       9.566   0.890  21.864  0.00  0.00    +0.179 C 
ATOM     47  C   UNL     1       9.495   1.773  23.120  0.00  0.00    +0.174 C 
BRANCH  47  48
ATOM     48  O   UNL     1      10.102   3.048  22.892  0.00  0.00    -0.387 OA
ATOM     49  H   UNL     1      10.637   3.272  23.677  0.00  0.00    +0.210 HD
ENDBRANCH  47  48
BRANCH  46  50
ATOM     50  O   UNL     1       8.785   1.475  20.814  0.00  0.00    -0.386 OA
ATOM     51  H   UNL     1       9.270   1.293  19.984  0.00  0.00    +0.210 HD
ENDBRANCH  46  50
BRANCH  45  52
ATOM     52  O   UNL     1       7.676  -0.503  22.473  0.00  0.00    -0.384 OA
ATOM     53  H   UNL     1       7.595  -0.108  23.367  0.00  0.00    +0.210 HD
ENDBRANCH  45  52
ENDBRANCH  40  44
ENDBRANCH   1  40
TORSDOF 16
ENDMDL
