MODEL 1
REMARK VINA RESULT:      -6.9      0.000      0.000
REMARK  Name = 
REMARK  17 active torsions:
REMARK  status: ('A' for Active; 'I' for Inactive)
REMARK    1  A    between atoms: C_1  and  C_2
REMARK    2  A    between atoms: C_3  and  O_48
REMARK    3  A    between atoms: C_5  and  O_47
REMARK    4  A    between atoms: C_6  and  O_46
REMARK    5  A    between atoms: C_8  and  O_11
REMARK    6  A    between atoms: O_11  and  C_12
REMARK    7  A    between atoms: C_13  and  O_24
REMARK    8  A    between atoms: C_16  and  C_22
REMARK    9  A    between atoms: C_17  and  O_21
REMARK   10  A    between atoms: C_19  and  O_20
REMARK   11  A    between atoms: C_22  and  O_23
REMARK   12  A    between atoms: O_24  and  C_25
REMARK   13  A    between atoms: C_26  and  C_38
REMARK   14  A    between atoms: C_30  and  O_37
REMARK   15  A    between atoms: C_32  and  O_36
REMARK   16  A    between atoms: C_40  and  O_45
REMARK   17  A    between atoms: C_41  and  O_44
REMARK                            x       y       z     vdW  Elec       q    Type
REMARK                         _______ _______ _______ _____ _____    ______ ____
ROOT
ATOM      1  C   UNL     1       4.775  -2.052  26.026  0.00  0.00    +0.221 C 
ATOM      2  C   UNL     1       4.001  -2.159  27.351  0.00  0.00    +0.180 C 
ATOM      3  C   UNL     1       2.900  -1.091  27.423  0.00  0.00    +0.177 C 
ATOM      4  C   UNL     1       3.452   0.316  27.192  0.00  0.00    +0.179 C 
ATOM      5  O   UNL     1       4.129   0.398  25.934  0.00  0.00    -0.331 OA
ATOM      6  C   UNL     1       5.144  -0.578  25.688  0.00  0.00    +0.340 C 
ENDROOT
BRANCH   3   7
ATOM      7  O   UNL     1       2.180  -1.167  28.653  0.00  0.00    -0.386 OA
ATOM      8  H   UNL     1       1.885  -0.268  28.879  0.00  0.00    +0.210 HD
ENDBRANCH   3   7
BRANCH   2   9
ATOM      9  O   UNL     1       4.877  -2.103  28.487  0.00  0.00    -0.386 OA
ATOM     10  H   UNL     1       5.744  -1.745  28.237  0.00  0.00    +0.210 HD
ENDBRANCH   2   9
BRANCH   6  11
ATOM     11  O   UNL     1       6.405  -0.232  26.270  0.00  0.00    -0.453 OA
BRANCH  11  12
ATOM     12  C   UNL     1       7.296   0.492  25.469  0.00  0.00    +0.214 A 
ATOM     13  C   UNL     1       7.333   1.991  25.476  0.00  0.00    +0.238 A 
ATOM     14  O   UNL     1       6.425   2.649  25.969  0.00  0.00    -0.283 OA
ATOM     15  C   UNL     1       8.474   2.642  24.807  0.00  0.00    +0.109 A 
ATOM     16  C   UNL     1       9.326   1.835  24.055  0.00  0.00    +0.147 A 
ATOM     17  C   UNL     1      10.430   2.389  23.396  0.00  0.00    +0.092 A 
ATOM     18  C   UNL     1      10.656   3.757  23.473  0.00  0.00    +0.124 A 
ATOM     19  C   UNL     1       9.802   4.580  24.201  0.00  0.00    +0.091 A 
ATOM     20  O   UNL     1       9.124   0.488  23.885  0.00  0.00    -0.451 OA
ATOM     21  C   UNL     1       8.715   4.022  24.877  0.00  0.00    +0.135 A 
ATOM     22  C   UNL     1       8.136  -0.147  24.627  0.00  0.00    +0.181 A 
BRANCH  22  23
ATOM     23  C   UNL     1       8.143  -1.635  24.451  0.00  0.00    +0.025 A 
ATOM     24  C   UNL     1       8.825  -2.493  25.342  0.00  0.00    +0.015 A 
ATOM     25  C   UNL     1       8.949  -3.862  25.087  0.00  0.00    +0.050 A 
ATOM     26  C   UNL     1       8.344  -4.395  23.965  0.00  0.00    +0.158 A 
ATOM     27  C   UNL     1       7.602  -3.586  23.112  0.00  0.00    +0.159 A 
ATOM     28  C   UNL     1       7.486  -2.218  23.352  0.00  0.00    +0.060 A 
BRANCH  27  29
ATOM     29  O   UNL     1       7.028  -4.180  22.021  0.00  0.00    -0.503 OA
ATOM     30  H   UNL     1       7.587  -4.932  21.761  0.00  0.00    +0.292 HD
ENDBRANCH  27  29
BRANCH  26  31
ATOM     31  O   UNL     1       8.497  -5.722  23.691  0.00  0.00    -0.503 OA
ATOM     32  H   UNL     1       7.593  -6.039  23.492  0.00  0.00    +0.292 HD
ENDBRANCH  26  31
ENDBRANCH  22  23
BRANCH  21  33
ATOM     33  O   UNL     1       7.901   4.851  25.594  0.00  0.00    -0.506 OA
ATOM     34  H   UNL     1       7.590   4.404  26.399  0.00  0.00    +0.292 HD
ENDBRANCH  21  33
BRANCH  18  35
ATOM     35  O   UNL     1      11.709   4.351  22.839  0.00  0.00    -0.507 OA
ATOM     36  H   UNL     1      11.581   4.299  21.878  0.00  0.00    +0.292 HD
ENDBRANCH  18  35
ENDBRANCH  11  12
ENDBRANCH   6  11
BRANCH   4  37
ATOM     37  C   UNL     1       4.303   0.891  28.329  0.00  0.00    +0.190 C 
BRANCH  37  38
ATOM     38  O   UNL     1       4.566   2.282  28.081  0.00  0.00    -0.392 OA
ATOM     39  H   UNL     1       4.843   2.340  27.148  0.00  0.00    +0.210 HD
ENDBRANCH  37  38
ENDBRANCH   4  37
BRANCH   1  40
ATOM     40  O   UNL     1       3.980  -2.675  24.993  0.00  0.00    -0.337 OA
BRANCH  40  44
ATOM     41  C   UNL     1       4.653  -6.445  26.804  0.00  0.00    +0.041 C 
ATOM     42  C   UNL     1       5.313  -6.038  25.484  0.00  0.00    +0.149 C 
ATOM     43  O   UNL     1       5.251  -4.613  25.283  0.00  0.00    -0.343 OA
ATOM     44  C   UNL     1       3.933  -4.111  25.020  0.00  0.00    +0.282 C 
ATOM     45  C   UNL     1       3.363  -4.746  23.728  0.00  0.00    +0.201 C 
ATOM     46  C   UNL     1       3.362  -6.270  23.872  0.00  0.00    +0.179 C 
ATOM     47  C   UNL     1       4.748  -6.793  24.269  0.00  0.00    +0.174 C 
BRANCH  47  48
ATOM     48  O   UNL     1       5.622  -6.625  23.137  0.00  0.00    -0.387 OA
ATOM     49  H   UNL     1       6.235  -5.892  23.373  0.00  0.00    +0.210 HD
ENDBRANCH  47  48
BRANCH  46  50
ATOM     50  O   UNL     1       2.959  -6.849  22.622  0.00  0.00    -0.386 OA
ATOM     51  H   UNL     1       3.634  -7.531  22.423  0.00  0.00    +0.210 HD
ENDBRANCH  46  50
BRANCH  45  52
ATOM     52  O   UNL     1       4.148  -4.361  22.583  0.00  0.00    -0.384 OA
ATOM     53  H   UNL     1       3.507  -4.142  21.881  0.00  0.00    +0.210 HD
ENDBRANCH  45  52
ENDBRANCH  40  44
ENDBRANCH   1  40
TORSDOF 16
ENDMDL
MODEL 2
REMARK VINA RESULT:      -6.8      2.203      9.012
REMARK  Name = 
REMARK  17 active torsions:
REMARK  status: ('A' for Active; 'I' for Inactive)
REMARK    1  A    between atoms: C_1  and  C_2
REMARK    2  A    between atoms: C_3  and  O_48
REMARK    3  A    between atoms: C_5  and  O_47
REMARK    4  A    between atoms: C_6  and  O_46
REMARK    5  A    between atoms: C_8  and  O_11
REMARK    6  A    between atoms: O_11  and  C_12
REMARK    7  A    between atoms: C_13  and  O_24
REMARK    8  A    between atoms: C_16  and  C_22
REMARK    9  A    between atoms: C_17  and  O_21
REMARK   10  A    between atoms: C_19  and  O_20
REMARK   11  A    between atoms: C_22  and  O_23
REMARK   12  A    between atoms: O_24  and  C_25
REMARK   13  A    between atoms: C_26  and  C_38
REMARK   14  A    between atoms: C_30  and  O_37
REMARK   15  A    between atoms: C_32  and  O_36
REMARK   16  A    between atoms: C_40  and  O_45
REMARK   17  A    between atoms: C_41  and  O_44
REMARK                            x       y       z     vdW  Elec       q    Type
REMARK                         _______ _______ _______ _____ _____    ______ ____
ROOT
ATOM      1  C   UNL     1       7.821   1.551  24.056  0.00  0.00    +0.221 C 
ATOM      2  C   UNL     1       9.225   2.152  23.869  0.00  0.00    +0.180 C 
ATOM      3  C   UNL     1       9.613   2.167  22.382  0.00  0.00    +0.177 C 
ATOM      4  C   UNL     1       9.491   0.782  21.745  0.00  0.00    +0.179 C 
ATOM      5  O   UNL     1       8.164   0.266  21.898  0.00  0.00    -0.331 OA
ATOM      6  C   UNL     1       7.632   0.249  23.225  0.00  0.00    +0.340 C 
ENDROOT
BRANCH   3   7
ATOM      7  O   UNL     1      10.919   2.709  22.191  0.00  0.00    -0.386 OA
ATOM      8  H   UNL     1      11.411   2.100  21.613  0.00  0.00    +0.210 HD
ENDBRANCH   3   7
BRANCH   2   9
ATOM      9  O   UNL     1      10.206   1.479  24.672  0.00  0.00    -0.386 OA
ATOM     10  H   UNL     1      10.855   1.022  24.113  0.00  0.00    +0.210 HD
ENDBRANCH   2   9
BRANCH   6  11
ATOM     11  O   UNL     1       8.050  -0.893  23.979  0.00  0.00    -0.453 OA
BRANCH  11  12
ATOM     12  C   UNL     1       7.159  -1.970  24.047  0.00  0.00    +0.214 A 
ATOM     13  C   UNL     1       7.159  -3.067  23.025  0.00  0.00    +0.238 A 
ATOM     14  O   UNL     1       7.745  -2.943  21.956  0.00  0.00    -0.283 OA
ATOM     15  C   UNL     1       6.373  -4.276  23.331  0.00  0.00    +0.109 A 
ATOM     16  C   UNL     1       5.536  -4.236  24.445  0.00  0.00    +0.147 A 
ATOM     17  C   UNL     1       4.764  -5.350  24.793  0.00  0.00    +0.092 A 
ATOM     18  C   UNL     1       4.815  -6.491  24.002  0.00  0.00    +0.124 A 
ATOM     19  C   UNL     1       5.627  -6.539  22.874  0.00  0.00    +0.091 A 
ATOM     20  O   UNL     1       5.391  -3.120  25.231  0.00  0.00    -0.451 OA
ATOM     21  C   UNL     1       6.415  -5.435  22.542  0.00  0.00    +0.135 A 
ATOM     22  C   UNL     1       6.234  -2.034  25.028  0.00  0.00    +0.181 A 
BRANCH  22  23
ATOM     23  C   UNL     1       6.060  -0.963  26.061  0.00  0.00    +0.025 A 
ATOM     24  C   UNL     1       4.904  -0.155  26.120  0.00  0.00    +0.015 A 
ATOM     25  C   UNL     1       4.816   0.935  26.991  0.00  0.00    +0.050 A 
ATOM     26  C   UNL     1       5.865   1.192  27.853  0.00  0.00    +0.158 A 
ATOM     27  C   UNL     1       6.983   0.366  27.871  0.00  0.00    +0.159 A 
ATOM     28  C   UNL     1       7.084  -0.713  26.995  0.00  0.00    +0.060 A 
BRANCH  27  29
ATOM     29  O   UNL     1       7.983   0.679  28.751  0.00  0.00    -0.503 OA
ATOM     30  H   UNL     1       7.878   1.613  29.004  0.00  0.00    +0.292 HD
ENDBRANCH  27  29
BRANCH  26  31
ATOM     31  O   UNL     1       5.800   2.278  28.676  0.00  0.00    -0.503 OA
ATOM     32  H   UNL     1       5.091   2.063  29.313  0.00  0.00    +0.292 HD
ENDBRANCH  26  31
ENDBRANCH  22  23
BRANCH  21  33
ATOM     33  O   UNL     1       7.213  -5.515  21.437  0.00  0.00    -0.506 OA
ATOM     34  H   UNL     1       7.858  -4.788  21.434  0.00  0.00    +0.292 HD
ENDBRANCH  21  33
BRANCH  18  35
ATOM     35  O   UNL     1       4.072  -7.600  24.289  0.00  0.00    -0.507 OA
ATOM     36  H   UNL     1       3.402  -7.379  24.956  0.00  0.00    +0.292 HD
ENDBRANCH  18  35
ENDBRANCH  11  12
ENDBRANCH   6  11
BRANCH   4  37
ATOM     37  C   UNL     1      10.547  -0.242  22.174  0.00  0.00    +0.190 C 
BRANCH  37  38
ATOM     38  O   UNL     1      10.194  -1.541  21.670  0.00  0.00    -0.392 OA
ATOM     39  H   UNL     1      10.849  -2.160  22.042  0.00  0.00    +0.210 HD
ENDBRANCH  37  38
ENDBRANCH   4  37
BRANCH   1  40
ATOM     40  O   UNL     1       6.852   2.568  23.721  0.00  0.00    -0.337 OA
BRANCH  40  44
ATOM     41  C   UNL     1       9.061   5.904  25.114  0.00  0.00    +0.041 C 
ATOM     42  C   UNL     1       7.555   5.970  24.845  0.00  0.00    +0.149 C 
ATOM     43  O   UNL     1       6.977   4.653  24.767  0.00  0.00    -0.343 OA
ATOM     44  C   UNL     1       7.364   3.906  23.605  0.00  0.00    +0.282 C 
ATOM     45  C   UNL     1       6.916   4.641  22.318  0.00  0.00    +0.201 C 
ATOM     46  C   UNL     1       7.518   6.049  22.305  0.00  0.00    +0.179 C 
ATOM     47  C   UNL     1       7.201   6.804  23.601  0.00  0.00    +0.174 C 
BRANCH  47  48
ATOM     48  O   UNL     1       5.794   7.108  23.600  0.00  0.00    -0.387 OA
ATOM     49  H   UNL     1       5.567   7.345  22.672  0.00  0.00    +0.210 HD
ENDBRANCH  47  48
BRANCH  46  50
ATOM     50  O   UNL     1       6.988   6.764  21.178  0.00  0.00    -0.386 OA
ATOM     51  H   UNL     1       7.619   6.598  20.447  0.00  0.00    +0.210 HD
ENDBRANCH  46  50
BRANCH  45  52
ATOM     52  O   UNL     1       5.478   4.722  22.253  0.00  0.00    -0.384 OA
ATOM     53  H   UNL     1       5.279   5.499  21.698  0.00  0.00    +0.210 HD
ENDBRANCH  45  52
ENDBRANCH  40  44
ENDBRANCH   1  40
TORSDOF 16
ENDMDL
MODEL 3
REMARK VINA RESULT:      -6.6      2.002      7.126
REMARK  Name = 
REMARK  17 active torsions:
REMARK  status: ('A' for Active; 'I' for Inactive)
REMARK    1  A    between atoms: C_1  and  C_2
REMARK    2  A    between atoms: C_3  and  O_48
REMARK    3  A    between atoms: C_5  and  O_47
REMARK    4  A    between atoms: C_6  and  O_46
REMARK    5  A    between atoms: C_8  and  O_11
REMARK    6  A    between atoms: O_11  and  C_12
REMARK    7  A    between atoms: C_13  and  O_24
REMARK    8  A    between atoms: C_16  and  C_22
REMARK    9  A    between atoms: C_17  and  O_21
REMARK   10  A    between atoms: C_19  and  O_20
REMARK   11  A    between atoms: C_22  and  O_23
REMARK   12  A    between atoms: O_24  and  C_25
REMARK   13  A    between atoms: C_26  and  C_38
REMARK   14  A    between atoms: C_30  and  O_37
REMARK   15  A    between atoms: C_32  and  O_36
REMARK   16  A    between atoms: C_40  and  O_45
REMARK   17  A    between atoms: C_41  and  O_44
REMARK                            x       y       z     vdW  Elec       q    Type
REMARK                         _______ _______ _______ _____ _____    ______ ____
ROOT
ATOM      1  C   UNL     1       7.751  -2.781  23.343  0.00  0.00    +0.221 C 
ATOM      2  C   UNL     1       7.877  -4.160  22.673  0.00  0.00    +0.180 C 
ATOM      3  C   UNL     1       6.556  -4.556  21.995  0.00  0.00    +0.177 C 
ATOM      4  C   UNL     1       5.376  -4.493  22.965  0.00  0.00    +0.179 C 
ATOM      5  O   UNL     1       5.257  -3.188  23.540  0.00  0.00    -0.331 OA
ATOM      6  C   UNL     1       6.430  -2.649  24.154  0.00  0.00    +0.340 C 
ENDROOT
BRANCH   3   7
ATOM      7  O   UNL     1       6.651  -5.840  21.380  0.00  0.00    -0.386 OA
ATOM      8  H   UNL     1       7.574  -6.139  21.459  0.00  0.00    +0.210 HD
ENDBRANCH   3   7
BRANCH   2   9
ATOM      9  O   UNL     1       8.327  -5.163  23.596  0.00  0.00    -0.386 OA
ATOM     10  H   UNL     1       7.761  -5.186  24.383  0.00  0.00    +0.210 HD
ENDBRANCH   2   9
BRANCH   6  11
ATOM     11  O   UNL     1       6.619  -3.109  25.496  0.00  0.00    -0.453 OA
BRANCH  11  12
ATOM     12  C   UNL     1       6.150  -2.280  26.523  0.00  0.00    +0.214 A 
ATOM     13  C   UNL     1       6.755  -0.937  26.798  0.00  0.00    +0.238 A 
ATOM     14  O   UNL     1       7.839  -0.616  26.325  0.00  0.00    -0.283 OA
ATOM     15  C   UNL     1       6.026  -0.041  27.714  0.00  0.00    +0.109 A 
ATOM     16  C   UNL     1       4.938  -0.573  28.405  0.00  0.00    +0.147 A 
ATOM     17  C   UNL     1       4.200   0.224  29.287  0.00  0.00    +0.092 A 
ATOM     18  C   UNL     1       4.577   1.545  29.494  0.00  0.00    +0.124 A 
ATOM     19  C   UNL     1       5.674   2.084  28.830  0.00  0.00    +0.091 A 
ATOM     20  O   UNL     1       4.552  -1.886  28.295  0.00  0.00    -0.451 OA
ATOM     21  C   UNL     1       6.394   1.295  27.931  0.00  0.00    +0.135 A 
ATOM     22  C   UNL     1       5.149  -2.688  27.330  0.00  0.00    +0.181 A 
BRANCH  22  23
ATOM     23  C   UNL     1       4.513  -4.041  27.228  0.00  0.00    +0.025 A 
ATOM     24  C   UNL     1       3.231  -4.229  26.667  0.00  0.00    +0.015 A 
ATOM     25  C   UNL     1       2.587  -5.469  26.709  0.00  0.00    +0.050 A 
ATOM     26  C   UNL     1       3.247  -6.549  27.266  0.00  0.00    +0.158 A 
ATOM     27  C   UNL     1       4.540  -6.411  27.756  0.00  0.00    +0.159 A 
ATOM     28  C   UNL     1       5.182  -5.174  27.730  0.00  0.00    +0.060 A 
BRANCH  27  29
ATOM     29  O   UNL     1       5.133  -7.521  28.291  0.00  0.00    -0.503 OA
ATOM     30  H   UNL     1       4.952  -8.272  27.699  0.00  0.00    +0.292 HD
ENDBRANCH  27  29
BRANCH  26  31
ATOM     31  O   UNL     1       2.607  -7.751  27.347  0.00  0.00    -0.503 OA
ATOM     32  H   UNL     1       3.327  -8.408  27.433  0.00  0.00    +0.292 HD
ENDBRANCH  26  31
ENDBRANCH  22  23
BRANCH  21  33
ATOM     33  O   UNL     1       7.458   1.854  27.283  0.00  0.00    -0.506 OA
ATOM     34  H   UNL     1       7.179   2.651  26.803  0.00  0.00    +0.292 HD
ENDBRANCH  21  33
BRANCH  18  35
ATOM     35  O   UNL     1       3.900   2.362  30.354  0.00  0.00    -0.507 OA
ATOM     36  H   UNL     1       2.964   2.400  30.096  0.00  0.00    +0.292 HD
ENDBRANCH  18  35
ENDBRANCH  11  12
ENDBRANCH   6  11
BRANCH   4  37
ATOM     37  C   UNL     1       5.337  -5.588  24.037  0.00  0.00    +0.190 C 
BRANCH  37  38
ATOM     38  O   UNL     1       4.879  -6.819  23.455  0.00  0.00    -0.392 OA
ATOM     39  H   UNL     1       4.009  -6.622  23.061  0.00  0.00    +0.210 HD
ENDBRANCH  37  38
ENDBRANCH   4  37
BRANCH   1  40
ATOM     40  O   UNL     1       7.872  -1.773  22.315  0.00  0.00    -0.337 OA
BRANCH  40  44
ATOM     41  C   UNL     1       6.629   2.221  22.989  0.00  0.00    +0.041 C 
ATOM     42  C   UNL     1       7.813   1.870  22.083  0.00  0.00    +0.149 C 
ATOM     43  O   UNL     1       7.792   0.481  21.705  0.00  0.00    -0.343 OA
ATOM     44  C   UNL     1       8.076  -0.427  22.779  0.00  0.00    +0.282 C 
ATOM     45  C   UNL     1       9.492  -0.165  23.346  0.00  0.00    +0.201 C 
ATOM     46  C   UNL     1       9.590   1.292  23.805  0.00  0.00    +0.179 C 
ATOM     47  C   UNL     1       9.172   2.258  22.690  0.00  0.00    +0.174 C 
BRANCH  47  48
ATOM     48  O   UNL     1      10.191   2.222  21.673  0.00  0.00    -0.387 OA
ATOM     49  H   UNL     1      10.871   1.587  21.991  0.00  0.00    +0.210 HD
ENDBRANCH  47  48
BRANCH  46  50
ATOM     50  O   UNL     1      10.944   1.558  24.203  0.00  0.00    -0.386 OA
ATOM     51  H   UNL     1      11.431   1.720  23.368  0.00  0.00    +0.210 HD
ENDBRANCH  46  50
BRANCH  45  52
ATOM     52  O   UNL     1      10.497  -0.434  22.349  0.00  0.00    -0.384 OA
ATOM     53  H   UNL     1      10.375  -1.367  22.091  0.00  0.00    +0.210 HD
ENDBRANCH  45  52
ENDBRANCH  40  44
ENDBRANCH   1  40
TORSDOF 16
ENDMDL
MODEL 4
REMARK VINA RESULT:      -6.5      2.233      7.114
REMARK  Name = 
REMARK  17 active torsions:
REMARK  status: ('A' for Active; 'I' for Inactive)
REMARK    1  A    between atoms: C_1  and  C_2
REMARK    2  A    between atoms: C_3  and  O_48
REMARK    3  A    between atoms: C_5  and  O_47
REMARK    4  A    between atoms: C_6  and  O_46
REMARK    5  A    between atoms: C_8  and  O_11
REMARK    6  A    between atoms: O_11  and  C_12
REMARK    7  A    between atoms: C_13  and  O_24
REMARK    8  A    between atoms: C_16  and  C_22
REMARK    9  A    between atoms: C_17  and  O_21
REMARK   10  A    between atoms: C_19  and  O_20
REMARK   11  A    between atoms: C_22  and  O_23
REMARK   12  A    between atoms: O_24  and  C_25
REMARK   13  A    between atoms: C_26  and  C_38
REMARK   14  A    between atoms: C_30  and  O_37
REMARK   15  A    between atoms: C_32  and  O_36
REMARK   16  A    between atoms: C_40  and  O_45
REMARK   17  A    between atoms: C_41  and  O_44
REMARK                            x       y       z     vdW  Elec       q    Type
REMARK                         _______ _______ _______ _____ _____    ______ ____
ROOT
ATOM      1  C   UNL     1       5.356   0.305  25.872  0.00  0.00    +0.221 C 
ATOM      2  C   UNL     1       4.524   0.315  27.166  0.00  0.00    +0.180 C 
ATOM      3  C   UNL     1       4.819   1.577  27.990  0.00  0.00    +0.177 C 
ATOM      4  C   UNL     1       6.313   1.744  28.266  0.00  0.00    +0.179 C 
ATOM      5  O   UNL     1       7.057   1.775  27.043  0.00  0.00    -0.331 OA
ATOM      6  C   UNL     1       6.840   0.694  26.134  0.00  0.00    +0.340 C 
ENDROOT
BRANCH   3   7
ATOM      7  O   UNL     1       4.065   1.596  29.201  0.00  0.00    -0.386 OA
ATOM      8  H   UNL     1       3.684   2.486  29.299  0.00  0.00    +0.210 HD
ENDBRANCH   3   7
BRANCH   2   9
ATOM      9  O   UNL     1       4.718  -0.883  27.933  0.00  0.00    -0.386 OA
ATOM     10  H   UNL     1       3.885  -1.171  28.339  0.00  0.00    +0.210 HD
ENDBRANCH   2   9
BRANCH   6  11
ATOM     11  O   UNL     1       7.613  -0.468  26.452  0.00  0.00    -0.453 OA
BRANCH  11  12
ATOM     12  C   UNL     1       7.538  -1.544  25.560  0.00  0.00    +0.214 A 
ATOM     13  C   UNL     1       6.822  -2.815  25.907  0.00  0.00    +0.238 A 
ATOM     14  O   UNL     1       6.504  -3.073  27.061  0.00  0.00    -0.283 OA
ATOM     15  C   UNL     1       6.575  -3.771  24.812  0.00  0.00    +0.109 A 
ATOM     16  C   UNL     1       7.187  -3.520  23.586  0.00  0.00    +0.147 A 
ATOM     17  C   UNL     1       6.991  -4.386  22.505  0.00  0.00    +0.092 A 
ATOM     18  C   UNL     1       6.203  -5.518  22.670  0.00  0.00    +0.124 A 
ATOM     19  C   UNL     1       5.604  -5.795  23.894  0.00  0.00    +0.091 A 
ATOM     20  O   UNL     1       8.029  -2.456  23.374  0.00  0.00    -0.451 OA
ATOM     21  C   UNL     1       5.780  -4.917  24.964  0.00  0.00    +0.135 A 
ATOM     22  C   UNL     1       8.148  -1.482  24.358  0.00  0.00    +0.181 A 
BRANCH  22  23
ATOM     23  C   UNL     1       8.973  -0.311  23.918  0.00  0.00    +0.025 A 
ATOM     24  C   UNL     1      10.119   0.110  24.627  0.00  0.00    +0.015 A 
ATOM     25  C   UNL     1      10.794   1.288  24.293  0.00  0.00    +0.050 A 
ATOM     26  C   UNL     1      10.360   2.027  23.209  0.00  0.00    +0.158 A 
ATOM     27  C   UNL     1       9.281   1.595  22.446  0.00  0.00    +0.159 A 
ATOM     28  C   UNL     1       8.595   0.429  22.782  0.00  0.00    +0.060 A 
BRANCH  27  29
ATOM     29  O   UNL     1       8.907   2.375  21.386  0.00  0.00    -0.503 OA
ATOM     30  H   UNL     1       8.859   1.806  20.598  0.00  0.00    +0.292 HD
ENDBRANCH  27  29
BRANCH  26  31
ATOM     31  O   UNL     1      10.990   3.198  22.905  0.00  0.00    -0.503 OA
ATOM     32  H   UNL     1      10.838   3.318  21.946  0.00  0.00    +0.292 HD
ENDBRANCH  26  31
ENDBRANCH  22  23
BRANCH  21  33
ATOM     33  O   UNL     1       5.169  -5.207  26.151  0.00  0.00    -0.506 OA
ATOM     34  H   UNL     1       5.474  -4.599  26.844  0.00  0.00    +0.292 HD
ENDBRANCH  21  33
BRANCH  18  35
ATOM     35  O   UNL     1       5.991  -6.403  21.652  0.00  0.00    -0.507 OA
ATOM     36  H   UNL     1       5.309  -6.054  21.055  0.00  0.00    +0.292 HD
ENDBRANCH  18  35
ENDBRANCH  11  12
ENDBRANCH   6  11
BRANCH   4  37
ATOM     37  C   UNL     1       6.918   0.757  29.269  0.00  0.00    +0.190 C 
BRANCH  37  38
ATOM     38  O   UNL     1       8.353   0.812  29.198  0.00  0.00    -0.392 OA
ATOM     39  H   UNL     1       8.656   1.060  30.091  0.00  0.00    +0.210 HD
ENDBRANCH  37  38
ENDBRANCH   4  37
BRANCH   1  40
ATOM     40  O   UNL     1       4.713   1.184  24.922  0.00  0.00    -0.337 OA
BRANCH  40  44
ATOM     41  C   UNL     1       6.229   4.929  26.199  0.00  0.00    +0.041 C 
ATOM     42  C   UNL     1       5.110   4.806  25.160  0.00  0.00    +0.149 C 
ATOM     43  O   UNL     1       4.511   3.496  25.186  0.00  0.00    -0.343 OA
ATOM     44  C   UNL     1       5.361   2.448  24.701  0.00  0.00    +0.282 C 
ATOM     45  C   UNL     1       5.746   2.708  23.224  0.00  0.00    +0.201 C 
ATOM     46  C   UNL     1       6.425   4.075  23.112  0.00  0.00    +0.179 C 
ATOM     47  C   UNL     1       5.564   5.178  23.738  0.00  0.00    +0.174 C 
BRANCH  47  48
ATOM     48  O   UNL     1       4.414   5.372  22.893  0.00  0.00    -0.387 OA
ATOM     49  H   UNL     1       4.683   5.074  21.995  0.00  0.00    +0.210 HD
ENDBRANCH  47  48
BRANCH  46  50
ATOM     50  O   UNL     1       6.655   4.361  21.724  0.00  0.00    -0.386 OA
ATOM     51  H   UNL     1       5.882   4.892  21.438  0.00  0.00    +0.210 HD
ENDBRANCH  46  50
BRANCH  45  52
ATOM     52  O   UNL     1       4.580   2.668  22.380  0.00  0.00    -0.384 OA
ATOM     53  H   UNL     1       4.284   3.593  22.287  0.00  0.00    +0.210 HD
ENDBRANCH  45  52
ENDBRANCH  40  44
ENDBRANCH   1  40
TORSDOF 16
ENDMDL
MODEL 5
REMARK VINA RESULT:      -6.3      2.753      8.709
REMARK  Name = 
REMARK  17 active torsions:
REMARK  status: ('A' for Active; 'I' for Inactive)
REMARK    1  A    between atoms: C_1  and  C_2
REMARK    2  A    between atoms: C_3  and  O_48
REMARK    3  A    between atoms: C_5  and  O_47
REMARK    4  A    between atoms: C_6  and  O_46
REMARK    5  A    between atoms: C_8  and  O_11
REMARK    6  A    between atoms: O_11  and  C_12
REMARK    7  A    between atoms: C_13  and  O_24
REMARK    8  A    between atoms: C_16  and  C_22
REMARK    9  A    between atoms: C_17  and  O_21
REMARK   10  A    between atoms: C_19  and  O_20
REMARK   11  A    between atoms: C_22  and  O_23
REMARK   12  A    between atoms: O_24  and  C_25
REMARK   13  A    between atoms: C_26  and  C_38
REMARK   14  A    between atoms: C_30  and  O_37
REMARK   15  A    between atoms: C_32  and  O_36
REMARK   16  A    between atoms: C_40  and  O_45
REMARK   17  A    between atoms: C_41  and  O_44
REMARK                            x       y       z     vdW  Elec       q    Type
REMARK                         _______ _______ _______ _____ _____    ______ ____
ROOT
ATOM      1  C   UNL     1       7.239   1.543  23.397  0.00  0.00    +0.221 C 
ATOM      2  C   UNL     1       8.543   2.256  23.795  0.00  0.00    +0.180 C 
ATOM      3  C   UNL     1       9.617   2.063  22.714  0.00  0.00    +0.177 C 
ATOM      4  C   UNL     1       9.845   0.586  22.391  0.00  0.00    +0.179 C 
ATOM      5  O   UNL     1       8.624  -0.041  21.983  0.00  0.00    -0.331 OA
ATOM      6  C   UNL     1       7.504   0.107  22.859  0.00  0.00    +0.340 C 
ENDROOT
BRANCH   3   7
ATOM      7  O   UNL     1      10.839   2.707  23.073  0.00  0.00    -0.386 OA
ATOM      8  H   UNL     1      11.501   2.014  23.239  0.00  0.00    +0.210 HD
ENDBRANCH   3   7
BRANCH   2   9
ATOM      9  O   UNL     1       9.005   1.841  25.089  0.00  0.00    -0.386 OA
ATOM     10  H   UNL     1       9.731   2.407  25.395  0.00  0.00    +0.210 HD
ENDBRANCH   2   9
BRANCH   6  11
ATOM     11  O   UNL     1       7.507  -0.837  23.934  0.00  0.00    -0.453 OA
BRANCH  11  12
ATOM     12  C   UNL     1       6.333  -1.572  24.137  0.00  0.00    +0.214 A 
ATOM     13  C   UNL     1       5.926  -2.688  23.222  0.00  0.00    +0.238 A 
ATOM     14  O   UNL     1       6.448  -2.835  22.124  0.00  0.00    -0.283 OA
ATOM     15  C   UNL     1       4.826  -3.562  23.670  0.00  0.00    +0.109 A 
ATOM     16  C   UNL     1       4.120  -3.178  24.808  0.00  0.00    +0.147 A 
ATOM     17  C   UNL     1       3.067  -3.964  25.289  0.00  0.00    +0.092 A 
ATOM     18  C   UNL     1       2.709  -5.119  24.605  0.00  0.00    +0.124 A 
ATOM     19  C   UNL     1       3.389  -5.504  23.455  0.00  0.00    +0.091 A 
ATOM     20  O   UNL     1       4.379  -2.016  25.493  0.00  0.00    -0.451 OA
ATOM     21  C   UNL     1       4.455  -4.732  22.991  0.00  0.00    +0.135 A 
ATOM     22  C   UNL     1       5.501  -1.269  25.156  0.00  0.00    +0.181 A 
BRANCH  22  23
ATOM     23  C   UNL     1       5.737  -0.123  26.092  0.00  0.00    +0.025 A 
ATOM     24  C   UNL     1       5.022   1.090  25.990  0.00  0.00    +0.015 A 
ATOM     25  C   UNL     1       5.351   2.202  26.771  0.00  0.00    +0.050 A 
ATOM     26  C   UNL     1       6.366   2.091  27.703  0.00  0.00    +0.158 A 
ATOM     27  C   UNL     1       7.035   0.886  27.879  0.00  0.00    +0.159 A 
ATOM     28  C   UNL     1       6.722  -0.222  27.093  0.00  0.00    +0.060 A 
BRANCH  27  29
ATOM     29  O   UNL     1       8.027   0.847  28.820  0.00  0.00    -0.503 OA
ATOM     30  H   UNL     1       8.830   0.498  28.395  0.00  0.00    +0.292 HD
ENDBRANCH  27  29
BRANCH  26  31
ATOM     31  O   UNL     1       6.718   3.185  28.439  0.00  0.00    -0.503 OA
ATOM     32  H   UNL     1       7.133   3.792  27.795  0.00  0.00    +0.292 HD
ENDBRANCH  26  31
ENDBRANCH  22  23
BRANCH  21  33
ATOM     33  O   UNL     1       5.114  -5.141  21.866  0.00  0.00    -0.506 OA
ATOM     34  H   UNL     1       4.478  -5.390  21.175  0.00  0.00    +0.292 HD
ENDBRANCH  21  33
BRANCH  18  35
ATOM     35  O   UNL     1       1.681  -5.915  25.023  0.00  0.00    -0.507 OA
ATOM     36  H   UNL     1       0.839  -5.445  24.907  0.00  0.00    +0.292 HD
ENDBRANCH  18  35
ENDBRANCH  11  12
ENDBRANCH   6  11
BRANCH   4  37
ATOM     37  C   UNL     1      10.562  -0.228  23.473  0.00  0.00    +0.190 C 
BRANCH  37  38
ATOM     38  O   UNL     1      10.347  -1.631  23.246  0.00  0.00    -0.392 OA
ATOM     39  H   UNL     1      10.866  -2.095  23.929  0.00  0.00    +0.210 HD
ENDBRANCH  37  38
ENDBRANCH   4  37
BRANCH   1  40
ATOM     40  O   UNL     1       6.550   2.376  22.438  0.00  0.00    -0.337 OA
BRANCH  40  44
ATOM     41  C   UNL     1       2.730   3.346  23.992  0.00  0.00    +0.041 C 
ATOM     42  C   UNL     1       3.284   3.983  22.714  0.00  0.00    +0.149 C 
ATOM     43  O   UNL     1       4.389   3.226  22.186  0.00  0.00    -0.343 OA
ATOM     44  C   UNL     1       5.581   3.287  22.982  0.00  0.00    +0.282 C 
ATOM     45  C   UNL     1       6.082   4.748  23.089  0.00  0.00    +0.201 C 
ATOM     46  C   UNL     1       4.971   5.621  23.678  0.00  0.00    +0.179 C 
ATOM     47  C   UNL     1       3.663   5.463  22.894  0.00  0.00    +0.174 C 
BRANCH  47  48
ATOM     48  O   UNL     1       3.845   6.082  21.606  0.00  0.00    -0.387 OA
ATOM     49  H   UNL     1       3.938   7.046  21.777  0.00  0.00    +0.210 HD
ENDBRANCH  47  48
BRANCH  46  50
ATOM     50  O   UNL     1       5.399   6.991  23.647  0.00  0.00    -0.386 OA
ATOM     51  H   UNL     1       5.937   7.075  22.833  0.00  0.00    +0.210 HD
ENDBRANCH  46  50
BRANCH  45  52
ATOM     52  O   UNL     1       6.467   5.250  21.795  0.00  0.00    -0.384 OA
ATOM     53  H   UNL     1       6.354   6.218  21.839  0.00  0.00    +0.210 HD
ENDBRANCH  45  52
ENDBRANCH  40  44
ENDBRANCH   1  40
TORSDOF 16
ENDMDL
MODEL 6
REMARK VINA RESULT:      -6.3      2.201      7.679
REMARK  Name = 
REMARK  17 active torsions:
REMARK  status: ('A' for Active; 'I' for Inactive)
REMARK    1  A    between atoms: C_1  and  C_2
REMARK    2  A    between atoms: C_3  and  O_48
REMARK    3  A    between atoms: C_5  and  O_47
REMARK    4  A    between atoms: C_6  and  O_46
REMARK    5  A    between atoms: C_8  and  O_11
REMARK    6  A    between atoms: O_11  and  C_12
REMARK    7  A    between atoms: C_13  and  O_24
REMARK    8  A    between atoms: C_16  and  C_22
REMARK    9  A    between atoms: C_17  and  O_21
REMARK   10  A    between atoms: C_19  and  O_20
REMARK   11  A    between atoms: C_22  and  O_23
REMARK   12  A    between atoms: O_24  and  C_25
REMARK   13  A    between atoms: C_26  and  C_38
REMARK   14  A    between atoms: C_30  and  O_37
REMARK   15  A    between atoms: C_32  and  O_36
REMARK   16  A    between atoms: C_40  and  O_45
REMARK   17  A    between atoms: C_41  and  O_44
REMARK                            x       y       z     vdW  Elec       q    Type
REMARK                         _______ _______ _______ _____ _____    ______ ____
ROOT
ATOM      1  C   UNL     1       8.727   0.994  23.446  0.00  0.00    +0.221 C 
ATOM      2  C   UNL     1       9.959   0.105  23.203  0.00  0.00    +0.180 C 
ATOM      3  C   UNL     1       9.614  -1.054  22.256  0.00  0.00    +0.177 C 
ATOM      4  C   UNL     1       8.412  -1.859  22.752  0.00  0.00    +0.179 C 
ATOM      5  O   UNL     1       7.270  -1.015  22.927  0.00  0.00    -0.331 OA
ATOM      6  C   UNL     1       7.451   0.150  23.736  0.00  0.00    +0.340 C 
ENDROOT
BRANCH   3   7
ATOM      7  O   UNL     1      10.742  -1.896  22.030  0.00  0.00    -0.386 OA
ATOM      8  H   UNL     1      10.942  -2.354  22.866  0.00  0.00    +0.210 HD
ENDBRANCH   3   7
BRANCH   2   9
ATOM      9  O   UNL     1      10.530  -0.362  24.434  0.00  0.00    -0.386 OA
ATOM     10  H   UNL     1       9.937  -0.181  25.181  0.00  0.00    +0.210 HD
ENDBRANCH   2   9
BRANCH   6  11
ATOM     11  O   UNL     1       7.337  -0.119  25.137  0.00  0.00    -0.453 OA
BRANCH  11  12
ATOM     12  C   UNL     1       6.129   0.228  25.753  0.00  0.00    +0.214 A 
ATOM     13  C   UNL     1       5.769   1.653  26.050  0.00  0.00    +0.238 A 
ATOM     14  O   UNL     1       6.609   2.544  26.013  0.00  0.00    -0.283 OA
ATOM     15  C   UNL     1       4.378   1.929  26.450  0.00  0.00    +0.109 A 
ATOM     16  C   UNL     1       3.553   0.837  26.713  0.00  0.00    +0.147 A 
ATOM     17  C   UNL     1       2.221   1.028  27.095  0.00  0.00    +0.092 A 
ATOM     18  C   UNL     1       1.731   2.320  27.240  0.00  0.00    +0.124 A 
ATOM     19  C   UNL     1       2.547   3.421  27.005  0.00  0.00    +0.091 A 
ATOM     20  O   UNL     1       3.992  -0.463  26.651  0.00  0.00    -0.451 OA
ATOM     21  C   UNL     1       3.869   3.228  26.600  0.00  0.00    +0.135 A 
ATOM     22  C   UNL     1       5.256  -0.727  26.138  0.00  0.00    +0.181 A 
BRANCH  22  23
ATOM     23  C   UNL     1       5.526  -2.193  25.986  0.00  0.00    +0.025 A 
ATOM     24  C   UNL     1       5.007  -2.946  24.910  0.00  0.00    +0.015 A 
ATOM     25  C   UNL     1       5.141  -4.336  24.858  0.00  0.00    +0.050 A 
ATOM     26  C   UNL     1       5.847  -4.981  25.856  0.00  0.00    +0.158 A 
ATOM     27  C   UNL     1       6.436  -4.256  26.886  0.00  0.00    +0.159 A 
ATOM     28  C   UNL     1       6.293  -2.871  26.953  0.00  0.00    +0.060 A 
BRANCH  27  29
ATOM     29  O   UNL     1       7.121  -4.959  27.839  0.00  0.00    -0.503 OA
ATOM     30  H   UNL     1       7.478  -5.761  27.420  0.00  0.00    +0.292 HD
ENDBRANCH  27  29
BRANCH  26  31
ATOM     31  O   UNL     1       5.946  -6.341  25.831  0.00  0.00    -0.503 OA
ATOM     32  H   UNL     1       6.858  -6.528  26.130  0.00  0.00    +0.292 HD
ENDBRANCH  26  31
ENDBRANCH  22  23
BRANCH  21  33
ATOM     33  O   UNL     1       4.644   4.327  26.363  0.00  0.00    -0.506 OA
ATOM     34  H   UNL     1       4.521   4.636  25.450  0.00  0.00    +0.292 HD
ENDBRANCH  21  33
BRANCH  18  35
ATOM     35  O   UNL     1       0.443   2.564  27.624  0.00  0.00    -0.507 OA
ATOM     36  H   UNL     1      -0.029   1.721  27.728  0.00  0.00    +0.292 HD
ENDBRANCH  18  35
ENDBRANCH  11  12
ENDBRANCH   6  11
BRANCH   4  37
ATOM     37  C   UNL     1       8.662  -2.734  23.985  0.00  0.00    +0.190 C 
BRANCH  37  38
ATOM     38  O   UNL     1      10.005  -3.245  23.952  0.00  0.00    -0.392 OA
ATOM     39  H   UNL     1       9.998  -3.974  23.304  0.00  0.00    +0.210 HD
ENDBRANCH  37  38
ENDBRANCH   4  37
BRANCH   1  40
ATOM     40  O   UNL     1       8.569   1.859  22.300  0.00  0.00    -0.337 OA
BRANCH  40  44
ATOM     41  C   UNL     1      10.305   5.450  23.730  0.00  0.00    +0.041 C 
ATOM     42  C   UNL     1       9.033   4.853  24.338  0.00  0.00    +0.149 C 
ATOM     43  O   UNL     1       8.869   3.472  23.963  0.00  0.00    -0.343 OA
ATOM     44  C   UNL     1       8.552   3.270  22.579  0.00  0.00    +0.282 C 
ATOM     45  C   UNL     1       7.216   3.965  22.224  0.00  0.00    +0.201 C 
ATOM     46  C   UNL     1       7.316   5.455  22.563  0.00  0.00    +0.179 C 
ATOM     47  C   UNL     1       7.769   5.668  24.012  0.00  0.00    +0.174 C 
BRANCH  47  48
ATOM     48  O   UNL     1       6.689   5.263  24.875  0.00  0.00    -0.387 OA
ATOM     49  H   UNL     1       6.035   4.809  24.297  0.00  0.00    +0.210 HD
ENDBRANCH  47  48
BRANCH  46  50
ATOM     50  O   UNL     1       6.031   6.060  22.357  0.00  0.00    -0.386 OA
ATOM     51  H   UNL     1       5.888   6.635  23.138  0.00  0.00    +0.210 HD
ENDBRANCH  46  50
BRANCH  45  52
ATOM     52  O   UNL     1       6.124   3.369  22.952  0.00  0.00    -0.384 OA
ATOM     53  H   UNL     1       6.225   3.664  23.876  0.00  0.00    +0.210 HD
ENDBRANCH  45  52
ENDBRANCH  40  44
ENDBRANCH   1  40
TORSDOF 16
ENDMDL
MODEL 7
REMARK VINA RESULT:      -6.2      1.842      5.342
REMARK  Name = 
REMARK  17 active torsions:
REMARK  status: ('A' for Active; 'I' for Inactive)
REMARK    1  A    between atoms: C_1  and  C_2
REMARK    2  A    between atoms: C_3  and  O_48
REMARK    3  A    between atoms: C_5  and  O_47
REMARK    4  A    between atoms: C_6  and  O_46
REMARK    5  A    between atoms: C_8  and  O_11
REMARK    6  A    between atoms: O_11  and  C_12
REMARK    7  A    between atoms: C_13  and  O_24
REMARK    8  A    between atoms: C_16  and  C_22
REMARK    9  A    between atoms: C_17  and  O_21
REMARK   10  A    between atoms: C_19  and  O_20
REMARK   11  A    between atoms: C_22  and  O_23
REMARK   12  A    between atoms: O_24  and  C_25
REMARK   13  A    between atoms: C_26  and  C_38
REMARK   14  A    between atoms: C_30  and  O_37
REMARK   15  A    between atoms: C_32  and  O_36
REMARK   16  A    between atoms: C_40  and  O_45
REMARK   17  A    between atoms: C_41  and  O_44
REMARK                            x       y       z     vdW  Elec       q    Type
REMARK                         _______ _______ _______ _____ _____    ______ ____
ROOT
ATOM      1  C   UNL     1       4.525  -0.555  27.436  0.00  0.00    +0.221 C 
ATOM      2  C   UNL     1       3.247  -1.409  27.503  0.00  0.00    +0.180 C 
ATOM      3  C   UNL     1       3.597  -2.901  27.608  0.00  0.00    +0.177 C 
ATOM      4  C   UNL     1       4.531  -3.350  26.483  0.00  0.00    +0.179 C 
ATOM      5  O   UNL     1       5.729  -2.567  26.472  0.00  0.00    -0.331 OA
ATOM      6  C   UNL     1       5.567  -1.147  26.443  0.00  0.00    +0.340 C 
ENDROOT
BRANCH   3   7
ATOM      7  O   UNL     1       2.423  -3.709  27.658  0.00  0.00    -0.386 OA
ATOM      8  H   UNL     1       2.556  -4.462  27.056  0.00  0.00    +0.210 HD
ENDBRANCH   3   7
BRANCH   2   9
ATOM      9  O   UNL     1       2.369  -1.142  26.400  0.00  0.00    -0.386 OA
ATOM     10  H   UNL     1       1.932  -0.281  26.506  0.00  0.00    +0.210 HD
ENDBRANCH   2   9
BRANCH   6  11
ATOM     11  O   UNL     1       5.346  -0.638  25.123  0.00  0.00    -0.453 OA
BRANCH  11  12
ATOM     12  C   UNL     1       6.396   0.079  24.537  0.00  0.00    +0.214 A 
ATOM     13  C   UNL     1       6.532   1.563  24.697  0.00  0.00    +0.238 A 
ATOM     14  O   UNL     1       5.605   2.247  25.115  0.00  0.00    -0.283 OA
ATOM     15  C   UNL     1       7.802   2.176  24.269  0.00  0.00    +0.109 A 
ATOM     16  C   UNL     1       8.704   1.372  23.573  0.00  0.00    +0.147 A 
ATOM     17  C   UNL     1       9.930   1.890  23.141  0.00  0.00    +0.092 A 
ATOM     18  C   UNL     1      10.232   3.224  23.385  0.00  0.00    +0.124 A 
ATOM     19  C   UNL     1       9.334   4.045  24.058  0.00  0.00    +0.091 A 
ATOM     20  O   UNL     1       8.440   0.066  23.243  0.00  0.00    -0.451 OA
ATOM     21  C   UNL     1       8.122   3.521  24.510  0.00  0.00    +0.135 A 
ATOM     22  C   UNL     1       7.309  -0.550  23.767  0.00  0.00    +0.181 A 
BRANCH  22  23
ATOM     23  C   UNL     1       7.245  -2.012  23.448  0.00  0.00    +0.025 A 
ATOM     24  C   UNL     1       8.035  -2.966  24.127  0.00  0.00    +0.015 A 
ATOM     25  C   UNL     1       8.076  -4.303  23.722  0.00  0.00    +0.050 A 
ATOM     26  C   UNL     1       7.281  -4.711  22.668  0.00  0.00    +0.158 A 
ATOM     27  C   UNL     1       6.436  -3.810  22.031  0.00  0.00    +0.159 A 
ATOM     28  C   UNL     1       6.401  -2.472  22.419  0.00  0.00    +0.060 A 
BRANCH  27  29
ATOM     29  O   UNL     1       5.676  -4.283  20.997  0.00  0.00    -0.503 OA
ATOM     30  H   UNL     1       4.832  -3.797  20.998  0.00  0.00    +0.292 HD
ENDBRANCH  27  29
BRANCH  26  31
ATOM     31  O   UNL     1       7.349  -6.006  22.244  0.00  0.00    -0.503 OA
ATOM     32  H   UNL     1       7.943  -5.981  21.468  0.00  0.00    +0.292 HD
ENDBRANCH  26  31
ENDBRANCH  22  23
BRANCH  21  33
ATOM     33  O   UNL     1       7.264   4.346  25.179  0.00  0.00    -0.506 OA
ATOM     34  H   UNL     1       7.661   5.226  25.289  0.00  0.00    +0.292 HD
ENDBRANCH  21  33
BRANCH  18  35
ATOM     35  O   UNL     1      11.407   3.784  22.973  0.00  0.00    -0.507 OA
ATOM     36  H   UNL     1      11.949   3.111  22.527  0.00  0.00    +0.292 HD
ENDBRANCH  18  35
ENDBRANCH  11  12
ENDBRANCH   6  11
BRANCH   4  37
ATOM     37  C   UNL     1       3.899  -3.435  25.090  0.00  0.00    +0.190 C 
BRANCH  37  38
ATOM     38  O   UNL     1       3.086  -4.617  24.998  0.00  0.00    -0.392 OA
ATOM     39  H   UNL     1       2.197  -4.353  25.297  0.00  0.00    +0.210 HD
ENDBRANCH  37  38
ENDBRANCH   4  37
BRANCH   1  40
ATOM     40  O   UNL     1       5.048  -0.429  28.777  0.00  0.00    -0.337 OA
BRANCH  40  44
ATOM     41  C   UNL     1       4.054   3.617  29.546  0.00  0.00    +0.041 C 
ATOM     42  C   UNL     1       5.119   3.212  28.523  0.00  0.00    +0.149 C 
ATOM     43  O   UNL     1       4.999   1.824  28.161  0.00  0.00    -0.343 OA
ATOM     44  C   UNL     1       5.356   0.908  29.206  0.00  0.00    +0.282 C 
ATOM     45  C   UNL     1       6.834   1.111  29.618  0.00  0.00    +0.201 C 
ATOM     46  C   UNL     1       7.042   2.564  30.053  0.00  0.00    +0.179 C 
ATOM     47  C   UNL     1       6.550   3.543  28.980  0.00  0.00    +0.174 C 
BRANCH  47  48
ATOM     48  O   UNL     1       7.453   3.460  27.861  0.00  0.00    -0.387 OA
ATOM     49  H   UNL     1       8.250   2.985  28.189  0.00  0.00    +0.210 HD
ENDBRANCH  47  48
BRANCH  46  50
ATOM     50  O   UNL     1       8.440   2.773  30.303  0.00  0.00    -0.386 OA
ATOM     51  H   UNL     1       8.480   3.270  31.147  0.00  0.00    +0.210 HD
ENDBRANCH  46  50
BRANCH  45  52
ATOM     52  O   UNL     1       7.716   0.795  28.523  0.00  0.00    -0.384 OA
ATOM     53  H   UNL     1       7.306   0.042  28.058  0.00  0.00    +0.210 HD
ENDBRANCH  45  52
ENDBRANCH  40  44
ENDBRANCH   1  40
TORSDOF 16
ENDMDL
MODEL 8
REMARK VINA RESULT:      -6.2      1.954      6.616
REMARK  Name = 
REMARK  17 active torsions:
REMARK  status: ('A' for Active; 'I' for Inactive)
REMARK    1  A    between atoms: C_1  and  C_2
REMARK    2  A    between atoms: C_3  and  O_48
REMARK    3  A    between atoms: C_5  and  O_47
REMARK    4  A    between atoms: C_6  and  O_46
REMARK    5  A    between atoms: C_8  and  O_11
REMARK    6  A    between atoms: O_11  and  C_12
REMARK    7  A    between atoms: C_13  and  O_24
REMARK    8  A    between atoms: C_16  and  C_22
REMARK    9  A    between atoms: C_17  and  O_21
REMARK   10  A    between atoms: C_19  and  O_20
REMARK   11  A    between atoms: C_22  and  O_23
REMARK   12  A    between atoms: O_24  and  C_25
REMARK   13  A    between atoms: C_26  and  C_38
REMARK   14  A    between atoms: C_30  and  O_37
REMARK   15  A    between atoms: C_32  and  O_36
REMARK   16  A    between atoms: C_40  and  O_45
REMARK   17  A    between atoms: C_41  and  O_44
REMARK                            x       y       z     vdW  Elec       q    Type
REMARK                         _______ _______ _______ _____ _____    ______ ____
ROOT
ATOM      1  C   UNL     1       7.943  -2.092  23.932  0.00  0.00    +0.221 C 
ATOM      2  C   UNL     1       8.801  -2.129  22.655  0.00  0.00    +0.180 C 
ATOM      3  C   UNL     1      10.188  -1.524  22.917  0.00  0.00    +0.177 C 
ATOM      4  C   UNL     1      10.096  -0.115  23.506  0.00  0.00    +0.179 C 
ATOM      5  O   UNL     1       9.329  -0.118  24.715  0.00  0.00    -0.331 OA
ATOM      6  C   UNL     1       8.030  -0.713  24.649  0.00  0.00    +0.340 C 
ENDROOT
BRANCH   3   7
ATOM      7  O   UNL     1      10.993  -1.538  21.739  0.00  0.00    -0.386 OA
ATOM      8  H   UNL     1      11.539  -2.343  21.763  0.00  0.00    +0.210 HD
ENDBRANCH   3   7
BRANCH   2   9
ATOM      9  O   UNL     1       8.140  -1.496  21.550  0.00  0.00    -0.386 OA
ATOM     10  H   UNL     1       7.244  -1.851  21.434  0.00  0.00    +0.210 HD
ENDBRANCH   2   9
BRANCH   6  11
ATOM     11  O   UNL     1       7.033   0.179  24.141  0.00  0.00    -0.453 OA
BRANCH  11  12
ATOM     12  C   UNL     1       6.152   0.741  25.072  0.00  0.00    +0.214 A 
ATOM     13  C   UNL     1       5.108  -0.075  25.773  0.00  0.00    +0.238 A 
ATOM     14  O   UNL     1       4.802  -1.194  25.378  0.00  0.00    -0.283 OA
ATOM     15  C   UNL     1       4.417   0.548  26.916  0.00  0.00    +0.109 A 
ATOM     16  C   UNL     1       4.640   1.904  27.143  0.00  0.00    +0.147 A 
ATOM     17  C   UNL     1       4.018   2.557  28.214  0.00  0.00    +0.092 A 
ATOM     18  C   UNL     1       3.150   1.848  29.035  0.00  0.00    +0.124 A 
ATOM     19  C   UNL     1       2.899   0.499  28.808  0.00  0.00    +0.091 A 
ATOM     20  O   UNL     1       5.434   2.678  26.332  0.00  0.00    -0.451 OA
ATOM     21  C   UNL     1       3.540  -0.156  27.755  0.00  0.00    +0.135 A 
ATOM     22  C   UNL     1       6.193   2.063  25.344  0.00  0.00    +0.181 A 
BRANCH  22  23
ATOM     23  C   UNL     1       7.123   3.013  24.652  0.00  0.00    +0.025 A 
ATOM     24  C   UNL     1       8.331   3.445  25.242  0.00  0.00    +0.015 A 
ATOM     25  C   UNL     1       9.116   4.442  24.655  0.00  0.00    +0.050 A 
ATOM     26  C   UNL     1       8.727   4.976  23.441  0.00  0.00    +0.158 A 
ATOM     27  C   UNL     1       7.583   4.513  22.800  0.00  0.00    +0.159 A 
ATOM     28  C   UNL     1       6.787   3.531  23.387  0.00  0.00    +0.060 A 
BRANCH  27  29
ATOM     29  O   UNL     1       7.259   5.085  21.600  0.00  0.00    -0.503 OA
ATOM     30  H   UNL     1       7.379   4.414  20.906  0.00  0.00    +0.292 HD
ENDBRANCH  27  29
BRANCH  26  31
ATOM     31  O   UNL     1       9.468   5.976  22.884  0.00  0.00    -0.503 OA
ATOM     32  H   UNL     1       8.833   6.708  22.749  0.00  0.00    +0.292 HD
ENDBRANCH  26  31
ENDBRANCH  22  23
BRANCH  21  33
ATOM     33  O   UNL     1       3.285  -1.484  27.564  0.00  0.00    -0.506 OA
ATOM     34  H   UNL     1       2.442  -1.601  27.095  0.00  0.00    +0.292 HD
ENDBRANCH  21  33
BRANCH  18  35
ATOM     35  O   UNL     1       2.507   2.439  30.084  0.00  0.00    -0.507 OA
ATOM     36  H   UNL     1       1.720   1.918  30.317  0.00  0.00    +0.292 HD
ENDBRANCH  18  35
ENDBRANCH  11  12
ENDBRANCH   6  11
BRANCH   4  37
ATOM     37  C   UNL     1       9.625   0.979  22.542  0.00  0.00    +0.190 C 
BRANCH  37  38
ATOM     38  O   UNL     1      10.580   2.053  22.527  0.00  0.00    -0.392 OA
ATOM     39  H   UNL     1      10.068   2.868  22.684  0.00  0.00    +0.210 HD
ENDBRANCH  37  38
ENDBRANCH   4  37
BRANCH   1  40
ATOM     40  O   UNL     1       8.359  -3.184  24.781  0.00  0.00    -0.337 OA
BRANCH  40  44
ATOM     41  C   UNL     1       5.552  -6.154  23.661  0.00  0.00    +0.041 C 
ATOM     42  C   UNL     1       5.144  -4.869  24.388  0.00  0.00    +0.149 C 
ATOM     43  O   UNL     1       6.177  -3.869  24.307  0.00  0.00    -0.343 OA
ATOM     44  C   UNL     1       7.355  -4.172  25.067  0.00  0.00    +0.282 C 
ATOM     45  C   UNL     1       7.007  -4.300  26.570  0.00  0.00    +0.201 C 
ATOM     46  C   UNL     1       5.933  -5.375  26.751  0.00  0.00    +0.179 C 
ATOM     47  C   UNL     1       4.722  -5.111  25.848  0.00  0.00    +0.174 C 
BRANCH  47  48
ATOM     48  O   UNL     1       4.038  -3.951  26.358  0.00  0.00    -0.387 OA
ATOM     49  H   UNL     1       4.465  -3.740  27.218  0.00  0.00    +0.210 HD
ENDBRANCH  47  48
BRANCH  46  50
ATOM     50  O   UNL     1       5.525  -5.390  28.127  0.00  0.00    -0.386 OA
ATOM     51  H   UNL     1       5.012  -6.218  28.235  0.00  0.00    +0.210 HD
ENDBRANCH  46  50
BRANCH  45  52
ATOM     52  O   UNL     1       6.536  -3.042  27.092  0.00  0.00    -0.384 OA
ATOM     53  H   UNL     1       6.709  -2.382  26.395  0.00  0.00    +0.210 HD
ENDBRANCH  45  52
ENDBRANCH  40  44
ENDBRANCH   1  40
TORSDOF 16
ENDMDL
MODEL 9
REMARK VINA RESULT:      -6.2      1.870      5.080
REMARK  Name = 
REMARK  17 active torsions:
REMARK  status: ('A' for Active; 'I' for Inactive)
REMARK    1  A    between atoms: C_1  and  C_2
REMARK    2  A    between atoms: C_3  and  O_48
REMARK    3  A    between atoms: C_5  and  O_47
REMARK    4  A    between atoms: C_6  and  O_46
REMARK    5  A    between atoms: C_8  and  O_11
REMARK    6  A    between atoms: O_11  and  C_12
REMARK    7  A    between atoms: C_13  and  O_24
REMARK    8  A    between atoms: C_16  and  C_22
REMARK    9  A    between atoms: C_17  and  O_21
REMARK   10  A    between atoms: C_19  and  O_20
REMARK   11  A    between atoms: C_22  and  O_23
REMARK   12  A    between atoms: O_24  and  C_25
REMARK   13  A    between atoms: C_26  and  C_38
REMARK   14  A    between atoms: C_30  and  O_37
REMARK   15  A    between atoms: C_32  and  O_36
REMARK   16  A    between atoms: C_40  and  O_45
REMARK   17  A    between atoms: C_41  and  O_44
REMARK                            x       y       z     vdW  Elec       q    Type
REMARK                         _______ _______ _______ _____ _____    ______ ____
ROOT
ATOM      1  C   UNL     1       6.381  -2.486  25.177  0.00  0.00    +0.221 C 
ATOM      2  C   UNL     1       6.335  -3.478  24.002  0.00  0.00    +0.180 C 
ATOM      3  C   UNL     1       7.747  -3.981  23.662  0.00  0.00    +0.177 C 
ATOM      4  C   UNL     1       8.717  -2.827  23.403  0.00  0.00    +0.179 C 
ATOM      5  O   UNL     1       8.771  -1.944  24.528  0.00  0.00    -0.331 OA
ATOM      6  C   UNL     1       7.523  -1.441  25.009  0.00  0.00    +0.340 C 
ENDROOT
BRANCH   3   7
ATOM      7  O   UNL     1       7.724  -4.892  22.565  0.00  0.00    -0.386 OA
ATOM      8  H   UNL     1       8.647  -5.099  22.333  0.00  0.00    +0.210 HD
ENDBRANCH   3   7
BRANCH   2   9
ATOM      9  O   UNL     1       5.675  -2.919  22.857  0.00  0.00    -0.386 OA
ATOM     10  H   UNL     1       4.810  -3.336  22.719  0.00  0.00    +0.210 HD
ENDBRANCH   2   9
BRANCH   6  11
ATOM     11  O   UNL     1       7.058  -0.305  24.273  0.00  0.00    -0.453 OA
BRANCH  11  12
ATOM     12  C   UNL     1       7.555   0.946  24.657  0.00  0.00    +0.214 A 
ATOM     13  C   UNL     1       8.721   1.584  23.965  0.00  0.00    +0.238 A 
ATOM     14  O   UNL     1       9.452   0.941  23.222  0.00  0.00    -0.283 OA
ATOM     15  C   UNL     1       8.992   3.002  24.266  0.00  0.00    +0.109 A 
ATOM     16  C   UNL     1       8.276   3.589  25.307  0.00  0.00    +0.147 A 
ATOM     17  C   UNL     1       8.482   4.931  25.643  0.00  0.00    +0.092 A 
ATOM     18  C   UNL     1       9.432   5.671  24.949  0.00  0.00    +0.124 A 
ATOM     19  C   UNL     1      10.172   5.093  23.923  0.00  0.00    +0.091 A 
ATOM     20  O   UNL     1       7.370   2.898  26.074  0.00  0.00    -0.451 OA
ATOM     21  C   UNL     1       9.947   3.761  23.573  0.00  0.00    +0.135 A 
ATOM     22  C   UNL     1       7.013   1.608  25.702  0.00  0.00    +0.181 A 
BRANCH  22  23
ATOM     23  C   UNL     1       5.903   1.049  26.539  0.00  0.00    +0.025 A 
ATOM     24  C   UNL     1       6.149   0.232  27.665  0.00  0.00    +0.015 A 
ATOM     25  C   UNL     1       5.109  -0.404  28.349  0.00  0.00    +0.050 A 
ATOM     26  C   UNL     1       3.806  -0.182  27.947  0.00  0.00    +0.158 A 
ATOM     27  C   UNL     1       3.530   0.679  26.890  0.00  0.00    +0.159 A 
ATOM     28  C   UNL     1       4.563   1.304  26.194  0.00  0.00    +0.060 A 
BRANCH  27  29
ATOM     29  O   UNL     1       2.217   0.853  26.547  0.00  0.00    -0.503 OA
ATOM     30  H   UNL     1       2.051   1.809  26.474  0.00  0.00    +0.292 HD
ENDBRANCH  27  29
BRANCH  26  31
ATOM     31  O   UNL     1       2.791  -0.831  28.586  0.00  0.00    -0.503 OA
ATOM     32  H   UNL     1       2.040  -0.207  28.554  0.00  0.00    +0.292 HD
ENDBRANCH  26  31
ENDBRANCH  22  23
BRANCH  21  33
ATOM     33  O   UNL     1      10.679   3.224  22.553  0.00  0.00    -0.506 OA
ATOM     34  H   UNL     1      10.093   2.946  21.828  0.00  0.00    +0.292 HD
ENDBRANCH  21  33
BRANCH  18  35
ATOM     35  O   UNL     1       9.683   6.980  25.245  0.00  0.00    -0.507 OA
ATOM     36  H   UNL     1       8.845   7.445  25.401  0.00  0.00    +0.292 HD
ENDBRANCH  18  35
ENDBRANCH  11  12
ENDBRANCH   6  11
BRANCH   4  37
ATOM     37  C   UNL     1       8.503  -2.060  22.094  0.00  0.00    +0.190 C 
BRANCH  37  38
ATOM     38  O   UNL     1       9.775  -1.693  21.535  0.00  0.00    -0.392 OA
ATOM     39  H   UNL     1      10.037  -0.868  21.984  0.00  0.00    +0.210 HD
ENDBRANCH  37  38
ENDBRANCH   4  37
BRANCH   1  40
ATOM     40  O   UNL     1       6.503  -3.247  26.399  0.00  0.00    -0.337 OA
BRANCH  40  44
ATOM     41  C   UNL     1       2.671  -4.995  25.937  0.00  0.00    +0.041 C 
ATOM     42  C   UNL     1       3.281  -4.704  27.311  0.00  0.00    +0.149 C 
ATOM     43  O   UNL     1       4.377  -3.775  27.213  0.00  0.00    -0.343 OA
ATOM     44  C   UNL     1       5.546  -4.306  26.574  0.00  0.00    +0.282 C 
ATOM     45  C   UNL     1       6.090  -5.519  27.368  0.00  0.00    +0.201 C 
ATOM     46  C   UNL     1       4.990  -6.577  27.491  0.00  0.00    +0.179 C 
ATOM     47  C   UNL     1       3.701  -5.977  28.066  0.00  0.00    +0.174 C 
BRANCH  47  48
ATOM     48  O   UNL     1       3.940  -5.668  29.452  0.00  0.00    -0.387 OA
ATOM     49  H   UNL     1       4.898  -5.831  29.606  0.00  0.00    +0.210 HD
ENDBRANCH  47  48
BRANCH  46  50
ATOM     50  O   UNL     1       5.462  -7.633  28.341  0.00  0.00    -0.386 OA
ATOM     51  H   UNL     1       4.655  -8.099  28.645  0.00  0.00    +0.210 HD
ENDBRANCH  46  50
BRANCH  45  52
ATOM     52  O   UNL     1       6.529  -5.113  28.680  0.00  0.00    -0.384 OA
ATOM     53  H   UNL     1       5.759  -4.684  29.098  0.00  0.00    +0.210 HD
ENDBRANCH  45  52
ENDBRANCH  40  44
ENDBRANCH   1  40
TORSDOF 16
ENDMDL
