MODEL 1
REMARK VINA RESULT:      -7.3      0.000      0.000
REMARK  Name = 
REMARK  16 active torsions:
REMARK  status: ('A' for Active; 'I' for Inactive)
REMARK    1  A    between atoms: C_1  and  C_2
REMARK    2  A    between atoms: C_2  and  O_4
REMARK    3  A    between atoms: O_4  and  C_5
REMARK    4  A    between atoms: C_6  and  O_43
REMARK    5  A    between atoms: C_7  and  O_42
REMARK    6  A    between atoms: C_10  and  O_11
REMARK    7  A    between atoms: O_11  and  C_12
REMARK    8  A    between atoms: C_13  and  O_41
REMARK    9  A    between atoms: C_14  and  O_40
REMARK   10  A    between atoms: C_17  and  O_18
REMARK   11  A    between atoms: O_18  and  C_19
REMARK   12  A    between atoms: C_20  and  C_32
REMARK   13  A    between atoms: C_24  and  O_31
REMARK   14  A    between atoms: C_26  and  O_30
REMARK   15  A    between atoms: C_34  and  O_39
REMARK   16  A    between atoms: C_35  and  O_38
REMARK                            x       y       z     vdW  Elec       q    Type
REMARK                         _______ _______ _______ _____ _____    ______ ____
ROOT
ATOM      1  O   UNL     1       8.189  -1.872  26.258  0.00  0.00    -0.453 OA
ENDROOT
BRANCH   1   2
ATOM      2  C   UNL     1       8.189  -0.550  25.813  0.00  0.00    +0.214 A 
ATOM      3  C   UNL     1       9.301  -0.000  24.989  0.00  0.00    +0.238 A 
ATOM      4  O   UNL     1      10.157  -0.719  24.495  0.00  0.00    -0.283 OA
ATOM      5  C   UNL     1       9.304   1.417  24.669  0.00  0.00    +0.109 A 
ATOM      6  C   UNL     1       8.106   2.096  24.828  0.00  0.00    +0.147 A 
ATOM      7  C   UNL     1       7.978   3.376  24.292  0.00  0.00    +0.092 A 
ATOM      8  C   UNL     1       9.071   3.962  23.652  0.00  0.00    +0.124 A 
ATOM      9  C   UNL     1      10.301   3.317  23.569  0.00  0.00    +0.091 A 
ATOM     10  O   UNL     1       7.027   1.554  25.481  0.00  0.00    -0.451 OA
ATOM     11  C   UNL     1      10.420   2.039  24.087  0.00  0.00    +0.135 A 
ATOM     12  C   UNL     1       7.131   0.272  26.023  0.00  0.00    +0.181 A 
BRANCH  12  13
ATOM     13  C   UNL     1       5.926  -0.149  26.790  0.00  0.00    +0.025 A 
ATOM     14  C   UNL     1       5.853   0.129  28.170  0.00  0.00    +0.015 A 
ATOM     15  C   UNL     1       4.722  -0.221  28.922  0.00  0.00    +0.050 A 
ATOM     16  C   UNL     1       3.664  -0.846  28.290  0.00  0.00    +0.158 A 
ATOM     17  C   UNL     1       3.718  -1.149  26.939  0.00  0.00    +0.159 A 
ATOM     18  C   UNL     1       4.845  -0.825  26.188  0.00  0.00    +0.060 A 
BRANCH  16  19
ATOM     19  O   UNL     1       2.550  -1.158  29.019  0.00  0.00    -0.503 OA
ATOM     20  H   UNL     1       1.848  -0.567  28.668  0.00  0.00    +0.292 HD
ENDBRANCH  16  19
BRANCH  17  21
ATOM     21  O   UNL     1       2.625  -1.760  26.379  0.00  0.00    -0.503 OA
ATOM     22  H   UNL     1       2.438  -1.334  25.525  0.00  0.00    +0.292 HD
ENDBRANCH  17  21
ENDBRANCH  12  13
BRANCH   8  23
ATOM     23  O   UNL     1       8.990   5.197  23.081  0.00  0.00    -0.507 OA
ATOM     24  H   UNL     1       9.329   5.859  23.706  0.00  0.00    +0.292 HD
ENDBRANCH   8  23
BRANCH  11  25
ATOM     25  O   UNL     1      11.632   1.409  24.039  0.00  0.00    -0.506 OA
ATOM     26  H   UNL     1      11.533   0.518  23.669  0.00  0.00    +0.292 HD
ENDBRANCH  11  25
ENDBRANCH   1   2
BRANCH   1  28
ATOM     27  C   UNL     1       6.952  -4.019  26.360  0.00  0.00    +0.221 C 
ATOM     28  C   UNL     1       7.389  -2.790  25.497  0.00  0.00    +0.340 C 
ATOM     29  O   UNL     1       8.103  -3.209  24.313  0.00  0.00    -0.337 OA
ATOM     30  C   UNL     1       9.221  -4.054  24.537  0.00  0.00    +0.198 C 
ATOM     31  C   UNL     1       8.919  -5.267  25.409  0.00  0.00    +0.171 C 
ATOM     32  C   UNL     1       8.229  -4.808  26.693  0.00  0.00    +0.180 C 
BRANCH  31  33
ATOM     33  O   UNL     1      10.141  -5.960  25.678  0.00  0.00    -0.387 OA
ATOM     34  H   UNL     1      10.561  -6.171  24.824  0.00  0.00    +0.210 HD
ENDBRANCH  31  33
BRANCH  32  35
ATOM     35  O   UNL     1       7.940  -5.931  27.534  0.00  0.00    -0.386 OA
ATOM     36  H   UNL     1       7.552  -6.616  26.959  0.00  0.00    +0.210 HD
ENDBRANCH  32  35
BRANCH  27  37
ATOM     37  O   UNL     1       6.001  -4.913  25.720  0.00  0.00    -0.336 OA
BRANCH  37  39
ATOM     38  C   UNL     1       3.925  -6.047  26.417  0.00  0.00    +0.263 C 
ATOM     39  C   UNL     1       4.630  -4.702  26.115  0.00  0.00    +0.294 C 
ATOM     40  O   UNL     1       3.887  -4.036  25.085  0.00  0.00    -0.345 OA
ATOM     41  C   UNL     1       3.882  -4.747  23.850  0.00  0.00    +0.197 C 
ATOM     42  C   UNL     1       3.262  -6.128  23.978  0.00  0.00    +0.172 C 
ATOM     43  C   UNL     1       3.930  -6.892  25.137  0.00  0.00    +0.191 C 
BRANCH  42  44
ATOM     44  O   UNL     1       3.403  -6.836  22.745  0.00  0.00    -0.387 OA
ATOM     45  H   UNL     1       4.332  -6.762  22.461  0.00  0.00    +0.210 HD
ENDBRANCH  42  44
BRANCH  43  46
ATOM     46  O   UNL     1       3.276  -8.148  25.355  0.00  0.00    -0.385 OA
ATOM     47  H   UNL     1       3.289  -8.320  26.313  0.00  0.00    +0.210 HD
ENDBRANCH  43  46
BRANCH  38  48
ATOM     48  O   UNL     1       2.529  -5.803  26.762  0.00  0.00    -0.454 OA
BRANCH  48  50
ATOM     49  C   UNL     1       2.616  -6.076  29.085  0.00  0.00    +0.136 C 
ATOM     50  C   UNL     1       2.258  -5.178  27.934  0.00  0.00    +0.304 C 
ATOM     51  O   UNL     1       1.825  -4.042  28.055  0.00  0.00    -0.251 OA
ENDBRANCH  48  50
ENDBRANCH  38  48
ENDBRANCH  37  39
ENDBRANCH  27  37
ENDBRANCH   1  28
TORSDOF 15
ENDMDL
MODEL 2
REMARK VINA RESULT:      -6.8      0.894      1.383
REMARK  Name = 
REMARK  16 active torsions:
REMARK  status: ('A' for Active; 'I' for Inactive)
REMARK    1  A    between atoms: C_1  and  C_2
REMARK    2  A    between atoms: C_2  and  O_4
REMARK    3  A    between atoms: O_4  and  C_5
REMARK    4  A    between atoms: C_6  and  O_43
REMARK    5  A    between atoms: C_7  and  O_42
REMARK    6  A    between atoms: C_10  and  O_11
REMARK    7  A    between atoms: O_11  and  C_12
REMARK    8  A    between atoms: C_13  and  O_41
REMARK    9  A    between atoms: C_14  and  O_40
REMARK   10  A    between atoms: C_17  and  O_18
REMARK   11  A    between atoms: O_18  and  C_19
REMARK   12  A    between atoms: C_20  and  C_32
REMARK   13  A    between atoms: C_24  and  O_31
REMARK   14  A    between atoms: C_26  and  O_30
REMARK   15  A    between atoms: C_34  and  O_39
REMARK   16  A    between atoms: C_35  and  O_38
REMARK                            x       y       z     vdW  Elec       q    Type
REMARK                         _______ _______ _______ _____ _____    ______ ____
ROOT
ATOM      1  O   UNL     1       8.102  -1.755  26.306  0.00  0.00    -0.453 OA
ENDROOT
BRANCH   1   2
ATOM      2  C   UNL     1       8.055  -0.437  25.852  0.00  0.00    +0.214 A 
ATOM      3  C   UNL     1       9.137   0.138  25.005  0.00  0.00    +0.238 A 
ATOM      4  O   UNL     1      10.004  -0.559  24.502  0.00  0.00    -0.283 OA
ATOM      5  C   UNL     1       9.093   1.553  24.676  0.00  0.00    +0.109 A 
ATOM      6  C   UNL     1       7.879   2.198  24.851  0.00  0.00    +0.147 A 
ATOM      7  C   UNL     1       7.705   3.470  24.309  0.00  0.00    +0.092 A 
ATOM      8  C   UNL     1       8.770   4.083  23.646  0.00  0.00    +0.124 A 
ATOM      9  C   UNL     1      10.016   3.473  23.547  0.00  0.00    +0.091 A 
ATOM     10  O   UNL     1       6.827   1.630  25.526  0.00  0.00    -0.451 OA
ATOM     11  C   UNL     1      10.181   2.202  24.071  0.00  0.00    +0.135 A 
ATOM     12  C   UNL     1       6.978   0.355  26.075  0.00  0.00    +0.181 A 
BRANCH  12  13
ATOM     13  C   UNL     1       5.799  -0.094  26.866  0.00  0.00    +0.025 A 
ATOM     14  C   UNL     1       4.741  -0.759  26.214  0.00  0.00    +0.015 A 
ATOM     15  C   UNL     1       3.628  -1.226  26.928  0.00  0.00    +0.050 A 
ATOM     16  C   UNL     1       3.578  -1.031  28.295  0.00  0.00    +0.158 A 
ATOM     17  C   UNL     1       4.594  -0.362  28.958  0.00  0.00    +0.159 A 
ATOM     18  C   UNL     1       5.693   0.125  28.255  0.00  0.00    +0.060 A 
BRANCH  16  19
ATOM     19  O   UNL     1       2.506  -1.515  28.993  0.00  0.00    -0.503 OA
ATOM     20  H   UNL     1       2.519  -1.024  29.843  0.00  0.00    +0.292 HD
ENDBRANCH  16  19
BRANCH  17  21
ATOM     21  O   UNL     1       4.480  -0.215  30.316  0.00  0.00    -0.503 OA
ATOM     22  H   UNL     1       3.740   0.389  30.500  0.00  0.00    +0.292 HD
ENDBRANCH  17  21
ENDBRANCH  12  13
BRANCH   8  23
ATOM     23  O   UNL     1       8.643   5.311  23.068  0.00  0.00    -0.507 OA
ATOM     24  H   UNL     1       9.483   5.791  23.155  0.00  0.00    +0.292 HD
ENDBRANCH   8  23
BRANCH  11  25
ATOM     25  O   UNL     1      11.409   1.607  24.006  0.00  0.00    -0.506 OA
ATOM     26  H   UNL     1      11.550   1.040  24.781  0.00  0.00    +0.292 HD
ENDBRANCH  11  25
ENDBRANCH   1   2
BRANCH   1  28
ATOM     27  C   UNL     1       7.054  -4.003  26.309  0.00  0.00    +0.221 C 
ATOM     28  C   UNL     1       7.424  -2.724  25.490  0.00  0.00    +0.340 C 
ATOM     29  O   UNL     1       8.232  -3.054  24.338  0.00  0.00    -0.337 OA
ATOM     30  C   UNL     1       9.407  -3.803  24.606  0.00  0.00    +0.198 C 
ATOM     31  C   UNL     1       9.169  -5.056  25.442  0.00  0.00    +0.171 C 
ATOM     32  C   UNL     1       8.377  -4.686  26.695  0.00  0.00    +0.180 C 
BRANCH  31  33
ATOM     33  O   UNL     1      10.432  -5.645  25.763  0.00  0.00    -0.387 OA
ATOM     34  H   UNL     1      10.514  -5.672  26.733  0.00  0.00    +0.210 HD
ENDBRANCH  31  33
BRANCH  32  35
ATOM     35  O   UNL     1       8.146  -5.846  27.501  0.00  0.00    -0.386 OA
ATOM     36  H   UNL     1       8.078  -6.601  26.888  0.00  0.00    +0.210 HD
ENDBRANCH  32  35
BRANCH  27  37
ATOM     37  O   UNL     1       6.219  -4.964  25.606  0.00  0.00    -0.336 OA
BRANCH  37  39
ATOM     38  C   UNL     1       3.924  -5.845  25.418  0.00  0.00    +0.263 C 
ATOM     39  C   UNL     1       4.828  -4.592  25.524  0.00  0.00    +0.294 C 
ATOM     40  O   UNL     1       4.575  -3.767  24.380  0.00  0.00    -0.345 OA
ATOM     41  C   UNL     1       4.933  -4.389  23.150  0.00  0.00    +0.197 C 
ATOM     42  C   UNL     1       4.166  -5.678  22.906  0.00  0.00    +0.172 C 
ATOM     43  C   UNL     1       4.294  -6.599  24.134  0.00  0.00    +0.191 C 
BRANCH  42  44
ATOM     44  O   UNL     1       4.661  -6.319  21.729  0.00  0.00    -0.387 OA
ATOM     45  H   UNL     1       5.513  -5.907  21.498  0.00  0.00    +0.210 HD
ENDBRANCH  42  44
BRANCH  43  46
ATOM     46  O   UNL     1       3.477  -7.765  23.977  0.00  0.00    -0.385 OA
ATOM     47  H   UNL     1       3.984  -8.524  24.313  0.00  0.00    +0.210 HD
ENDBRANCH  43  46
BRANCH  38  48
ATOM     48  O   UNL     1       2.531  -5.435  25.285  0.00  0.00    -0.454 OA
BRANCH  48  50
ATOM     49  C   UNL     1       0.505  -4.565  26.070  0.00  0.00    +0.136 C 
ATOM     50  C   UNL     1       1.818  -5.210  26.415  0.00  0.00    +0.304 C 
ATOM     51  O   UNL     1       2.157  -5.516  27.548  0.00  0.00    -0.251 OA
ENDBRANCH  48  50
ENDBRANCH  38  48
ENDBRANCH  37  39
ENDBRANCH  27  37
ENDBRANCH   1  28
TORSDOF 15
ENDMDL
MODEL 3
REMARK VINA RESULT:      -6.8      1.932      9.039
REMARK  Name = 
REMARK  16 active torsions:
REMARK  status: ('A' for Active; 'I' for Inactive)
REMARK    1  A    between atoms: C_1  and  C_2
REMARK    2  A    between atoms: C_2  and  O_4
REMARK    3  A    between atoms: O_4  and  C_5
REMARK    4  A    between atoms: C_6  and  O_43
REMARK    5  A    between atoms: C_7  and  O_42
REMARK    6  A    between atoms: C_10  and  O_11
REMARK    7  A    between atoms: O_11  and  C_12
REMARK    8  A    between atoms: C_13  and  O_41
REMARK    9  A    between atoms: C_14  and  O_40
REMARK   10  A    between atoms: C_17  and  O_18
REMARK   11  A    between atoms: O_18  and  C_19
REMARK   12  A    between atoms: C_20  and  C_32
REMARK   13  A    between atoms: C_24  and  O_31
REMARK   14  A    between atoms: C_26  and  O_30
REMARK   15  A    between atoms: C_34  and  O_39
REMARK   16  A    between atoms: C_35  and  O_38
REMARK                            x       y       z     vdW  Elec       q    Type
REMARK                         _______ _______ _______ _____ _____    ______ ____
ROOT
ATOM      1  O   UNL     1       5.905  -1.984  26.506  0.00  0.00    -0.453 OA
ENDROOT
BRANCH   1   2
ATOM      2  C   UNL     1       5.491  -3.214  25.995  0.00  0.00    +0.214 A 
ATOM      3  C   UNL     1       4.264  -3.896  26.491  0.00  0.00    +0.238 A 
ATOM      4  O   UNL     1       3.457  -3.330  27.213  0.00  0.00    -0.283 OA
ATOM      5  C   UNL     1       3.961  -5.233  26.012  0.00  0.00    +0.109 A 
ATOM      6  C   UNL     1       4.613  -5.648  24.861  0.00  0.00    +0.147 A 
ATOM      7  C   UNL     1       4.173  -6.799  24.211  0.00  0.00    +0.092 A 
ATOM      8  C   UNL     1       3.119  -7.533  24.759  0.00  0.00    +0.124 A 
ATOM      9  C   UNL     1       2.521  -7.167  25.961  0.00  0.00    +0.091 A 
ATOM     10  O   UNL     1       5.672  -4.961  24.321  0.00  0.00    -0.451 OA
ATOM     11  C   UNL     1       2.949  -6.014  26.595  0.00  0.00    +0.135 A 
ATOM     12  C   UNL     1       6.128  -3.803  24.953  0.00  0.00    +0.181 A 
BRANCH  12  13
ATOM     13  C   UNL     1       7.343  -3.220  24.320  0.00  0.00    +0.025 A 
ATOM     14  C   UNL     1       8.613  -3.526  24.847  0.00  0.00    +0.015 A 
ATOM     15  C   UNL     1       9.783  -3.024  24.261  0.00  0.00    +0.050 A 
ATOM     16  C   UNL     1       9.681  -2.218  23.143  0.00  0.00    +0.158 A 
ATOM     17  C   UNL     1       8.444  -1.884  22.616  0.00  0.00    +0.159 A 
ATOM     18  C   UNL     1       7.274  -2.360  23.205  0.00  0.00    +0.060 A 
BRANCH  16  19
ATOM     19  O   UNL     1      10.825  -1.755  22.554  0.00  0.00    -0.503 OA
ATOM     20  H   UNL     1      11.370  -2.557  22.403  0.00  0.00    +0.292 HD
ENDBRANCH  16  19
BRANCH  17  21
ATOM     21  O   UNL     1       8.420  -1.088  21.500  0.00  0.00    -0.503 OA
ATOM     22  H   UNL     1       9.331  -0.812  21.299  0.00  0.00    +0.292 HD
ENDBRANCH  17  21
ENDBRANCH  12  13
BRANCH   8  23
ATOM     23  O   UNL     1       2.627  -8.647  24.146  0.00  0.00    -0.507 OA
ATOM     24  H   UNL     1       3.342  -9.078  23.649  0.00  0.00    +0.292 HD
ENDBRANCH   8  23
BRANCH  11  25
ATOM     25  O   UNL     1       2.391  -5.663  27.791  0.00  0.00    -0.506 OA
ATOM     26  H   UNL     1       3.039  -5.760  28.507  0.00  0.00    +0.292 HD
ENDBRANCH  11  25
ENDBRANCH   1   2
BRANCH   1  28
ATOM     27  C   UNL     1       6.667   0.290  25.876  0.00  0.00    +0.221 C 
ATOM     28  C   UNL     1       5.595  -0.835  25.702  0.00  0.00    +0.340 C 
ATOM     29  O   UNL     1       4.270  -0.350  26.019  0.00  0.00    -0.337 OA
ATOM     30  C   UNL     1       4.126   0.251  27.296  0.00  0.00    +0.198 C 
ATOM     31  C   UNL     1       5.155   1.339  27.592  0.00  0.00    +0.171 C 
ATOM     32  C   UNL     1       6.557   0.794  27.324  0.00  0.00    +0.180 C 
BRANCH  31  33
ATOM     33  O   UNL     1       4.998   1.768  28.947  0.00  0.00    -0.387 OA
ATOM     34  H   UNL     1       5.851   2.129  29.249  0.00  0.00    +0.210 HD
ENDBRANCH  31  33
BRANCH  32  35
ATOM     35  O   UNL     1       7.543   1.796  27.601  0.00  0.00    -0.386 OA
ATOM     36  H   UNL     1       7.681   1.790  28.566  0.00  0.00    +0.210 HD
ENDBRANCH  32  35
BRANCH  27  37
ATOM     37  O   UNL     1       6.523   1.421  24.974  0.00  0.00    -0.336 OA
BRANCH  37  39
ATOM     38  C   UNL     1       8.345   2.805  24.054  0.00  0.00    +0.263 C 
ATOM     39  C   UNL     1       7.533   1.492  23.945  0.00  0.00    +0.294 C 
ATOM     40  O   UNL     1       6.948   1.441  22.637  0.00  0.00    -0.345 OA
ATOM     41  C   UNL     1       6.011   2.488  22.401  0.00  0.00    +0.197 C 
ATOM     42  C   UNL     1       6.638   3.867  22.520  0.00  0.00    +0.172 C 
ATOM     43  C   UNL     1       7.383   3.985  23.863  0.00  0.00    +0.191 C 
BRANCH  42  44
ATOM     44  O   UNL     1       5.625   4.868  22.403  0.00  0.00    -0.387 OA
ATOM     45  H   UNL     1       6.059   5.708  22.170  0.00  0.00    +0.210 HD
ENDBRANCH  42  44
BRANCH  43  46
ATOM     46  O   UNL     1       8.086   5.231  23.940  0.00  0.00    -0.385 OA
ATOM     47  H   UNL     1       8.921   5.124  23.452  0.00  0.00    +0.210 HD
ENDBRANCH  43  46
BRANCH  38  48
ATOM     48  O   UNL     1       9.320   2.870  22.971  0.00  0.00    -0.454 OA
BRANCH  48  50
ATOM     49  C   UNL     1      10.933   1.519  23.995  0.00  0.00    +0.136 C 
ATOM     50  C   UNL     1      10.119   1.795  22.762  0.00  0.00    +0.304 C 
ATOM     51  O   UNL     1      10.156   1.118  21.747  0.00  0.00    -0.251 OA
ENDBRANCH  48  50
ENDBRANCH  38  48
ENDBRANCH  37  39
ENDBRANCH  27  37
ENDBRANCH   1  28
TORSDOF 15
ENDMDL
MODEL 4
REMARK VINA RESULT:      -6.7      2.681      9.139
REMARK  Name = 
REMARK  16 active torsions:
REMARK  status: ('A' for Active; 'I' for Inactive)
REMARK    1  A    between atoms: C_1  and  C_2
REMARK    2  A    between atoms: C_2  and  O_4
REMARK    3  A    between atoms: O_4  and  C_5
REMARK    4  A    between atoms: C_6  and  O_43
REMARK    5  A    between atoms: C_7  and  O_42
REMARK    6  A    between atoms: C_10  and  O_11
REMARK    7  A    between atoms: O_11  and  C_12
REMARK    8  A    between atoms: C_13  and  O_41
REMARK    9  A    between atoms: C_14  and  O_40
REMARK   10  A    between atoms: C_17  and  O_18
REMARK   11  A    between atoms: O_18  and  C_19
REMARK   12  A    between atoms: C_20  and  C_32
REMARK   13  A    between atoms: C_24  and  O_31
REMARK   14  A    between atoms: C_26  and  O_30
REMARK   15  A    between atoms: C_34  and  O_39
REMARK   16  A    between atoms: C_35  and  O_38
REMARK                            x       y       z     vdW  Elec       q    Type
REMARK                         _______ _______ _______ _____ _____    ______ ____
ROOT
ATOM      1  O   UNL     1       6.498  -0.663  25.860  0.00  0.00    -0.453 OA
ENDROOT
BRANCH   1   2
ATOM      2  C   UNL     1       6.585  -1.664  24.894  0.00  0.00    +0.214 A 
ATOM      3  C   UNL     1       5.584  -2.765  24.815  0.00  0.00    +0.238 A 
ATOM      4  O   UNL     1       4.540  -2.737  25.449  0.00  0.00    -0.283 OA
ATOM      5  C   UNL     1       5.804  -3.848  23.872  0.00  0.00    +0.109 A 
ATOM      6  C   UNL     1       6.718  -3.616  22.856  0.00  0.00    +0.147 A 
ATOM      7  C   UNL     1       6.774  -4.502  21.781  0.00  0.00    +0.092 A 
ATOM      8  C   UNL     1       5.946  -5.625  21.777  0.00  0.00    +0.124 A 
ATOM      9  C   UNL     1       5.091  -5.906  22.838  0.00  0.00    +0.091 A 
ATOM     10  O   UNL     1       7.566  -2.536  22.853  0.00  0.00    -0.451 OA
ATOM     11  C   UNL     1       5.024  -5.016  23.895  0.00  0.00    +0.135 A 
ATOM     12  C   UNL     1       7.524  -1.634  23.917  0.00  0.00    +0.181 A 
BRANCH  12  13
ATOM     13  C   UNL     1       8.565  -0.572  23.837  0.00  0.00    +0.025 A 
ATOM     14  C   UNL     1       9.511  -0.449  24.874  0.00  0.00    +0.015 A 
ATOM     15  C   UNL     1      10.526   0.515  24.821  0.00  0.00    +0.050 A 
ATOM     16  C   UNL     1      10.597   1.355  23.725  0.00  0.00    +0.158 A 
ATOM     17  C   UNL     1       9.669   1.270  22.701  0.00  0.00    +0.159 A 
ATOM     18  C   UNL     1       8.643   0.329  22.755  0.00  0.00    +0.060 A 
BRANCH  16  19
ATOM     19  O   UNL     1      11.608   2.274  23.661  0.00  0.00    -0.503 OA
ATOM     20  H   UNL     1      11.794   2.373  22.702  0.00  0.00    +0.292 HD
ENDBRANCH  16  19
BRANCH  17  21
ATOM     21  O   UNL     1       9.808   2.129  21.641  0.00  0.00    -0.503 OA
ATOM     22  H   UNL     1       9.040   2.023  21.054  0.00  0.00    +0.292 HD
ENDBRANCH  17  21
ENDBRANCH  12  13
BRANCH   8  23
ATOM     23  O   UNL     1       5.936  -6.504  20.735  0.00  0.00    -0.507 OA
ATOM     24  H   UNL     1       6.845  -6.626  20.414  0.00  0.00    +0.292 HD
ENDBRANCH   8  23
BRANCH  11  25
ATOM     25  O   UNL     1       4.212  -5.299  24.957  0.00  0.00    -0.506 OA
ATOM     26  H   UNL     1       3.280  -5.192  24.706  0.00  0.00    +0.292 HD
ENDBRANCH  11  25
ENDBRANCH   1   2
BRANCH   1  28
ATOM     27  C   UNL     1       6.787   1.799  25.958  0.00  0.00    +0.221 C 
ATOM     28  C   UNL     1       5.955   0.591  25.417  0.00  0.00    +0.340 C 
ATOM     29  O   UNL     1       4.566   0.695  25.804  0.00  0.00    -0.337 OA
ATOM     30  C   UNL     1       4.328   0.852  27.194  0.00  0.00    +0.198 C 
ATOM     31  C   UNL     1       5.126   1.979  27.840  0.00  0.00    +0.171 C 
ATOM     32  C   UNL     1       6.604   1.820  27.485  0.00  0.00    +0.180 C 
BRANCH  31  33
ATOM     33  O   UNL     1       4.910   1.949  29.253  0.00  0.00    -0.387 OA
ATOM     34  H   UNL     1       4.136   1.382  29.427  0.00  0.00    +0.210 HD
ENDBRANCH  31  33
BRANCH  32  35
ATOM     35  O   UNL     1       7.377   2.865  28.086  0.00  0.00    -0.386 OA
ATOM     36  H   UNL     1       7.607   3.486  27.371  0.00  0.00    +0.210 HD
ENDBRANCH  32  35
BRANCH  27  37
ATOM     37  O   UNL     1       6.409   3.096  25.423  0.00  0.00    -0.336 OA
BRANCH  37  39
ATOM     38  C   UNL     1       7.321   5.263  24.680  0.00  0.00    +0.263 C 
ATOM     39  C   UNL     1       7.423   3.720  24.608  0.00  0.00    +0.294 C 
ATOM     40  O   UNL     1       7.297   3.333  23.233  0.00  0.00    -0.345 OA
ATOM     41  C   UNL     1       6.027   3.656  22.674  0.00  0.00    +0.197 C 
ATOM     42  C   UNL     1       5.739   5.148  22.710  0.00  0.00    +0.172 C 
ATOM     43  C   UNL     1       5.947   5.682  24.139  0.00  0.00    +0.191 C 
BRANCH  42  44
ATOM     44  O   UNL     1       4.406   5.392  22.258  0.00  0.00    -0.387 OA
ATOM     45  H   UNL     1       3.806   5.277  23.016  0.00  0.00    +0.210 HD
ENDBRANCH  42  44
BRANCH  43  46
ATOM     46  O   UNL     1       5.803   7.107  24.170  0.00  0.00    -0.385 OA
ATOM     47  H   UNL     1       6.272   7.463  23.394  0.00  0.00    +0.210 HD
ENDBRANCH  43  46
BRANCH  38  48
ATOM     48  O   UNL     1       8.323   5.862  23.806  0.00  0.00    -0.454 OA
BRANCH  48  50
ATOM     49  C   UNL     1       9.860   6.681  25.371  0.00  0.00    +0.136 C 
ATOM     50  C   UNL     1       9.624   5.793  24.181  0.00  0.00    +0.304 C 
ATOM     51  O   UNL     1      10.481   5.091  23.666  0.00  0.00    -0.251 OA
ENDBRANCH  48  50
ENDBRANCH  38  48
ENDBRANCH  37  39
ENDBRANCH  27  37
ENDBRANCH   1  28
TORSDOF 15
ENDMDL
MODEL 5
REMARK VINA RESULT:      -6.7      1.797      5.143
REMARK  Name = 
REMARK  16 active torsions:
REMARK  status: ('A' for Active; 'I' for Inactive)
REMARK    1  A    between atoms: C_1  and  C_2
REMARK    2  A    between atoms: C_2  and  O_4
REMARK    3  A    between atoms: O_4  and  C_5
REMARK    4  A    between atoms: C_6  and  O_43
REMARK    5  A    between atoms: C_7  and  O_42
REMARK    6  A    between atoms: C_10  and  O_11
REMARK    7  A    between atoms: O_11  and  C_12
REMARK    8  A    between atoms: C_13  and  O_41
REMARK    9  A    between atoms: C_14  and  O_40
REMARK   10  A    between atoms: C_17  and  O_18
REMARK   11  A    between atoms: O_18  and  C_19
REMARK   12  A    between atoms: C_20  and  C_32
REMARK   13  A    between atoms: C_24  and  O_31
REMARK   14  A    between atoms: C_26  and  O_30
REMARK   15  A    between atoms: C_34  and  O_39
REMARK   16  A    between atoms: C_35  and  O_38
REMARK                            x       y       z     vdW  Elec       q    Type
REMARK                         _______ _______ _______ _____ _____    ______ ____
ROOT
ATOM      1  O   UNL     1       6.900   1.365  25.283  0.00  0.00    -0.453 OA
ENDROOT
BRANCH   1   2
ATOM      2  C   UNL     1       8.012   2.012  24.747  0.00  0.00    +0.214 A 
ATOM      3  C   UNL     1       8.338   3.425  25.091  0.00  0.00    +0.238 A 
ATOM      4  O   UNL     1       7.776   4.015  26.001  0.00  0.00    -0.283 OA
ATOM      5  C   UNL     1       9.434   4.081  24.399  0.00  0.00    +0.109 A 
ATOM      6  C   UNL     1      10.337   3.262  23.739  0.00  0.00    +0.147 A 
ATOM      7  C   UNL     1      11.539   3.805  23.289  0.00  0.00    +0.092 A 
ATOM      8  C   UNL     1      11.784   5.167  23.470  0.00  0.00    +0.124 A 
ATOM      9  C   UNL     1      10.842   6.008  24.053  0.00  0.00    +0.091 A 
ATOM     10  O   UNL     1      10.104   1.927  23.521  0.00  0.00    -0.451 OA
ATOM     11  C   UNL     1       9.656   5.463  24.515  0.00  0.00    +0.135 A 
ATOM     12  C   UNL     1       8.909   1.361  23.966  0.00  0.00    +0.181 A 
BRANCH  12  13
ATOM     13  C   UNL     1       8.744  -0.066  23.572  0.00  0.00    +0.025 A 
ATOM     14  C   UNL     1       7.738  -0.418  22.651  0.00  0.00    +0.015 A 
ATOM     15  C   UNL     1       7.571  -1.744  22.229  0.00  0.00    +0.050 A 
ATOM     16  C   UNL     1       8.415  -2.718  22.729  0.00  0.00    +0.158 A 
ATOM     17  C   UNL     1       9.400  -2.404  23.651  0.00  0.00    +0.159 A 
ATOM     18  C   UNL     1       9.559  -1.092  24.093  0.00  0.00    +0.060 A 
BRANCH  16  19
ATOM     19  O   UNL     1       8.270  -4.006  22.292  0.00  0.00    -0.503 OA
ATOM     20  H   UNL     1       8.145  -4.534  23.110  0.00  0.00    +0.292 HD
ENDBRANCH  16  19
BRANCH  17  21
ATOM     21  O   UNL     1      10.206  -3.420  24.094  0.00  0.00    -0.503 OA
ATOM     22  H   UNL     1      10.871  -3.046  24.697  0.00  0.00    +0.292 HD
ENDBRANCH  17  21
ENDBRANCH  12  13
BRANCH   8  23
ATOM     23  O   UNL     1      12.957   5.742  23.080  0.00  0.00    -0.507 OA
ATOM     24  H   UNL     1      13.437   5.124  22.504  0.00  0.00    +0.292 HD
ENDBRANCH   8  23
BRANCH  11  25
ATOM     25  O   UNL     1       8.711   6.285  25.060  0.00  0.00    -0.506 OA
ATOM     26  H   UNL     1       8.573   7.062  24.495  0.00  0.00    +0.292 HD
ENDBRANCH  11  25
ENDBRANCH   1   2
BRANCH   1  28
ATOM     27  C   UNL     1       5.985  -0.872  25.842  0.00  0.00    +0.221 C 
ATOM     28  C   UNL     1       7.164   0.144  25.992  0.00  0.00    +0.340 C 
ATOM     29  O   UNL     1       7.440   0.427  27.382  0.00  0.00    -0.337 OA
ATOM     30  C   UNL     1       6.332   0.869  28.149  0.00  0.00    +0.198 C 
ATOM     31  C   UNL     1       5.103  -0.028  28.042  0.00  0.00    +0.171 C 
ATOM     32  C   UNL     1       4.774  -0.262  26.568  0.00  0.00    +0.180 C 
BRANCH  31  33
ATOM     33  O   UNL     1       4.017   0.590  28.740  0.00  0.00    -0.387 OA
ATOM     34  H   UNL     1       4.336   0.848  29.624  0.00  0.00    +0.210 HD
ENDBRANCH  31  33
BRANCH  32  35
ATOM     35  O   UNL     1       3.618  -1.097  26.441  0.00  0.00    -0.386 OA
ATOM     36  H   UNL     1       2.856  -0.562  26.727  0.00  0.00    +0.210 HD
ENDBRANCH  32  35
BRANCH  27  37
ATOM     37  O   UNL     1       6.240  -2.195  26.387  0.00  0.00    -0.336 OA
BRANCH  37  39
ATOM     38  C   UNL     1       5.065  -4.224  25.624  0.00  0.00    +0.263 C 
ATOM     39  C   UNL     1       6.248  -3.250  25.402  0.00  0.00    +0.294 C 
ATOM     40  O   UNL     1       7.462  -4.010  25.461  0.00  0.00    -0.345 OA
ATOM     41  C   UNL     1       7.692  -4.601  26.737  0.00  0.00    +0.197 C 
ATOM     42  C   UNL     1       6.585  -5.561  27.140  0.00  0.00    +0.172 C 
ATOM     43  C   UNL     1       5.219  -4.862  27.011  0.00  0.00    +0.191 C 
BRANCH  42  44
ATOM     44  O   UNL     1       6.806  -6.018  28.475  0.00  0.00    -0.387 OA
ATOM     45  H   UNL     1       7.723  -6.341  28.535  0.00  0.00    +0.210 HD
ENDBRANCH  42  44
BRANCH  43  46
ATOM     46  O   UNL     1       4.155  -5.787  27.265  0.00  0.00    -0.385 OA
ATOM     47  H   UNL     1       4.006  -5.803  28.226  0.00  0.00    +0.210 HD
ENDBRANCH  43  46
BRANCH  38  48
ATOM     48  O   UNL     1       5.131  -5.306  24.648  0.00  0.00    -0.454 OA
BRANCH  48  50
ATOM     49  C   UNL     1       3.101  -5.208  23.486  0.00  0.00    +0.136 C 
ATOM     50  C   UNL     1       4.598  -5.094  23.419  0.00  0.00    +0.304 C 
ATOM     51  O   UNL     1       5.222  -4.812  22.408  0.00  0.00    -0.251 OA
ENDBRANCH  48  50
ENDBRANCH  38  48
ENDBRANCH  37  39
ENDBRANCH  27  37
ENDBRANCH   1  28
TORSDOF 15
ENDMDL
MODEL 6
REMARK VINA RESULT:      -6.7      1.907      4.918
REMARK  Name = 
REMARK  16 active torsions:
REMARK  status: ('A' for Active; 'I' for Inactive)
REMARK    1  A    between atoms: C_1  and  C_2
REMARK    2  A    between atoms: C_2  and  O_4
REMARK    3  A    between atoms: O_4  and  C_5
REMARK    4  A    between atoms: C_6  and  O_43
REMARK    5  A    between atoms: C_7  and  O_42
REMARK    6  A    between atoms: C_10  and  O_11
REMARK    7  A    between atoms: O_11  and  C_12
REMARK    8  A    between atoms: C_13  and  O_41
REMARK    9  A    between atoms: C_14  and  O_40
REMARK   10  A    between atoms: C_17  and  O_18
REMARK   11  A    between atoms: O_18  and  C_19
REMARK   12  A    between atoms: C_20  and  C_32
REMARK   13  A    between atoms: C_24  and  O_31
REMARK   14  A    between atoms: C_26  and  O_30
REMARK   15  A    between atoms: C_34  and  O_39
REMARK   16  A    between atoms: C_35  and  O_38
REMARK                            x       y       z     vdW  Elec       q    Type
REMARK                         _______ _______ _______ _____ _____    ______ ____
ROOT
ATOM      1  O   UNL     1       5.370  -0.473  25.103  0.00  0.00    -0.453 OA
ENDROOT
BRANCH   1   2
ATOM      2  C   UNL     1       6.505   0.157  24.596  0.00  0.00    +0.214 A 
ATOM      3  C   UNL     1       6.842   1.565  24.947  0.00  0.00    +0.238 A 
ATOM      4  O   UNL     1       6.266   2.164  25.843  0.00  0.00    -0.283 OA
ATOM      5  C   UNL     1       7.965   2.204  24.283  0.00  0.00    +0.109 A 
ATOM      6  C   UNL     1       8.872   1.372  23.646  0.00  0.00    +0.147 A 
ATOM      7  C   UNL     1      10.092   1.897  23.226  0.00  0.00    +0.092 A 
ATOM      8  C   UNL     1      10.353   3.255  23.412  0.00  0.00    +0.124 A 
ATOM      9  C   UNL     1       9.409   4.110  23.971  0.00  0.00    +0.091 A 
ATOM     10  O   UNL     1       8.625   0.040  23.422  0.00  0.00    -0.451 OA
ATOM     11  C   UNL     1       8.204   3.583  24.404  0.00  0.00    +0.135 A 
ATOM     12  C   UNL     1       7.411  -0.508  23.838  0.00  0.00    +0.181 A 
BRANCH  12  13
ATOM     13  C   UNL     1       7.235  -1.932  23.440  0.00  0.00    +0.025 A 
ATOM     14  C   UNL     1       6.258  -2.268  22.482  0.00  0.00    +0.015 A 
ATOM     15  C   UNL     1       6.082  -3.593  22.057  0.00  0.00    +0.050 A 
ATOM     16  C   UNL     1       6.890  -4.580  22.589  0.00  0.00    +0.158 A 
ATOM     17  C   UNL     1       7.845  -4.281  23.547  0.00  0.00    +0.159 A 
ATOM     18  C   UNL     1       8.011  -2.972  23.992  0.00  0.00    +0.060 A 
BRANCH  16  19
ATOM     19  O   UNL     1       6.738  -5.866  22.149  0.00  0.00    -0.503 OA
ATOM     20  H   UNL     1       6.131  -6.282  22.799  0.00  0.00    +0.292 HD
ENDBRANCH  16  19
BRANCH  17  21
ATOM     21  O   UNL     1       8.616  -5.311  24.021  0.00  0.00    -0.503 OA
ATOM     22  H   UNL     1       8.121  -5.769  24.722  0.00  0.00    +0.292 HD
ENDBRANCH  17  21
ENDBRANCH  12  13
BRANCH   8  23
ATOM     23  O   UNL     1      11.544   3.813  23.051  0.00  0.00    -0.507 OA
ATOM     24  H   UNL     1      11.495   4.775  23.178  0.00  0.00    +0.292 HD
ENDBRANCH   8  23
BRANCH  11  25
ATOM     25  O   UNL     1       7.258   4.419  24.925  0.00  0.00    -0.506 OA
ATOM     26  H   UNL     1       7.588   5.331  24.945  0.00  0.00    +0.292 HD
ENDBRANCH  11  25
ENDBRANCH   1   2
BRANCH   1  28
ATOM     27  C   UNL     1       4.358  -2.439  26.228  0.00  0.00    +0.221 C 
ATOM     28  C   UNL     1       5.606  -1.512  26.067  0.00  0.00    +0.340 C 
ATOM     29  O   UNL     1       5.997  -0.935  27.333  0.00  0.00    -0.337 OA
ATOM     30  C   UNL     1       4.976  -0.240  28.032  0.00  0.00    +0.198 C 
ATOM     31  C   UNL     1       3.689  -1.039  28.208  0.00  0.00    +0.171 C 
ATOM     32  C   UNL     1       3.243  -1.584  26.852  0.00  0.00    +0.180 C 
BRANCH  31  33
ATOM     33  O   UNL     1       2.697  -0.193  28.796  0.00  0.00    -0.387 OA
ATOM     34  H   UNL     1       1.827  -0.462  28.448  0.00  0.00    +0.210 HD
ENDBRANCH  31  33
BRANCH  32  35
ATOM     35  O   UNL     1       2.030  -2.333  26.990  0.00  0.00    -0.386 OA
ATOM     36  H   UNL     1       2.228  -3.239  26.689  0.00  0.00    +0.210 HD
ENDBRANCH  32  35
BRANCH  27  37
ATOM     37  O   UNL     1       4.567  -3.615  27.057  0.00  0.00    -0.336 OA
BRANCH  37  39
ATOM     38  C   UNL     1       4.167  -6.044  26.909  0.00  0.00    +0.263 C 
ATOM     39  C   UNL     1       4.894  -4.811  26.319  0.00  0.00    +0.294 C 
ATOM     40  O   UNL     1       6.304  -5.073  26.349  0.00  0.00    -0.345 OA
ATOM     41  C   UNL     1       6.818  -5.220  27.669  0.00  0.00    +0.197 C 
ATOM     42  C   UNL     1       6.168  -6.370  28.420  0.00  0.00    +0.172 C 
ATOM     43  C   UNL     1       4.636  -6.232  28.358  0.00  0.00    +0.191 C 
BRANCH  42  44
ATOM     44  O   UNL     1       6.630  -6.384  29.773  0.00  0.00    -0.387 OA
ATOM     45  H   UNL     1       6.274  -7.182  30.203  0.00  0.00    +0.210 HD
ENDBRANCH  42  44
BRANCH  43  46
ATOM     46  O   UNL     1       4.003  -7.372  28.951  0.00  0.00    -0.385 OA
ATOM     47  H   UNL     1       3.764  -7.130  29.864  0.00  0.00    +0.210 HD
ENDBRANCH  43  46
BRANCH  38  48
ATOM     48  O   UNL     1       4.559  -7.242  26.175  0.00  0.00    -0.454 OA
BRANCH  48  50
ATOM     49  C   UNL     1       2.614  -7.768  24.984  0.00  0.00    +0.136 C 
ATOM     50  C   UNL     1       4.073  -7.413  24.921  0.00  0.00    +0.304 C 
ATOM     51  O   UNL     1       4.701  -7.265  23.884  0.00  0.00    -0.251 OA
ENDBRANCH  48  50
ENDBRANCH  38  48
ENDBRANCH  37  39
ENDBRANCH  27  37
ENDBRANCH   1  28
TORSDOF 15
ENDMDL
MODEL 7
REMARK VINA RESULT:      -6.6      2.720      8.415
REMARK  Name = 
REMARK  16 active torsions:
REMARK  status: ('A' for Active; 'I' for Inactive)
REMARK    1  A    between atoms: C_1  and  C_2
REMARK    2  A    between atoms: C_2  and  O_4
REMARK    3  A    between atoms: O_4  and  C_5
REMARK    4  A    between atoms: C_6  and  O_43
REMARK    5  A    between atoms: C_7  and  O_42
REMARK    6  A    between atoms: C_10  and  O_11
REMARK    7  A    between atoms: O_11  and  C_12
REMARK    8  A    between atoms: C_13  and  O_41
REMARK    9  A    between atoms: C_14  and  O_40
REMARK   10  A    between atoms: C_17  and  O_18
REMARK   11  A    between atoms: O_18  and  C_19
REMARK   12  A    between atoms: C_20  and  C_32
REMARK   13  A    between atoms: C_24  and  O_31
REMARK   14  A    between atoms: C_26  and  O_30
REMARK   15  A    between atoms: C_34  and  O_39
REMARK   16  A    between atoms: C_35  and  O_38
REMARK                            x       y       z     vdW  Elec       q    Type
REMARK                         _______ _______ _______ _____ _____    ______ ____
ROOT
ATOM      1  O   UNL     1       6.736  -0.565  24.422  0.00  0.00    -0.453 OA
ENDROOT
BRANCH   1   2
ATOM      2  C   UNL     1       5.919  -0.876  25.508  0.00  0.00    +0.214 A 
ATOM      3  C   UNL     1       4.876   0.067  25.999  0.00  0.00    +0.238 A 
ATOM      4  O   UNL     1       4.548   1.057  25.363  0.00  0.00    -0.283 OA
ATOM      5  C   UNL     1       4.149  -0.261  27.214  0.00  0.00    +0.109 A 
ATOM      6  C   UNL     1       4.200  -1.580  27.636  0.00  0.00    +0.147 A 
ATOM      7  C   UNL     1       3.319  -2.007  28.629  0.00  0.00    +0.092 A 
ATOM      8  C   UNL     1       2.442  -1.088  29.206  0.00  0.00    +0.124 A 
ATOM      9  C   UNL     1       2.450   0.256  28.846  0.00  0.00    +0.091 A 
ATOM     10  O   UNL     1       5.075  -2.495  27.106  0.00  0.00    -0.451 OA
ATOM     11  C   UNL     1       3.314   0.674  27.848  0.00  0.00    +0.135 A 
ATOM     12  C   UNL     1       5.964  -2.090  26.109  0.00  0.00    +0.181 A 
BRANCH  12  13
ATOM     13  C   UNL     1       6.922  -3.154  25.700  0.00  0.00    +0.025 A 
ATOM     14  C   UNL     1       6.756  -3.795  24.457  0.00  0.00    +0.015 A 
ATOM     15  C   UNL     1       7.655  -4.779  24.021  0.00  0.00    +0.050 A 
ATOM     16  C   UNL     1       8.723  -5.118  24.830  0.00  0.00    +0.158 A 
ATOM     17  C   UNL     1       8.899  -4.518  26.066  0.00  0.00    +0.159 A 
ATOM     18  C   UNL     1       7.999  -3.556  26.518  0.00  0.00    +0.060 A 
BRANCH  16  19
ATOM     19  O   UNL     1       9.616  -6.055  24.388  0.00  0.00    -0.503 OA
ATOM     20  H   UNL     1       9.425  -6.149  23.430  0.00  0.00    +0.292 HD
ENDBRANCH  16  19
BRANCH  17  21
ATOM     21  O   UNL     1       9.988  -4.897  26.809  0.00  0.00    -0.503 OA
ATOM     22  H   UNL     1       9.838  -5.800  27.137  0.00  0.00    +0.292 HD
ENDBRANCH  17  21
ENDBRANCH  12  13
BRANCH   8  23
ATOM     23  O   UNL     1       1.537  -1.459  30.156  0.00  0.00    -0.507 OA
ATOM     24  H   UNL     1       1.989  -1.986  30.835  0.00  0.00    +0.292 HD
ENDBRANCH   8  23
BRANCH  11  25
ATOM     25  O   UNL     1       3.353   1.997  27.508  0.00  0.00    -0.506 OA
ATOM     26  H   UNL     1       3.630   2.099  26.584  0.00  0.00    +0.292 HD
ENDBRANCH  11  25
ENDBRANCH   1   2
BRANCH   1  28
ATOM     27  C   UNL     1       7.841   1.447  23.482  0.00  0.00    +0.221 C 
ATOM     28  C   UNL     1       7.749   0.426  24.662  0.00  0.00    +0.340 C 
ATOM     29  O   UNL     1       9.022  -0.214  24.903  0.00  0.00    -0.337 OA
ATOM     30  C   UNL     1       9.616  -0.841  23.777  0.00  0.00    +0.198 C 
ATOM     31  C   UNL     1       9.717   0.055  22.547  0.00  0.00    +0.171 C 
ATOM     32  C   UNL     1       8.348   0.670  22.256  0.00  0.00    +0.180 C 
BRANCH  31  33
ATOM     33  O   UNL     1      10.198  -0.722  21.447  0.00  0.00    -0.387 OA
ATOM     34  H   UNL     1      10.728  -1.456  21.807  0.00  0.00    +0.210 HD
ENDBRANCH  31  33
BRANCH  32  35
ATOM     35  O   UNL     1       8.415   1.512  21.100  0.00  0.00    -0.386 OA
ATOM     36  H   UNL     1       8.711   0.947  20.362  0.00  0.00    +0.210 HD
ENDBRANCH  32  35
BRANCH  27  37
ATOM     37  O   UNL     1       8.722   2.580  23.716  0.00  0.00    -0.336 OA
BRANCH  37  39
ATOM     38  C   UNL     1       6.749   3.947  24.285  0.00  0.00    +0.263 C 
ATOM     39  C   UNL     1       8.202   3.553  24.647  0.00  0.00    +0.294 C 
ATOM     40  O   UNL     1       8.996   4.747  24.651  0.00  0.00    -0.345 OA
ATOM     41  C   UNL     1       9.079   5.367  23.371  0.00  0.00    +0.197 C 
ATOM     42  C   UNL     1       7.718   5.779  22.835  0.00  0.00    +0.172 C 
ATOM     43  C   UNL     1       6.755   4.578  22.886  0.00  0.00    +0.191 C 
BRANCH  42  44
ATOM     44  O   UNL     1       7.855   6.273  21.502  0.00  0.00    -0.387 OA
ATOM     45  H   UNL     1       8.604   5.812  21.085  0.00  0.00    +0.210 HD
ENDBRANCH  42  44
BRANCH  43  46
ATOM     46  O   UNL     1       5.434   4.976  22.503  0.00  0.00    -0.385 OA
ATOM     47  H   UNL     1       5.500   5.407  21.633  0.00  0.00    +0.210 HD
ENDBRANCH  43  46
BRANCH  38  48
ATOM     48  O   UNL     1       6.273   4.968  25.210  0.00  0.00    -0.454 OA
BRANCH  48  50
ATOM     49  C   UNL     1       4.022   5.252  25.788  0.00  0.00    +0.136 C 
ATOM     50  C   UNL     1       5.340   4.615  26.129  0.00  0.00    +0.304 C 
ATOM     51  O   UNL     1       5.516   3.862  27.074  0.00  0.00    -0.251 OA
ENDBRANCH  48  50
ENDBRANCH  38  48
ENDBRANCH  37  39
ENDBRANCH  27  37
ENDBRANCH   1  28
TORSDOF 15
ENDMDL
MODEL 8
REMARK VINA RESULT:      -6.5      1.954      3.435
REMARK  Name = 
REMARK  16 active torsions:
REMARK  status: ('A' for Active; 'I' for Inactive)
REMARK    1  A    between atoms: C_1  and  C_2
REMARK    2  A    between atoms: C_2  and  O_4
REMARK    3  A    between atoms: O_4  and  C_5
REMARK    4  A    between atoms: C_6  and  O_43
REMARK    5  A    between atoms: C_7  and  O_42
REMARK    6  A    between atoms: C_10  and  O_11
REMARK    7  A    between atoms: O_11  and  C_12
REMARK    8  A    between atoms: C_13  and  O_41
REMARK    9  A    between atoms: C_14  and  O_40
REMARK   10  A    between atoms: C_17  and  O_18
REMARK   11  A    between atoms: O_18  and  C_19
REMARK   12  A    between atoms: C_20  and  C_32
REMARK   13  A    between atoms: C_24  and  O_31
REMARK   14  A    between atoms: C_26  and  O_30
REMARK   15  A    between atoms: C_34  and  O_39
REMARK   16  A    between atoms: C_35  and  O_38
REMARK                            x       y       z     vdW  Elec       q    Type
REMARK                         _______ _______ _______ _____ _____    ______ ____
ROOT
ATOM      1  O   UNL     1       7.339  -2.801  26.732  0.00  0.00    -0.453 OA
ENDROOT
BRANCH   1   2
ATOM      2  C   UNL     1       7.729  -1.768  25.881  0.00  0.00    +0.214 A 
ATOM      3  C   UNL     1       8.522  -2.027  24.647  0.00  0.00    +0.238 A 
ATOM      4  O   UNL     1       8.695  -3.156  24.214  0.00  0.00    -0.283 OA
ATOM      5  C   UNL     1       9.008  -0.896  23.874  0.00  0.00    +0.109 A 
ATOM      6  C   UNL     1       8.407   0.329  24.113  0.00  0.00    +0.147 A 
ATOM      7  C   UNL     1       8.640   1.381  23.229  0.00  0.00    +0.092 A 
ATOM      8  C   UNL     1       9.509   1.191  22.154  0.00  0.00    +0.124 A 
ATOM      9  C   UNL     1      10.182  -0.012  21.962  0.00  0.00    +0.091 A 
ATOM     10  O   UNL     1       7.574   0.551  25.182  0.00  0.00    -0.451 OA
ATOM     11  C   UNL     1       9.935  -1.060  22.832  0.00  0.00    +0.135 A 
ATOM     12  C   UNL     1       7.323  -0.490  26.078  0.00  0.00    +0.181 A 
BRANCH  12  13
ATOM     13  C   UNL     1       6.489  -0.082  27.242  0.00  0.00    +0.025 A 
ATOM     14  C   UNL     1       7.059   0.707  28.261  0.00  0.00    +0.015 A 
ATOM     15  C   UNL     1       6.299   1.139  29.357  0.00  0.00    +0.050 A 
ATOM     16  C   UNL     1       4.966   0.783  29.431  0.00  0.00    +0.158 A 
ATOM     17  C   UNL     1       4.384  -0.009  28.454  0.00  0.00    +0.159 A 
ATOM     18  C   UNL     1       5.137  -0.462  27.372  0.00  0.00    +0.060 A 
BRANCH  16  19
ATOM     19  O   UNL     1       4.219   1.231  30.485  0.00  0.00    -0.503 OA
ATOM     20  H   UNL     1       3.316   1.348  30.119  0.00  0.00    +0.292 HD
ENDBRANCH  16  19
BRANCH  17  21
ATOM     21  O   UNL     1       3.054  -0.313  28.588  0.00  0.00    -0.503 OA
ATOM     22  H   UNL     1       2.679  -0.456  27.702  0.00  0.00    +0.292 HD
ENDBRANCH  17  21
ENDBRANCH  12  13
BRANCH   8  23
ATOM     23  O   UNL     1       9.745   2.175  21.240  0.00  0.00    -0.507 OA
ATOM     24  H   UNL     1       8.940   2.706  21.131  0.00  0.00    +0.292 HD
ENDBRANCH   8  23
BRANCH  11  25
ATOM     25  O   UNL     1      10.615  -2.234  22.672  0.00  0.00    -0.506 OA
ATOM     26  H   UNL     1      10.777  -2.404  21.730  0.00  0.00    +0.292 HD
ENDBRANCH  11  25
ENDBRANCH   1   2
BRANCH   1  28
ATOM     27  C   UNL     1       5.148  -3.964  26.712  0.00  0.00    +0.221 C 
ATOM     28  C   UNL     1       6.593  -3.867  26.123  0.00  0.00    +0.340 C 
ATOM     29  O   UNL     1       7.304  -5.117  26.271  0.00  0.00    -0.337 OA
ATOM     30  C   UNL     1       7.362  -5.638  27.590  0.00  0.00    +0.198 C 
ATOM     31  C   UNL     1       6.005  -5.734  28.281  0.00  0.00    +0.171 C 
ATOM     32  C   UNL     1       5.291  -4.387  28.183  0.00  0.00    +0.180 C 
BRANCH  31  33
ATOM     33  O   UNL     1       6.205  -6.136  29.639  0.00  0.00    -0.387 OA
ATOM     34  H   UNL     1       6.925  -6.793  29.655  0.00  0.00    +0.210 HD
ENDBRANCH  31  33
BRANCH  32  35
ATOM     35  O   UNL     1       4.016  -4.450  28.831  0.00  0.00    -0.386 OA
ATOM     36  H   UNL     1       3.926  -3.628  29.348  0.00  0.00    +0.210 HD
ENDBRANCH  32  35
BRANCH  27  37
ATOM     37  O   UNL     1       4.270  -4.905  26.037  0.00  0.00    -0.336 OA
BRANCH  37  39
ATOM     38  C   UNL     1       3.935  -5.015  23.596  0.00  0.00    +0.263 C 
ATOM     39  C   UNL     1       4.804  -5.436  24.806  0.00  0.00    +0.294 C 
ATOM     40  O   UNL     1       4.856  -6.869  24.835  0.00  0.00    -0.345 OA
ATOM     41  C   UNL     1       3.584  -7.471  25.055  0.00  0.00    +0.197 C 
ATOM     42  C   UNL     1       2.579  -7.116  23.971  0.00  0.00    +0.172 C 
ATOM     43  C   UNL     1       2.525  -5.587  23.793  0.00  0.00    +0.191 C 
BRANCH  42  44
ATOM     44  O   UNL     1       1.295  -7.640  24.315  0.00  0.00    -0.387 OA
ATOM     45  H   UNL     1       0.646  -6.917  24.245  0.00  0.00    +0.210 HD
ENDBRANCH  42  44
BRANCH  43  46
ATOM     46  O   UNL     1       1.678  -5.239  22.692  0.00  0.00    -0.385 OA
ATOM     47  H   UNL     1       2.238  -5.192  21.897  0.00  0.00    +0.210 HD
ENDBRANCH  43  46
BRANCH  38  48
ATOM     48  O   UNL     1       4.470  -5.610  22.377  0.00  0.00    -0.454 OA
BRANCH  48  50
ATOM     49  C   UNL     1       6.692  -6.039  21.778  0.00  0.00    +0.136 C 
ATOM     50  C   UNL     1       5.566  -5.043  21.815  0.00  0.00    +0.304 C 
ATOM     51  O   UNL     1       5.635  -3.911  21.364  0.00  0.00    -0.251 OA
ENDBRANCH  48  50
ENDBRANCH  38  48
ENDBRANCH  37  39
ENDBRANCH  27  37
ENDBRANCH   1  28
TORSDOF 15
ENDMDL
MODEL 9
REMARK VINA RESULT:      -6.5      2.376      5.652
REMARK  Name = 
REMARK  16 active torsions:
REMARK  status: ('A' for Active; 'I' for Inactive)
REMARK    1  A    between atoms: C_1  and  C_2
REMARK    2  A    between atoms: C_2  and  O_4
REMARK    3  A    between atoms: O_4  and  C_5
REMARK    4  A    between atoms: C_6  and  O_43
REMARK    5  A    between atoms: C_7  and  O_42
REMARK    6  A    between atoms: C_10  and  O_11
REMARK    7  A    between atoms: O_11  and  C_12
REMARK    8  A    between atoms: C_13  and  O_41
REMARK    9  A    between atoms: C_14  and  O_40
REMARK   10  A    between atoms: C_17  and  O_18
REMARK   11  A    between atoms: O_18  and  C_19
REMARK   12  A    between atoms: C_20  and  C_32
REMARK   13  A    between atoms: C_24  and  O_31
REMARK   14  A    between atoms: C_26  and  O_30
REMARK   15  A    between atoms: C_34  and  O_39
REMARK   16  A    between atoms: C_35  and  O_38
REMARK                            x       y       z     vdW  Elec       q    Type
REMARK                         _______ _______ _______ _____ _____    ______ ____
ROOT
ATOM      1  O   UNL     1       7.884   0.359  24.524  0.00  0.00    -0.453 OA
ENDROOT
BRANCH   1   2
ATOM      2  C   UNL     1       6.893   0.769  25.415  0.00  0.00    +0.214 A 
ATOM      3  C   UNL     1       6.388  -0.127  26.492  0.00  0.00    +0.238 A 
ATOM      4  O   UNL     1       6.948  -1.174  26.778  0.00  0.00    -0.283 OA
ATOM      5  C   UNL     1       5.265   0.313  27.302  0.00  0.00    +0.109 A 
ATOM      6  C   UNL     1       4.967   1.666  27.277  0.00  0.00    +0.147 A 
ATOM      7  C   UNL     1       4.084   2.183  28.223  0.00  0.00    +0.092 A 
ATOM      8  C   UNL     1       3.484   1.319  29.141  0.00  0.00    +0.124 A 
ATOM      9  C   UNL     1       3.714  -0.053  29.112  0.00  0.00    +0.091 A 
ATOM     10  O   UNL     1       5.520   2.530  26.364  0.00  0.00    -0.451 OA
ATOM     11  C   UNL     1       4.604  -0.560  28.182  0.00  0.00    +0.135 A 
ATOM     12  C   UNL     1       6.409   2.035  25.409  0.00  0.00    +0.181 A 
BRANCH  12  13
ATOM     13  C   UNL     1       6.850   3.059  24.421  0.00  0.00    +0.025 A 
ATOM     14  C   UNL     1       6.136   3.210  23.216  0.00  0.00    +0.015 A 
ATOM     15  C   UNL     1       6.498   4.184  22.274  0.00  0.00    +0.050 A 
ATOM     16  C   UNL     1       7.573   5.009  22.542  0.00  0.00    +0.158 A 
ATOM     17  C   UNL     1       8.306   4.870  23.710  0.00  0.00    +0.159 A 
ATOM     18  C   UNL     1       7.967   3.890  24.642  0.00  0.00    +0.060 A 
BRANCH  16  19
ATOM     19  O   UNL     1       7.905   5.979  21.637  0.00  0.00    -0.503 OA
ATOM     20  H   UNL     1       8.741   6.364  21.978  0.00  0.00    +0.292 HD
ENDBRANCH  16  19
BRANCH  17  21
ATOM     21  O   UNL     1       9.353   5.731  23.913  0.00  0.00    -0.503 OA
ATOM     22  H   UNL     1      10.110   5.222  24.249  0.00  0.00    +0.292 HD
ENDBRANCH  17  21
ENDBRANCH  12  13
BRANCH   8  23
ATOM     23  O   UNL     1       2.640   1.777  30.110  0.00  0.00    -0.507 OA
ATOM     24  H   UNL     1       2.664   1.166  30.865  0.00  0.00    +0.292 HD
ENDBRANCH   8  23
BRANCH  11  25
ATOM     25  O   UNL     1       4.812  -1.909  28.123  0.00  0.00    -0.506 OA
ATOM     26  H   UNL     1       5.663  -2.101  27.697  0.00  0.00    +0.292 HD
ENDBRANCH  11  25
ENDBRANCH   1   2
BRANCH   1  28
ATOM     27  C   UNL     1       7.789  -1.924  23.560  0.00  0.00    +0.221 C 
ATOM     28  C   UNL     1       7.436  -0.410  23.397  0.00  0.00    +0.340 C 
ATOM     29  O   UNL     1       7.992   0.129  22.176  0.00  0.00    -0.337 OA
ATOM     30  C   UNL     1       9.388  -0.055  22.004  0.00  0.00    +0.198 C 
ATOM     31  C   UNL     1       9.853  -1.496  22.186  0.00  0.00    +0.171 C 
ATOM     32  C   UNL     1       9.322  -2.035  23.514  0.00  0.00    +0.180 C 
BRANCH  31  33
ATOM     33  O   UNL     1      11.282  -1.532  22.127  0.00  0.00    -0.387 OA
ATOM     34  H   UNL     1      11.601  -0.616  22.030  0.00  0.00    +0.210 HD
ENDBRANCH  31  33
BRANCH  32  35
ATOM     35  O   UNL     1       9.751  -3.386  23.712  0.00  0.00    -0.386 OA
ATOM     36  H   UNL     1      10.510  -3.350  24.323  0.00  0.00    +0.210 HD
ENDBRANCH  32  35
BRANCH  27  37
ATOM     37  O   UNL     1       7.225  -2.800  22.546  0.00  0.00    -0.336 OA
BRANCH  37  39
ATOM     38  C   UNL     1       5.417  -3.804  23.889  0.00  0.00    +0.263 C 
ATOM     39  C   UNL     1       5.796  -2.973  22.639  0.00  0.00    +0.294 C 
ATOM     40  O   UNL     1       5.276  -3.648  21.486  0.00  0.00    -0.345 OA
ATOM     41  C   UNL     1       5.858  -4.932  21.279  0.00  0.00    +0.197 C 
ATOM     42  C   UNL     1       5.622  -5.872  22.449  0.00  0.00    +0.172 C 
ATOM     43  C   UNL     1       6.060  -5.191  23.759  0.00  0.00    +0.191 C 
BRANCH  42  44
ATOM     44  O   UNL     1       6.337  -7.091  22.239  0.00  0.00    -0.387 OA
ATOM     45  H   UNL     1       5.686  -7.808  22.134  0.00  0.00    +0.210 HD
ENDBRANCH  42  44
BRANCH  43  46
ATOM     46  O   UNL     1       5.730  -6.011  24.886  0.00  0.00    -0.385 OA
ATOM     47  H   UNL     1       4.776  -6.198  24.841  0.00  0.00    +0.210 HD
ENDBRANCH  43  46
BRANCH  38  48
ATOM     48  O   UNL     1       3.973  -4.005  23.926  0.00  0.00    -0.454 OA
BRANCH  48  50
ATOM     49  C   UNL     1       2.378  -4.637  25.518  0.00  0.00    +0.136 C 
ATOM     50  C   UNL     1       3.291  -3.557  25.009  0.00  0.00    +0.304 C 
ATOM     51  O   UNL     1       3.417  -2.460  25.531  0.00  0.00    -0.251 OA
ENDBRANCH  48  50
ENDBRANCH  38  48
ENDBRANCH  37  39
ENDBRANCH  27  37
ENDBRANCH   1  28
TORSDOF 15
ENDMDL
