MODEL 1
REMARK VINA RESULT:      -7.6      0.000      0.000
REMARK  Name = 
REMARK  16 active torsions:
REMARK  status: ('A' for Active; 'I' for Inactive)
REMARK    1  A    between atoms: C_2  and  O_47
REMARK    2  A    between atoms: C_4  and  O_46
REMARK    3  A    between atoms: C_6  and  O_45
REMARK    4  A    between atoms: C_7  and  O_10
REMARK    5  A    between atoms: O_10  and  C_11
REMARK    6  A    between atoms: C_13  and  O_44
REMARK    7  A    between atoms: C_18  and  C_36
REMARK    8  A    between atoms: C_19  and  O_22
REMARK    9  A    between atoms: O_22  and  C_23
REMARK   10  A    between atoms: C_25  and  O_35
REMARK   11  A    between atoms: C_26  and  O_34
REMARK   12  A    between atoms: C_27  and  O_33
REMARK   13  A    between atoms: C_29  and  C_31
REMARK   14  A    between atoms: C_31  and  O_32
REMARK   15  A    between atoms: C_38  and  O_43
REMARK   16  A    between atoms: C_39  and  O_42
REMARK                            x       y       z     vdW  Elec       q    Type
REMARK                         _______ _______ _______ _____ _____    ______ ____
ROOT
ATOM      1  C   UNL     1      10.025  -0.320  24.035  0.00  0.00    +0.131 A 
ATOM      2  C   UNL     1       9.389  -1.010  25.068  0.00  0.00    +0.093 A 
ATOM      3  C   UNL     1       8.593  -2.125  24.773  0.00  0.00    +0.147 A 
ATOM      4  O   UNL     1       8.042  -2.802  25.834  0.00  0.00    -0.451 OA
ATOM      5  C   UNL     1       7.060  -3.757  25.583  0.00  0.00    +0.181 A 
ATOM      6  C   UNL     1       6.730  -4.197  24.346  0.00  0.00    +0.214 A 
ATOM      7  C   UNL     1       7.638  -3.770  23.236  0.00  0.00    +0.238 A 
ATOM      8  O   UNL     1       7.820  -4.463  22.244  0.00  0.00    -0.283 OA
ATOM      9  C   UNL     1       8.409  -2.539  23.458  0.00  0.00    +0.109 A 
ATOM     10  C   UNL     1       9.010  -1.813  22.425  0.00  0.00    +0.135 A 
ATOM     11  C   UNL     1       9.808  -0.705  22.710  0.00  0.00    +0.092 A 
ENDROOT
BRANCH   5  12
ATOM     12  C   UNL     1       6.439  -4.280  26.835  0.00  0.00    +0.025 A 
ATOM     13  C   UNL     1       5.504  -3.498  27.543  0.00  0.00    +0.015 A 
ATOM     14  C   UNL     1       4.967  -3.932  28.764  0.00  0.00    +0.050 A 
ATOM     15  C   UNL     1       5.358  -5.152  29.285  0.00  0.00    +0.158 A 
ATOM     16  C   UNL     1       6.292  -5.932  28.620  0.00  0.00    +0.159 A 
ATOM     17  C   UNL     1       6.848  -5.495  27.408  0.00  0.00    +0.060 A 
BRANCH  16  18
ATOM     18  O   UNL     1       6.641  -7.124  29.186  0.00  0.00    -0.503 OA
ATOM     19  H   UNL     1       7.573  -7.325  28.988  0.00  0.00    +0.292 HD
ENDBRANCH  16  18
BRANCH  15  20
ATOM     20  O   UNL     1       4.847  -5.566  30.481  0.00  0.00    -0.503 OA
ATOM     21  H   UNL     1       4.343  -4.799  30.819  0.00  0.00    +0.292 HD
ENDBRANCH  15  20
ENDBRANCH   5  12
BRANCH  10  22
ATOM     22  O   UNL     1       8.787  -2.150  21.120  0.00  0.00    -0.506 OA
ATOM     23  H   UNL     1       9.608  -2.076  20.602  0.00  0.00    +0.292 HD
ENDBRANCH  10  22
BRANCH   6  24
ATOM     24  O   UNL     1       5.637  -5.027  24.152  0.00  0.00    -0.453 OA
BRANCH  24  25
ATOM     25  C   UNL     1       4.402  -4.507  23.624  0.00  0.00    +0.340 C 
ATOM     26  O   UNL     1       3.534  -3.932  24.605  0.00  0.00    -0.331 OA
ATOM     27  C   UNL     1       2.948  -4.826  25.567  0.00  0.00    +0.179 C 
ATOM     28  C   UNL     1       2.329  -6.084  24.941  0.00  0.00    +0.177 C 
ATOM     29  C   UNL     1       3.287  -6.722  23.948  0.00  0.00    +0.180 C 
ATOM     30  C   UNL     1       3.711  -5.685  22.904  0.00  0.00    +0.214 C 
BRANCH  30  31
ATOM     31  O   UNL     1       4.565  -6.342  21.946  0.00  0.00    -0.383 OA
ATOM     32  H   UNL     1       4.113  -6.264  21.087  0.00  0.00    +0.210 HD
ENDBRANCH  30  31
BRANCH  29  33
ATOM     33  O   UNL     1       2.624  -7.820  23.301  0.00  0.00    -0.386 OA
ATOM     34  H   UNL     1       2.576  -8.539  23.962  0.00  0.00    +0.210 HD
ENDBRANCH  29  33
BRANCH  28  35
ATOM     35  O   UNL     1       1.115  -5.773  24.239  0.00  0.00    -0.386 OA
ATOM     36  H   UNL     1       0.857  -6.608  23.795  0.00  0.00    +0.210 HD
ENDBRANCH  28  35
BRANCH  27  37
ATOM     37  C   UNL     1       1.858  -4.046  26.317  0.00  0.00    +0.190 C 
BRANCH  37  38
ATOM     38  O   UNL     1       1.124  -3.186  25.428  0.00  0.00    -0.392 OA
ATOM     39  H   UNL     1       1.781  -2.653  24.942  0.00  0.00    +0.210 HD
ENDBRANCH  37  38
ENDBRANCH  27  37
ENDBRANCH  24  25
ENDBRANCH   6  24
BRANCH   1  40
ATOM     40  O   UNL     1      10.853   0.757  24.195  0.00  0.00    -0.461 OA
BRANCH  40  43
ATOM     41  C   UNL     1       8.103   3.138  24.477  0.00  0.00    +0.198 C 
ATOM     42  O   UNL     1       8.804   1.907  24.260  0.00  0.00    -0.337 OA
ATOM     43  C   UNL     1      10.215   2.014  24.486  0.00  0.00    +0.339 C 
ATOM     44  C   UNL     1      10.815   3.052  23.508  0.00  0.00    +0.214 C 
ATOM     45  C   UNL     1      10.150   4.411  23.780  0.00  0.00    +0.180 C 
ATOM     46  C   UNL     1       8.625   4.294  23.616  0.00  0.00    +0.171 C 
BRANCH  46  47
ATOM     47  O   UNL     1       8.289   4.092  22.238  0.00  0.00    -0.387 OA
ATOM     48  H   UNL     1       7.938   3.175  22.160  0.00  0.00    +0.210 HD
ENDBRANCH  46  47
BRANCH  45  49
ATOM     49  O   UNL     1      10.690   5.441  22.947  0.00  0.00    -0.386 OA
ATOM     50  H   UNL     1      10.277   5.354  22.066  0.00  0.00    +0.210 HD
ENDBRANCH  45  49
BRANCH  44  51
ATOM     51  O   UNL     1      10.550   2.640  22.145  0.00  0.00    -0.383 OA
ATOM     52  H   UNL     1      10.883   1.723  22.073  0.00  0.00    +0.210 HD
ENDBRANCH  44  51
ENDBRANCH  40  43
ENDBRANCH   1  40
TORSDOF 16
ENDMDL
MODEL 2
REMARK VINA RESULT:      -7.4      2.571      9.952
REMARK  Name = 
REMARK  16 active torsions:
REMARK  status: ('A' for Active; 'I' for Inactive)
REMARK    1  A    between atoms: C_2  and  O_47
REMARK    2  A    between atoms: C_4  and  O_46
REMARK    3  A    between atoms: C_6  and  O_45
REMARK    4  A    between atoms: C_7  and  O_10
REMARK    5  A    between atoms: O_10  and  C_11
REMARK    6  A    between atoms: C_13  and  O_44
REMARK    7  A    between atoms: C_18  and  C_36
REMARK    8  A    between atoms: C_19  and  O_22
REMARK    9  A    between atoms: O_22  and  C_23
REMARK   10  A    between atoms: C_25  and  O_35
REMARK   11  A    between atoms: C_26  and  O_34
REMARK   12  A    between atoms: C_27  and  O_33
REMARK   13  A    between atoms: C_29  and  C_31
REMARK   14  A    between atoms: C_31  and  O_32
REMARK   15  A    between atoms: C_38  and  O_43
REMARK   16  A    between atoms: C_39  and  O_42
REMARK                            x       y       z     vdW  Elec       q    Type
REMARK                         _______ _______ _______ _____ _____    ______ ____
ROOT
ATOM      1  C   UNL     1       7.370  -3.145  22.950  0.00  0.00    +0.131 A 
ATOM      2  C   UNL     1       6.552  -2.031  23.139  0.00  0.00    +0.093 A 
ATOM      3  C   UNL     1       7.072  -0.744  22.941  0.00  0.00    +0.147 A 
ATOM      4  O   UNL     1       6.205   0.313  23.081  0.00  0.00    -0.451 OA
ATOM      5  C   UNL     1       6.724   1.604  23.133  0.00  0.00    +0.181 A 
ATOM      6  C   UNL     1       8.018   1.911  22.877  0.00  0.00    +0.214 A 
ATOM      7  C   UNL     1       8.850   0.808  22.303  0.00  0.00    +0.238 A 
ATOM      8  O   UNL     1       9.786   1.029  21.546  0.00  0.00    -0.283 OA
ATOM      9  C   UNL     1       8.404  -0.564  22.582  0.00  0.00    +0.109 A 
ATOM     10  C   UNL     1       9.230  -1.683  22.443  0.00  0.00    +0.135 A 
ATOM     11  C   UNL     1       8.719  -2.967  22.632  0.00  0.00    +0.092 A 
ENDROOT
BRANCH   5  12
ATOM     12  C   UNL     1       5.685   2.624  23.457  0.00  0.00    +0.025 A 
ATOM     13  C   UNL     1       5.219   2.767  24.780  0.00  0.00    +0.015 A 
ATOM     14  C   UNL     1       4.186   3.661  25.097  0.00  0.00    +0.050 A 
ATOM     15  C   UNL     1       3.613   4.423  24.095  0.00  0.00    +0.158 A 
ATOM     16  C   UNL     1       4.036   4.287  22.781  0.00  0.00    +0.159 A 
ATOM     17  C   UNL     1       5.056   3.380  22.454  0.00  0.00    +0.060 A 
BRANCH  16  18
ATOM     18  O   UNL     1       3.430   5.062  21.836  0.00  0.00    -0.503 OA
ATOM     19  H   UNL     1       3.068   4.500  21.129  0.00  0.00    +0.292 HD
ENDBRANCH  16  18
BRANCH  15  20
ATOM     20  O   UNL     1       2.598   5.281  24.402  0.00  0.00    -0.503 OA
ATOM     21  H   UNL     1       1.794   4.860  24.037  0.00  0.00    +0.292 HD
ENDBRANCH  15  20
ENDBRANCH   5  12
BRANCH  10  22
ATOM     22  O   UNL     1      10.558  -1.533  22.165  0.00  0.00    -0.506 OA
ATOM     23  H   UNL     1      10.683  -1.181  21.266  0.00  0.00    +0.292 HD
ENDBRANCH  10  22
BRANCH   6  24
ATOM     24  O   UNL     1       8.505   3.188  23.103  0.00  0.00    -0.453 OA
BRANCH  24  25
ATOM     25  C   UNL     1       9.240   3.496  24.303  0.00  0.00    +0.340 C 
ATOM     26  O   UNL     1       8.556   4.369  25.207  0.00  0.00    -0.331 OA
ATOM     27  C   UNL     1       8.351   5.727  24.778  0.00  0.00    +0.179 C 
ATOM     28  C   UNL     1       9.612   6.389  24.205  0.00  0.00    +0.177 C 
ATOM     29  C   UNL     1      10.292   5.477  23.197  0.00  0.00    +0.180 C 
ATOM     30  C   UNL     1      10.576   4.117  23.843  0.00  0.00    +0.214 C 
BRANCH  30  31
ATOM     31  O   UNL     1      11.277   3.305  22.881  0.00  0.00    -0.383 OA
ATOM     32  H   UNL     1      10.591   2.894  22.327  0.00  0.00    +0.210 HD
ENDBRANCH  30  31
BRANCH  29  33
ATOM     33  O   UNL     1      11.525   6.083  22.779  0.00  0.00    -0.386 OA
ATOM     34  H   UNL     1      11.284   6.779  22.136  0.00  0.00    +0.210 HD
ENDBRANCH  29  33
BRANCH  28  35
ATOM     35  O   UNL     1      10.563   6.682  25.241  0.00  0.00    -0.386 OA
ATOM     36  H   UNL     1      10.601   7.661  25.282  0.00  0.00    +0.210 HD
ENDBRANCH  28  35
BRANCH  27  37
ATOM     37  C   UNL     1       7.869   6.526  25.998  0.00  0.00    +0.190 C 
BRANCH  37  38
ATOM     38  O   UNL     1       8.466   6.040  27.213  0.00  0.00    -0.392 OA
ATOM     39  H   UNL     1       8.543   5.073  27.124  0.00  0.00    +0.210 HD
ENDBRANCH  37  38
ENDBRANCH  27  37
ENDBRANCH  24  25
ENDBRANCH   6  24
BRANCH   1  40
ATOM     40  O   UNL     1       6.974  -4.449  23.076  0.00  0.00    -0.461 OA
BRANCH  40  43
ATOM     41  C   UNL     1       4.816  -6.023  25.560  0.00  0.00    +0.198 C 
ATOM     42  O   UNL     1       5.992  -5.698  24.807  0.00  0.00    -0.337 OA
ATOM     43  C   UNL     1       5.768  -4.678  23.825  0.00  0.00    +0.339 C 
ATOM     44  C   UNL     1       4.704  -5.165  22.812  0.00  0.00    +0.214 C 
ATOM     45  C   UNL     1       3.398  -5.434  23.577  0.00  0.00    +0.180 C 
ATOM     46  C   UNL     1       3.640  -6.472  24.686  0.00  0.00    +0.171 C 
BRANCH  46  47
ATOM     47  O   UNL     1       3.895  -7.760  24.113  0.00  0.00    -0.387 OA
ATOM     48  H   UNL     1       4.324  -7.606  23.240  0.00  0.00    +0.210 HD
ENDBRANCH  46  47
BRANCH  45  49
ATOM     49  O   UNL     1       2.344  -5.840  22.699  0.00  0.00    -0.386 OA
ATOM     50  H   UNL     1       1.759  -6.441  23.200  0.00  0.00    +0.210 HD
ENDBRANCH  45  49
BRANCH  44  51
ATOM     51  O   UNL     1       5.162  -6.386  22.180  0.00  0.00    -0.383 OA
ATOM     52  H   UNL     1       4.612  -6.494  21.378  0.00  0.00    +0.210 HD
ENDBRANCH  44  51
ENDBRANCH  40  43
ENDBRANCH   1  40
TORSDOF 16
ENDMDL
MODEL 3
REMARK VINA RESULT:      -7.4      2.507      9.536
REMARK  Name = 
REMARK  16 active torsions:
REMARK  status: ('A' for Active; 'I' for Inactive)
REMARK    1  A    between atoms: C_2  and  O_47
REMARK    2  A    between atoms: C_4  and  O_46
REMARK    3  A    between atoms: C_6  and  O_45
REMARK    4  A    between atoms: C_7  and  O_10
REMARK    5  A    between atoms: O_10  and  C_11
REMARK    6  A    between atoms: C_13  and  O_44
REMARK    7  A    between atoms: C_18  and  C_36
REMARK    8  A    between atoms: C_19  and  O_22
REMARK    9  A    between atoms: O_22  and  C_23
REMARK   10  A    between atoms: C_25  and  O_35
REMARK   11  A    between atoms: C_26  and  O_34
REMARK   12  A    between atoms: C_27  and  O_33
REMARK   13  A    between atoms: C_29  and  C_31
REMARK   14  A    between atoms: C_31  and  O_32
REMARK   15  A    between atoms: C_38  and  O_43
REMARK   16  A    between atoms: C_39  and  O_42
REMARK                            x       y       z     vdW  Elec       q    Type
REMARK                         _______ _______ _______ _____ _____    ______ ____
ROOT
ATOM      1  C   UNL     1       7.214  -4.013  24.333  0.00  0.00    +0.131 A 
ATOM      2  C   UNL     1       6.427  -2.860  24.343  0.00  0.00    +0.093 A 
ATOM      3  C   UNL     1       6.970  -1.644  23.904  0.00  0.00    +0.147 A 
ATOM      4  O   UNL     1       6.132  -0.555  23.877  0.00  0.00    -0.451 OA
ATOM      5  C   UNL     1       6.681   0.709  23.683  0.00  0.00    +0.181 A 
ATOM      6  C   UNL     1       7.973   0.929  23.341  0.00  0.00    +0.214 A 
ATOM      7  C   UNL     1       8.761  -0.280  22.949  0.00  0.00    +0.238 A 
ATOM      8  O   UNL     1       9.677  -0.224  22.140  0.00  0.00    -0.283 OA
ATOM      9  C   UNL     1       8.293  -1.568  23.482  0.00  0.00    +0.109 A 
ATOM     10  C   UNL     1       9.089  -2.716  23.522  0.00  0.00    +0.135 A 
ATOM     11  C   UNL     1       8.556  -3.932  23.952  0.00  0.00    +0.092 A 
ENDROOT
BRANCH   5  12
ATOM     12  C   UNL     1       5.677   1.799  23.847  0.00  0.00    +0.025 A 
ATOM     13  C   UNL     1       4.951   1.919  25.051  0.00  0.00    +0.015 A 
ATOM     14  C   UNL     1       3.944   2.883  25.202  0.00  0.00    +0.050 A 
ATOM     15  C   UNL     1       3.657   3.739  24.154  0.00  0.00    +0.158 A 
ATOM     16  C   UNL     1       4.340   3.630  22.952  0.00  0.00    +0.159 A 
ATOM     17  C   UNL     1       5.335   2.654  22.787  0.00  0.00    +0.060 A 
BRANCH  16  18
ATOM     18  O   UNL     1       4.009   4.498  21.953  0.00  0.00    -0.503 OA
ATOM     19  H   UNL     1       3.045   4.501  21.821  0.00  0.00    +0.292 HD
ENDBRANCH  16  18
BRANCH  15  20
ATOM     20  O   UNL     1       2.666   4.667  24.296  0.00  0.00    -0.503 OA
ATOM     21  H   UNL     1       2.758   4.994  25.213  0.00  0.00    +0.292 HD
ENDBRANCH  15  20
ENDBRANCH   5  12
BRANCH  10  22
ATOM     22  O   UNL     1      10.411  -2.656  23.185  0.00  0.00    -0.506 OA
ATOM     23  H   UNL     1      10.826  -1.862  23.564  0.00  0.00    +0.292 HD
ENDBRANCH  10  22
BRANCH   6  24
ATOM     24  O   UNL     1       8.496   2.212  23.320  0.00  0.00    -0.453 OA
BRANCH  24  25
ATOM     25  C   UNL     1       9.271   2.710  24.428  0.00  0.00    +0.340 C 
ATOM     26  O   UNL     1       8.493   3.119  25.557  0.00  0.00    -0.331 OA
ATOM     27  C   UNL     1       7.661   4.281  25.394  0.00  0.00    +0.179 C 
ATOM     28  C   UNL     1       8.385   5.472  24.751  0.00  0.00    +0.177 C 
ATOM     29  C   UNL     1       9.154   5.035  23.514  0.00  0.00    +0.180 C 
ATOM     30  C   UNL     1      10.103   3.888  23.878  0.00  0.00    +0.214 C 
BRANCH  30  31
ATOM     31  O   UNL     1      10.859   3.546  22.699  0.00  0.00    -0.383 OA
ATOM     32  H   UNL     1      11.764   3.864  22.861  0.00  0.00    +0.210 HD
ENDBRANCH  30  31
BRANCH  29  33
ATOM     33  O   UNL     1       9.910   6.151  23.018  0.00  0.00    -0.386 OA
ATOM     34  H   UNL     1       9.901   6.825  23.726  0.00  0.00    +0.210 HD
ENDBRANCH  29  33
BRANCH  28  35
ATOM     35  O   UNL     1       9.323   6.065  25.663  0.00  0.00    -0.386 OA
ATOM     36  H   UNL     1       9.164   5.617  26.519  0.00  0.00    +0.210 HD
ENDBRANCH  28  35
BRANCH  27  37
ATOM     37  C   UNL     1       7.158   4.686  26.787  0.00  0.00    +0.190 C 
BRANCH  37  38
ATOM     38  O   UNL     1       7.510   3.704  27.777  0.00  0.00    -0.392 OA
ATOM     39  H   UNL     1       8.072   3.043  27.334  0.00  0.00    +0.210 HD
ENDBRANCH  37  38
ENDBRANCH  27  37
ENDBRANCH  24  25
ENDBRANCH   6  24
BRANCH   1  40
ATOM     40  O   UNL     1       6.793  -5.261  24.701  0.00  0.00    -0.461 OA
BRANCH  40  43
ATOM     41  C   UNL     1       3.783  -6.803  26.071  0.00  0.00    +0.198 C 
ATOM     42  O   UNL     1       5.169  -6.561  25.796  0.00  0.00    -0.337 OA
ATOM     43  C   UNL     1       5.389  -5.404  24.979  0.00  0.00    +0.339 C 
ATOM     44  C   UNL     1       4.685  -5.598  23.614  0.00  0.00    +0.214 C 
ATOM     45  C   UNL     1       3.179  -5.767  23.867  0.00  0.00    +0.180 C 
ATOM     46  C   UNL     1       2.932  -6.959  24.805  0.00  0.00    +0.171 C 
BRANCH  46  47
ATOM     47  O   UNL     1       3.239  -8.188  24.136  0.00  0.00    -0.387 OA
ATOM     48  H   UNL     1       2.587  -8.856  24.451  0.00  0.00    +0.210 HD
ENDBRANCH  46  47
BRANCH  45  49
ATOM     49  O   UNL     1       2.448  -5.900  22.645  0.00  0.00    -0.386 OA
ATOM     50  H   UNL     1       1.497  -5.912  22.871  0.00  0.00    +0.210 HD
ENDBRANCH  45  49
BRANCH  44  51
ATOM     51  O   UNL     1       5.209  -6.783  22.966  0.00  0.00    -0.383 OA
ATOM     52  H   UNL     1       4.654  -6.920  22.170  0.00  0.00    +0.210 HD
ENDBRANCH  44  51
ENDBRANCH  40  43
ENDBRANCH   1  40
TORSDOF 16
ENDMDL
MODEL 4
REMARK VINA RESULT:      -6.8      1.827      3.457
REMARK  Name = 
REMARK  16 active torsions:
REMARK  status: ('A' for Active; 'I' for Inactive)
REMARK    1  A    between atoms: C_2  and  O_47
REMARK    2  A    between atoms: C_4  and  O_46
REMARK    3  A    between atoms: C_6  and  O_45
REMARK    4  A    between atoms: C_7  and  O_10
REMARK    5  A    between atoms: O_10  and  C_11
REMARK    6  A    between atoms: C_13  and  O_44
REMARK    7  A    between atoms: C_18  and  C_36
REMARK    8  A    between atoms: C_19  and  O_22
REMARK    9  A    between atoms: O_22  and  C_23
REMARK   10  A    between atoms: C_25  and  O_35
REMARK   11  A    between atoms: C_26  and  O_34
REMARK   12  A    between atoms: C_27  and  O_33
REMARK   13  A    between atoms: C_29  and  C_31
REMARK   14  A    between atoms: C_31  and  O_32
REMARK   15  A    between atoms: C_38  and  O_43
REMARK   16  A    between atoms: C_39  and  O_42
REMARK                            x       y       z     vdW  Elec       q    Type
REMARK                         _______ _______ _______ _____ _____    ______ ____
ROOT
ATOM      1  C   UNL     1       8.950  -0.990  24.027  0.00  0.00    +0.131 A 
ATOM      2  C   UNL     1       7.739  -0.878  24.712  0.00  0.00    +0.093 A 
ATOM      3  C   UNL     1       7.294  -1.937  25.515  0.00  0.00    +0.147 A 
ATOM      4  O   UNL     1       6.127  -1.748  26.215  0.00  0.00    -0.451 OA
ATOM      5  C   UNL     1       5.526  -2.845  26.827  0.00  0.00    +0.181 A 
ATOM      6  C   UNL     1       6.106  -4.064  26.933  0.00  0.00    +0.214 A 
ATOM      7  C   UNL     1       7.551  -4.137  26.553  0.00  0.00    +0.238 A 
ATOM      8  O   UNL     1       8.320  -4.934  27.074  0.00  0.00    -0.283 OA
ATOM      9  C   UNL     1       8.035  -3.110  25.619  0.00  0.00    +0.109 A 
ATOM     10  C   UNL     1       9.222  -3.234  24.892  0.00  0.00    +0.135 A 
ATOM     11  C   UNL     1       9.675  -2.183  24.094  0.00  0.00    +0.092 A 
ENDROOT
BRANCH   5  12
ATOM     12  C   UNL     1       4.187  -2.518  27.398  0.00  0.00    +0.025 A 
ATOM     13  C   UNL     1       4.061  -2.185  28.762  0.00  0.00    +0.015 A 
ATOM     14  C   UNL     1       2.805  -1.953  29.343  0.00  0.00    +0.050 A 
ATOM     15  C   UNL     1       1.667  -2.048  28.563  0.00  0.00    +0.158 A 
ATOM     16  C   UNL     1       1.760  -2.395  27.224  0.00  0.00    +0.159 A 
ATOM     17  C   UNL     1       3.011  -2.648  26.642  0.00  0.00    +0.060 A 
BRANCH  16  18
ATOM     18  O   UNL     1       0.601  -2.477  26.508  0.00  0.00    -0.503 OA
ATOM     19  H   UNL     1      -0.159  -2.544  27.113  0.00  0.00    +0.292 HD
ENDBRANCH  16  18
BRANCH  15  20
ATOM     20  O   UNL     1       0.444  -1.837  29.132  0.00  0.00    -0.503 OA
ATOM     21  H   UNL     1       0.471  -0.913  29.453  0.00  0.00    +0.292 HD
ENDBRANCH  15  20
ENDBRANCH   5  12
BRANCH  10  22
ATOM     22  O   UNL     1       9.932  -4.400  24.914  0.00  0.00    -0.506 OA
ATOM     23  H   UNL     1      10.888  -4.220  24.908  0.00  0.00    +0.292 HD
ENDBRANCH  10  22
BRANCH   6  24
ATOM     24  O   UNL     1       5.393  -5.153  27.409  0.00  0.00    -0.453 OA
BRANCH  24  25
ATOM     25  C   UNL     1       5.511  -6.444  26.779  0.00  0.00    +0.340 C 
ATOM     26  O   UNL     1       5.854  -6.395  25.391  0.00  0.00    -0.331 OA
ATOM     27  C   UNL     1       4.871  -5.853  24.491  0.00  0.00    +0.179 C 
ATOM     28  C   UNL     1       3.463  -6.427  24.700  0.00  0.00    +0.177 C 
ATOM     29  C   UNL     1       3.085  -6.411  26.172  0.00  0.00    +0.180 C 
ATOM     30  C   UNL     1       4.154  -7.149  26.985  0.00  0.00    +0.214 C 
BRANCH  30  31
ATOM     31  O   UNL     1       3.730  -7.171  28.362  0.00  0.00    -0.383 OA
ATOM     32  H   UNL     1       4.150  -6.401  28.783  0.00  0.00    +0.210 HD
ENDBRANCH  30  31
BRANCH  29  33
ATOM     33  O   UNL     1       1.816  -7.064  26.334  0.00  0.00    -0.386 OA
ATOM     34  H   UNL     1       1.799  -7.795  25.683  0.00  0.00    +0.210 HD
ENDBRANCH  29  33
BRANCH  28  35
ATOM     35  O   UNL     1       3.380  -7.785  24.241  0.00  0.00    -0.386 OA
ATOM     36  H   UNL     1       3.150  -8.309  25.036  0.00  0.00    +0.210 HD
ENDBRANCH  28  35
BRANCH  27  37
ATOM     37  C   UNL     1       5.337  -6.163  23.060  0.00  0.00    +0.190 C 
BRANCH  37  38
ATOM     38  O   UNL     1       4.262  -6.016  22.116  0.00  0.00    -0.392 OA
ATOM     39  H   UNL     1       4.271  -6.810  21.551  0.00  0.00    +0.210 HD
ENDBRANCH  37  38
ENDBRANCH  27  37
ENDBRANCH  24  25
ENDBRANCH   6  24
BRANCH   1  40
ATOM     40  O   UNL     1       9.509  -0.018  23.243  0.00  0.00    -0.461 OA
BRANCH  40  43
ATOM     41  C   UNL     1       8.667   3.209  24.723  0.00  0.00    +0.198 C 
ATOM     42  O   UNL     1       8.506   1.910  24.140  0.00  0.00    -0.337 OA
ATOM     43  C   UNL     1       9.752   1.251  23.877  0.00  0.00    +0.339 C 
ATOM     44  C   UNL     1      10.578   2.094  22.877  0.00  0.00    +0.214 C 
ATOM     45  C   UNL     1      10.850   3.467  23.513  0.00  0.00    +0.180 C 
ATOM     46  C   UNL     1       9.522   4.155  23.871  0.00  0.00    +0.171 C 
BRANCH  46  47
ATOM     47  O   UNL     1       8.824   4.536  22.680  0.00  0.00    -0.387 OA
ATOM     48  H   UNL     1       9.022   5.487  22.523  0.00  0.00    +0.210 HD
ENDBRANCH  46  47
BRANCH  45  49
ATOM     49  O   UNL     1      11.658   4.292  22.669  0.00  0.00    -0.386 OA
ATOM     50  H   UNL     1      12.199   3.700  22.112  0.00  0.00    +0.210 HD
ENDBRANCH  45  49
BRANCH  44  51
ATOM     51  O   UNL     1       9.826   2.263  21.651  0.00  0.00    -0.383 OA
ATOM     52  H   UNL     1      10.491   2.389  20.944  0.00  0.00    +0.210 HD
ENDBRANCH  44  51
ENDBRANCH  40  43
ENDBRANCH   1  40
TORSDOF 16
ENDMDL
MODEL 5
REMARK VINA RESULT:      -6.8      1.692      2.647
REMARK  Name = 
REMARK  16 active torsions:
REMARK  status: ('A' for Active; 'I' for Inactive)
REMARK    1  A    between atoms: C_2  and  O_47
REMARK    2  A    between atoms: C_4  and  O_46
REMARK    3  A    between atoms: C_6  and  O_45
REMARK    4  A    between atoms: C_7  and  O_10
REMARK    5  A    between atoms: O_10  and  C_11
REMARK    6  A    between atoms: C_13  and  O_44
REMARK    7  A    between atoms: C_18  and  C_36
REMARK    8  A    between atoms: C_19  and  O_22
REMARK    9  A    between atoms: O_22  and  C_23
REMARK   10  A    between atoms: C_25  and  O_35
REMARK   11  A    between atoms: C_26  and  O_34
REMARK   12  A    between atoms: C_27  and  O_33
REMARK   13  A    between atoms: C_29  and  C_31
REMARK   14  A    between atoms: C_31  and  O_32
REMARK   15  A    between atoms: C_38  and  O_43
REMARK   16  A    between atoms: C_39  and  O_42
REMARK                            x       y       z     vdW  Elec       q    Type
REMARK                         _______ _______ _______ _____ _____    ______ ____
ROOT
ATOM      1  C   UNL     1       9.354   0.650  24.453  0.00  0.00    +0.131 A 
ATOM      2  C   UNL     1       8.396   0.176  25.351  0.00  0.00    +0.093 A 
ATOM      3  C   UNL     1       8.214  -1.205  25.509  0.00  0.00    +0.147 A 
ATOM      4  O   UNL     1       7.302  -1.614  26.451  0.00  0.00    -0.451 OA
ATOM      5  C   UNL     1       6.916  -2.952  26.474  0.00  0.00    +0.181 A 
ATOM      6  C   UNL     1       7.510  -3.924  25.743  0.00  0.00    +0.214 A 
ATOM      7  C   UNL     1       8.780  -3.539  25.053  0.00  0.00    +0.238 A 
ATOM      8  O   UNL     1       9.674  -4.348  24.841  0.00  0.00    -0.283 OA
ATOM      9  C   UNL     1       8.962  -2.110  24.763  0.00  0.00    +0.109 A 
ATOM     10  C   UNL     1       9.884  -1.627  23.830  0.00  0.00    +0.135 A 
ATOM     11  C   UNL     1      10.075  -0.255  23.670  0.00  0.00    +0.092 A 
ENDROOT
BRANCH   5  12
ATOM     12  C   UNL     1       5.801  -3.208  27.431  0.00  0.00    +0.025 A 
ATOM     13  C   UNL     1       4.807  -2.229  27.641  0.00  0.00    +0.015 A 
ATOM     14  C   UNL     1       3.795  -2.411  28.594  0.00  0.00    +0.050 A 
ATOM     15  C   UNL     1       3.764  -3.574  29.342  0.00  0.00    +0.158 A 
ATOM     16  C   UNL     1       4.740  -4.544  29.172  0.00  0.00    +0.159 A 
ATOM     17  C   UNL     1       5.768  -4.359  28.235  0.00  0.00    +0.060 A 
BRANCH  16  18
ATOM     18  O   UNL     1       4.660  -5.667  29.943  0.00  0.00    -0.503 OA
ATOM     19  H   UNL     1       3.730  -5.856  30.157  0.00  0.00    +0.292 HD
ENDBRANCH  16  18
BRANCH  15  20
ATOM     20  O   UNL     1       2.787  -3.743  30.280  0.00  0.00    -0.503 OA
ATOM     21  H   UNL     1       2.598  -2.843  30.612  0.00  0.00    +0.292 HD
ENDBRANCH  15  20
ENDBRANCH   5  12
BRANCH  10  22
ATOM     22  O   UNL     1      10.578  -2.489  23.031  0.00  0.00    -0.506 OA
ATOM     23  H   UNL     1      10.724  -2.100  22.151  0.00  0.00    +0.292 HD
ENDBRANCH  10  22
BRANCH   6  24
ATOM     24  O   UNL     1       6.976  -5.202  25.688  0.00  0.00    -0.453 OA
BRANCH  24  25
ATOM     25  C   UNL     1       6.488  -5.744  24.446  0.00  0.00    +0.340 C 
ATOM     26  O   UNL     1       6.497  -4.821  23.353  0.00  0.00    -0.331 OA
ATOM     27  C   UNL     1       5.586  -3.710  23.426  0.00  0.00    +0.179 C 
ATOM     28  C   UNL     1       4.154  -4.111  23.808  0.00  0.00    +0.177 C 
ATOM     29  C   UNL     1       4.156  -5.040  25.011  0.00  0.00    +0.180 C 
ATOM     30  C   UNL     1       5.056  -6.247  24.728  0.00  0.00    +0.214 C 
BRANCH  30  31
ATOM     31  O   UNL     1       4.981  -7.134  25.862  0.00  0.00    -0.383 OA
ATOM     32  H   UNL     1       5.678  -6.844  26.476  0.00  0.00    +0.210 HD
ENDBRANCH  30  31
BRANCH  29  33
ATOM     33  O   UNL     1       2.813  -5.485  25.258  0.00  0.00    -0.386 OA
ATOM     34  H   UNL     1       2.489  -5.860  24.414  0.00  0.00    +0.210 HD
ENDBRANCH  29  33
BRANCH  28  35
ATOM     35  O   UNL     1       3.500  -4.795  22.728  0.00  0.00    -0.386 OA
ATOM     36  H   UNL     1       3.249  -5.669  23.095  0.00  0.00    +0.210 HD
ENDBRANCH  28  35
BRANCH  27  37
ATOM     37  C   UNL     1       5.572  -3.036  22.046  0.00  0.00    +0.190 C 
BRANCH  37  38
ATOM     38  O   UNL     1       5.665  -4.006  20.988  0.00  0.00    -0.392 OA
ATOM     39  H   UNL     1       5.757  -4.879  21.411  0.00  0.00    +0.210 HD
ENDBRANCH  37  38
ENDBRANCH  27  37
ENDBRANCH  24  25
ENDBRANCH   6  24
BRANCH   1  40
ATOM     40  O   UNL     1       9.651   1.968  24.234  0.00  0.00    -0.461 OA
BRANCH  40  43
ATOM     41  C   UNL     1       7.277   3.918  22.265  0.00  0.00    +0.198 C 
ATOM     42  O   UNL     1       8.342   3.013  22.585  0.00  0.00    -0.337 OA
ATOM     43  C   UNL     1       8.532   2.841  23.995  0.00  0.00    +0.339 C 
ATOM     44  C   UNL     1       8.891   4.204  24.635  0.00  0.00    +0.214 C 
ATOM     45  C   UNL     1       7.723   5.173  24.391  0.00  0.00    +0.180 C 
ATOM     46  C   UNL     1       7.457   5.310  22.883  0.00  0.00    +0.171 C 
BRANCH  46  47
ATOM     47  O   UNL     1       8.535   6.010  22.250  0.00  0.00    -0.387 OA
ATOM     48  H   UNL     1       8.191   6.352  21.393  0.00  0.00    +0.210 HD
ENDBRANCH  46  47
BRANCH  45  49
ATOM     49  O   UNL     1       7.956   6.446  25.000  0.00  0.00    -0.386 OA
ATOM     50  H   UNL     1       8.520   6.298  25.784  0.00  0.00    +0.210 HD
ENDBRANCH  45  49
BRANCH  44  51
ATOM     51  O   UNL     1      10.096   4.724  24.020  0.00  0.00    -0.383 OA
ATOM     52  H   UNL     1      10.612   5.130  24.746  0.00  0.00    +0.210 HD
ENDBRANCH  44  51
ENDBRANCH  40  43
ENDBRANCH   1  40
TORSDOF 16
ENDMDL
MODEL 6
REMARK VINA RESULT:      -6.8      2.343      4.815
REMARK  Name = 
REMARK  16 active torsions:
REMARK  status: ('A' for Active; 'I' for Inactive)
REMARK    1  A    between atoms: C_2  and  O_47
REMARK    2  A    between atoms: C_4  and  O_46
REMARK    3  A    between atoms: C_6  and  O_45
REMARK    4  A    between atoms: C_7  and  O_10
REMARK    5  A    between atoms: O_10  and  C_11
REMARK    6  A    between atoms: C_13  and  O_44
REMARK    7  A    between atoms: C_18  and  C_36
REMARK    8  A    between atoms: C_19  and  O_22
REMARK    9  A    between atoms: O_22  and  C_23
REMARK   10  A    between atoms: C_25  and  O_35
REMARK   11  A    between atoms: C_26  and  O_34
REMARK   12  A    between atoms: C_27  and  O_33
REMARK   13  A    between atoms: C_29  and  C_31
REMARK   14  A    between atoms: C_31  and  O_32
REMARK   15  A    between atoms: C_38  and  O_43
REMARK   16  A    between atoms: C_39  and  O_42
REMARK                            x       y       z     vdW  Elec       q    Type
REMARK                         _______ _______ _______ _____ _____    ______ ____
ROOT
ATOM      1  C   UNL     1       7.578   0.968  25.416  0.00  0.00    +0.131 A 
ATOM      2  C   UNL     1       6.902  -0.077  24.785  0.00  0.00    +0.093 A 
ATOM      3  C   UNL     1       5.902  -0.776  25.474  0.00  0.00    +0.147 A 
ATOM      4  O   UNL     1       5.228  -1.754  24.783  0.00  0.00    -0.451 OA
ATOM      5  C   UNL     1       4.405  -2.628  25.489  0.00  0.00    +0.181 A 
ATOM      6  C   UNL     1       4.080  -2.474  26.794  0.00  0.00    +0.214 A 
ATOM      7  C   UNL     1       4.468  -1.170  27.416  0.00  0.00    +0.238 A 
ATOM      8  O   UNL     1       3.820  -0.665  28.323  0.00  0.00    -0.283 OA
ATOM      9  C   UNL     1       5.591  -0.455  26.792  0.00  0.00    +0.109 A 
ATOM     10  C   UNL     1       6.305   0.560  27.434  0.00  0.00    +0.135 A 
ATOM     11  C   UNL     1       7.299   1.265  26.753  0.00  0.00    +0.092 A 
ENDROOT
BRANCH   5  12
ATOM     12  C   UNL     1       3.880  -3.733  24.635  0.00  0.00    +0.025 A 
ATOM     13  C   UNL     1       2.513  -4.077  24.682  0.00  0.00    +0.015 A 
ATOM     14  C   UNL     1       2.009  -5.163  23.951  0.00  0.00    +0.050 A 
ATOM     15  C   UNL     1       2.866  -5.911  23.164  0.00  0.00    +0.158 A 
ATOM     16  C   UNL     1       4.219  -5.608  23.116  0.00  0.00    +0.159 A 
ATOM     17  C   UNL     1       4.733  -4.535  23.860  0.00  0.00    +0.060 A 
BRANCH  16  18
ATOM     18  O   UNL     1       5.015  -6.385  22.326  0.00  0.00    -0.503 OA
ATOM     19  H   UNL     1       5.717  -6.794  22.862  0.00  0.00    +0.292 HD
ENDBRANCH  16  18
BRANCH  15  20
ATOM     20  O   UNL     1       2.378  -6.976  22.466  0.00  0.00    -0.503 OA
ATOM     21  H   UNL     1       3.149  -7.561  22.327  0.00  0.00    +0.292 HD
ENDBRANCH  15  20
ENDBRANCH   5  12
BRANCH  10  22
ATOM     22  O   UNL     1       6.074   0.847  28.748  0.00  0.00    -0.506 OA
ATOM     23  H   UNL     1       6.298   1.774  28.941  0.00  0.00    +0.292 HD
ENDBRANCH  10  22
BRANCH   6  24
ATOM     24  O   UNL     1       3.389  -3.462  27.478  0.00  0.00    -0.453 OA
BRANCH  24  25
ATOM     25  C   UNL     1       4.009  -4.176  28.565  0.00  0.00    +0.340 C 
ATOM     26  O   UNL     1       5.414  -4.397  28.403  0.00  0.00    -0.331 OA
ATOM     27  C   UNL     1       5.820  -5.294  27.354  0.00  0.00    +0.179 C 
ATOM     28  C   UNL     1       5.039  -6.616  27.337  0.00  0.00    +0.177 C 
ATOM     29  C   UNL     1       3.544  -6.363  27.443  0.00  0.00    +0.180 C 
ATOM     30  C   UNL     1       3.253  -5.517  28.687  0.00  0.00    +0.214 C 
BRANCH  30  31
ATOM     31  O   UNL     1       1.824  -5.353  28.790  0.00  0.00    -0.383 OA
ATOM     32  H   UNL     1       1.569  -4.762  28.060  0.00  0.00    +0.210 HD
ENDBRANCH  30  31
BRANCH  29  33
ATOM     33  O   UNL     1       2.864  -7.624  27.545  0.00  0.00    -0.386 OA
ATOM     34  H   UNL     1       3.530  -8.270  27.856  0.00  0.00    +0.210 HD
ENDBRANCH  29  33
BRANCH  28  35
ATOM     35  O   UNL     1       5.419  -7.459  28.435  0.00  0.00    -0.386 OA
ATOM     36  H   UNL     1       6.285  -7.838  28.177  0.00  0.00    +0.210 HD
ENDBRANCH  28  35
BRANCH  27  37
ATOM     37  C   UNL     1       7.313  -5.590  27.554  0.00  0.00    +0.190 C 
BRANCH  37  38
ATOM     38  O   UNL     1       7.952  -5.929  26.311  0.00  0.00    -0.392 OA
ATOM     39  H   UNL     1       7.696  -5.244  25.665  0.00  0.00    +0.210 HD
ENDBRANCH  37  38
ENDBRANCH  27  37
ENDBRANCH  24  25
ENDBRANCH   6  24
BRANCH   1  40
ATOM     40  O   UNL     1       8.545   1.747  24.842  0.00  0.00    -0.461 OA
BRANCH  40  43
ATOM     41  C   UNL     1       6.685   4.772  24.001  0.00  0.00    +0.198 C 
ATOM     42  O   UNL     1       7.004   3.382  24.149  0.00  0.00    -0.337 OA
ATOM     43  C   UNL     1       8.272   3.159  24.780  0.00  0.00    +0.339 C 
ATOM     44  C   UNL     1       9.393   3.789  23.919  0.00  0.00    +0.214 C 
ATOM     45  C   UNL     1       9.131   5.300  23.817  0.00  0.00    +0.180 C 
ATOM     46  C   UNL     1       7.741   5.556  23.212  0.00  0.00    +0.171 C 
BRANCH  46  47
ATOM     47  O   UNL     1       7.725   5.179  21.830  0.00  0.00    -0.387 OA
ATOM     48  H   UNL     1       7.520   5.992  21.313  0.00  0.00    +0.210 HD
ENDBRANCH  46  47
BRANCH  45  49
ATOM     49  O   UNL     1      10.157   5.967  23.076  0.00  0.00    -0.386 OA
ATOM     50  H   UNL     1      10.915   5.354  23.008  0.00  0.00    +0.210 HD
ENDBRANCH  45  49
BRANCH  44  51
ATOM     51  O   UNL     1       9.374   3.199  22.596  0.00  0.00    -0.383 OA
ATOM     52  H   UNL     1       9.972   3.748  22.049  0.00  0.00    +0.210 HD
ENDBRANCH  44  51
ENDBRANCH  40  43
ENDBRANCH   1  40
TORSDOF 16
ENDMDL
MODEL 7
REMARK VINA RESULT:      -6.7      2.401      4.934
REMARK  Name = 
REMARK  16 active torsions:
REMARK  status: ('A' for Active; 'I' for Inactive)
REMARK    1  A    between atoms: C_2  and  O_47
REMARK    2  A    between atoms: C_4  and  O_46
REMARK    3  A    between atoms: C_6  and  O_45
REMARK    4  A    between atoms: C_7  and  O_10
REMARK    5  A    between atoms: O_10  and  C_11
REMARK    6  A    between atoms: C_13  and  O_44
REMARK    7  A    between atoms: C_18  and  C_36
REMARK    8  A    between atoms: C_19  and  O_22
REMARK    9  A    between atoms: O_22  and  C_23
REMARK   10  A    between atoms: C_25  and  O_35
REMARK   11  A    between atoms: C_26  and  O_34
REMARK   12  A    between atoms: C_27  and  O_33
REMARK   13  A    between atoms: C_29  and  C_31
REMARK   14  A    between atoms: C_31  and  O_32
REMARK   15  A    between atoms: C_38  and  O_43
REMARK   16  A    between atoms: C_39  and  O_42
REMARK                            x       y       z     vdW  Elec       q    Type
REMARK                         _______ _______ _______ _____ _____    ______ ____
ROOT
ATOM      1  C   UNL     1       6.265   2.300  25.305  0.00  0.00    +0.131 A 
ATOM      2  C   UNL     1       6.270   1.071  24.643  0.00  0.00    +0.093 A 
ATOM      3  C   UNL     1       5.955  -0.099  25.347  0.00  0.00    +0.147 A 
ATOM      4  O   UNL     1       5.915  -1.272  24.632  0.00  0.00    -0.451 OA
ATOM      5  C   UNL     1       5.847  -2.478  25.324  0.00  0.00    +0.181 A 
ATOM      6  C   UNL     1       5.637  -2.574  26.658  0.00  0.00    +0.214 A 
ATOM      7  C   UNL     1       5.249  -1.308  27.352  0.00  0.00    +0.238 A 
ATOM      8  O   UNL     1       4.531  -1.305  28.344  0.00  0.00    -0.283 OA
ATOM      9  C   UNL     1       5.660  -0.053  26.706  0.00  0.00    +0.109 A 
ATOM     10  C   UNL     1       5.705   1.174  27.372  0.00  0.00    +0.135 A 
ATOM     11  C   UNL     1       6.013   2.345  26.678  0.00  0.00    +0.092 A 
ENDROOT
BRANCH   5  12
ATOM     12  C   UNL     1       5.983  -3.661  24.425  0.00  0.00    +0.025 A 
ATOM     13  C   UNL     1       7.259  -4.088  24.004  0.00  0.00    +0.015 A 
ATOM     14  C   UNL     1       7.411  -5.145  23.095  0.00  0.00    +0.050 A 
ATOM     15  C   UNL     1       6.289  -5.787  22.603  0.00  0.00    +0.158 A 
ATOM     16  C   UNL     1       5.021  -5.374  22.983  0.00  0.00    +0.159 A 
ATOM     17  C   UNL     1       4.861  -4.303  23.877  0.00  0.00    +0.060 A 
BRANCH  16  18
ATOM     18  O   UNL     1       3.953  -6.042  22.461  0.00  0.00    -0.503 OA
ATOM     19  H   UNL     1       4.055  -6.130  21.497  0.00  0.00    +0.292 HD
ENDBRANCH  16  18
BRANCH  15  20
ATOM     20  O   UNL     1       6.437  -6.805  21.707  0.00  0.00    -0.503 OA
ATOM     21  H   UNL     1       6.999  -6.437  20.997  0.00  0.00    +0.292 HD
ENDBRANCH  15  20
ENDBRANCH   5  12
BRANCH  10  22
ATOM     22  O   UNL     1       5.494   1.241  28.720  0.00  0.00    -0.506 OA
ATOM     23  H   UNL     1       4.957   2.021  28.945  0.00  0.00    +0.292 HD
ENDBRANCH  10  22
BRANCH   6  24
ATOM     24  O   UNL     1       5.740  -3.793  27.310  0.00  0.00    -0.453 OA
BRANCH  24  25
ATOM     25  C   UNL     1       4.652  -4.737  27.283  0.00  0.00    +0.340 C 
ATOM     26  O   UNL     1       3.646  -4.508  28.275  0.00  0.00    -0.331 OA
ATOM     27  C   UNL     1       4.020  -4.714  29.649  0.00  0.00    +0.179 C 
ATOM     28  C   UNL     1       4.757  -6.039  29.893  0.00  0.00    +0.177 C 
ATOM     29  C   UNL     1       5.866  -6.239  28.873  0.00  0.00    +0.180 C 
ATOM     30  C   UNL     1       5.288  -6.133  27.458  0.00  0.00    +0.214 C 
BRANCH  30  31
ATOM     31  O   UNL     1       6.352  -6.391  26.521  0.00  0.00    -0.383 OA
ATOM     32  H   UNL     1       6.901  -5.588  26.512  0.00  0.00    +0.210 HD
ENDBRANCH  30  31
BRANCH  29  33
ATOM     33  O   UNL     1       6.446  -7.539  29.064  0.00  0.00    -0.386 OA
ATOM     34  H   UNL     1       7.414  -7.404  29.095  0.00  0.00    +0.210 HD
ENDBRANCH  29  33
BRANCH  28  35
ATOM     35  O   UNL     1       3.863  -7.159  29.793  0.00  0.00    -0.386 OA
ATOM     36  H   UNL     1       3.961  -7.481  28.872  0.00  0.00    +0.210 HD
ENDBRANCH  28  35
BRANCH  27  37
ATOM     37  C   UNL     1       2.732  -4.689  30.485  0.00  0.00    +0.190 C 
BRANCH  37  38
ATOM     38  O   UNL     1       1.628  -5.265  29.764  0.00  0.00    -0.392 OA
ATOM     39  H   UNL     1       1.382  -4.628  29.068  0.00  0.00    +0.210 HD
ENDBRANCH  37  38
ENDBRANCH  27  37
ENDBRANCH  24  25
ENDBRANCH   6  24
BRANCH   1  40
ATOM     40  O   UNL     1       6.519   3.513  24.725  0.00  0.00    -0.461 OA
BRANCH  40  43
ATOM     41  C   UNL     1       9.054   6.106  25.126  0.00  0.00    +0.198 C 
ATOM     42  O   UNL     1       7.770   5.487  24.975  0.00  0.00    -0.337 OA
ATOM     43  C   UNL     1       7.835   4.056  24.934  0.00  0.00    +0.339 C 
ATOM     44  C   UNL     1       8.693   3.615  23.724  0.00  0.00    +0.214 C 
ATOM     45  C   UNL     1      10.109   4.186  23.903  0.00  0.00    +0.180 C 
ATOM     46  C   UNL     1      10.048   5.717  24.026  0.00  0.00    +0.171 C 
BRANCH  46  47
ATOM     47  O   UNL     1       9.672   6.300  22.773  0.00  0.00    -0.387 OA
ATOM     48  H   UNL     1      10.166   5.818  22.071  0.00  0.00    +0.210 HD
ENDBRANCH  46  47
BRANCH  45  49
ATOM     49  O   UNL     1      10.982   3.778  22.847  0.00  0.00    -0.386 OA
ATOM     50  H   UNL     1      10.892   4.428  22.123  0.00  0.00    +0.210 HD
ENDBRANCH  45  49
BRANCH  44  51
ATOM     51  O   UNL     1       8.108   4.131  22.503  0.00  0.00    -0.383 OA
ATOM     52  H   UNL     1       8.470   3.581  21.779  0.00  0.00    +0.210 HD
ENDBRANCH  44  51
ENDBRANCH  40  43
ENDBRANCH   1  40
TORSDOF 16
ENDMDL
MODEL 8
REMARK VINA RESULT:      -6.7      2.554      9.704
REMARK  Name = 
REMARK  16 active torsions:
REMARK  status: ('A' for Active; 'I' for Inactive)
REMARK    1  A    between atoms: C_2  and  O_47
REMARK    2  A    between atoms: C_4  and  O_46
REMARK    3  A    between atoms: C_6  and  O_45
REMARK    4  A    between atoms: C_7  and  O_10
REMARK    5  A    between atoms: O_10  and  C_11
REMARK    6  A    between atoms: C_13  and  O_44
REMARK    7  A    between atoms: C_18  and  C_36
REMARK    8  A    between atoms: C_19  and  O_22
REMARK    9  A    between atoms: O_22  and  C_23
REMARK   10  A    between atoms: C_25  and  O_35
REMARK   11  A    between atoms: C_26  and  O_34
REMARK   12  A    between atoms: C_27  and  O_33
REMARK   13  A    between atoms: C_29  and  C_31
REMARK   14  A    between atoms: C_31  and  O_32
REMARK   15  A    between atoms: C_38  and  O_43
REMARK   16  A    between atoms: C_39  and  O_42
REMARK                            x       y       z     vdW  Elec       q    Type
REMARK                         _______ _______ _______ _____ _____    ______ ____
ROOT
ATOM      1  C   UNL     1       4.909  -5.026  25.213  0.00  0.00    +0.131 A 
ATOM      2  C   UNL     1       5.824  -4.154  24.621  0.00  0.00    +0.093 A 
ATOM      3  C   UNL     1       5.991  -2.863  25.143  0.00  0.00    +0.147 A 
ATOM      4  O   UNL     1       6.949  -2.069  24.560  0.00  0.00    -0.451 OA
ATOM      5  C   UNL     1       6.983  -0.715  24.880  0.00  0.00    +0.181 A 
ATOM      6  C   UNL     1       6.247  -0.151  25.867  0.00  0.00    +0.214 A 
ATOM      7  C   UNL     1       5.536  -1.102  26.777  0.00  0.00    +0.238 A 
ATOM      8  O   UNL     1       5.314  -0.834  27.951  0.00  0.00    -0.283 OA
ATOM      9  C   UNL     1       5.238  -2.434  26.230  0.00  0.00    +0.109 A 
ATOM     10  C   UNL     1       4.289  -3.296  26.786  0.00  0.00    +0.135 A 
ATOM     11  C   UNL     1       4.119  -4.584  26.277  0.00  0.00    +0.092 A 
ENDROOT
BRANCH   5  12
ATOM     12  C   UNL     1       7.958   0.045  24.046  0.00  0.00    +0.025 A 
ATOM     13  C   UNL     1       9.072   0.668  24.647  0.00  0.00    +0.015 A 
ATOM     14  C   UNL     1       9.959   1.456  23.898  0.00  0.00    +0.050 A 
ATOM     15  C   UNL     1       9.743   1.623  22.542  0.00  0.00    +0.158 A 
ATOM     16  C   UNL     1       8.644   1.040  21.929  0.00  0.00    +0.159 A 
ATOM     17  C   UNL     1       7.741   0.268  22.676  0.00  0.00    +0.060 A 
BRANCH  16  18
ATOM     18  O   UNL     1       8.482   1.246  20.590  0.00  0.00    -0.503 OA
ATOM     19  H   UNL     1       7.779   0.665  20.248  0.00  0.00    +0.292 HD
ENDBRANCH  16  18
BRANCH  15  20
ATOM     20  O   UNL     1      10.597   2.402  21.818  0.00  0.00    -0.503 OA
ATOM     21  H   UNL     1      11.489   2.169  22.144  0.00  0.00    +0.292 HD
ENDBRANCH  15  20
ENDBRANCH   5  12
BRANCH  10  22
ATOM     22  O   UNL     1       3.483  -2.877  27.805  0.00  0.00    -0.506 OA
ATOM     23  H   UNL     1       2.898  -2.159  27.506  0.00  0.00    +0.292 HD
ENDBRANCH  10  22
BRANCH   6  24
ATOM     24  O   UNL     1       6.206   1.224  26.029  0.00  0.00    -0.453 OA
BRANCH  24  25
ATOM     25  C   UNL     1       5.094   1.993  25.531  0.00  0.00    +0.340 C 
ATOM     26  O   UNL     1       5.185   2.334  24.144  0.00  0.00    -0.331 OA
ATOM     27  C   UNL     1       6.218   3.260  23.764  0.00  0.00    +0.179 C 
ATOM     28  C   UNL     1       6.284   4.509  24.654  0.00  0.00    +0.177 C 
ATOM     29  C   UNL     1       6.253   4.127  26.125  0.00  0.00    +0.180 C 
ATOM     30  C   UNL     1       5.020   3.262  26.406  0.00  0.00    +0.214 C 
BRANCH  30  31
ATOM     31  O   UNL     1       4.989   2.976  27.818  0.00  0.00    -0.383 OA
ATOM     32  H   UNL     1       4.087   2.664  28.008  0.00  0.00    +0.210 HD
ENDBRANCH  30  31
BRANCH  29  33
ATOM     33  O   UNL     1       6.195   5.325  26.915  0.00  0.00    -0.386 OA
ATOM     34  H   UNL     1       5.254   5.452  27.151  0.00  0.00    +0.210 HD
ENDBRANCH  29  33
BRANCH  28  35
ATOM     35  O   UNL     1       5.174   5.385  24.405  0.00  0.00    -0.386 OA
ATOM     36  H   UNL     1       5.373   6.199  24.914  0.00  0.00    +0.210 HD
ENDBRANCH  28  35
BRANCH  27  37
ATOM     37  C   UNL     1       5.943   3.685  22.314  0.00  0.00    +0.190 C 
BRANCH  37  38
ATOM     38  O   UNL     1       6.819   4.750  21.905  0.00  0.00    -0.392 OA
ATOM     39  H   UNL     1       7.726   4.476  22.137  0.00  0.00    +0.210 HD
ENDBRANCH  37  38
ENDBRANCH  27  37
ENDBRANCH  24  25
ENDBRANCH   6  24
BRANCH   1  40
ATOM     40  O   UNL     1       4.680  -6.318  24.822  0.00  0.00    -0.461 OA
BRANCH  40  43
ATOM     41  C   UNL     1       1.867  -8.570  24.256  0.00  0.00    +0.198 C 
ATOM     42  O   UNL     1       3.208  -8.118  24.479  0.00  0.00    -0.337 OA
ATOM     43  C   UNL     1       3.302  -6.699  24.661  0.00  0.00    +0.339 C 
ATOM     44  C   UNL     1       2.790  -5.982  23.389  0.00  0.00    +0.214 C 
ATOM     45  C   UNL     1       1.319  -6.374  23.174  0.00  0.00    +0.180 C 
ATOM     46  C   UNL     1       1.193  -7.901  23.052  0.00  0.00    +0.171 C 
BRANCH  46  47
ATOM     47  O   UNL     1       1.781  -8.352  21.826  0.00  0.00    -0.387 OA
ATOM     48  H   UNL     1       2.307  -7.601  21.468  0.00  0.00    +0.210 HD
ENDBRANCH  46  47
BRANCH  45  49
ATOM     49  O   UNL     1       0.755  -5.708  22.041  0.00  0.00    -0.386 OA
ATOM     50  H   UNL     1       1.106  -6.143  21.239  0.00  0.00    +0.210 HD
ENDBRANCH  45  49
BRANCH  44  51
ATOM     51  O   UNL     1       3.580  -6.400  22.248  0.00  0.00    -0.383 OA
ATOM     52  H   UNL     1       4.482  -6.053  22.406  0.00  0.00    +0.210 HD
ENDBRANCH  44  51
ENDBRANCH  40  43
ENDBRANCH   1  40
TORSDOF 16
ENDMDL
MODEL 9
REMARK VINA RESULT:      -6.6      2.657      9.595
REMARK  Name = 
REMARK  16 active torsions:
REMARK  status: ('A' for Active; 'I' for Inactive)
REMARK    1  A    between atoms: C_2  and  O_47
REMARK    2  A    between atoms: C_4  and  O_46
REMARK    3  A    between atoms: C_6  and  O_45
REMARK    4  A    between atoms: C_7  and  O_10
REMARK    5  A    between atoms: O_10  and  C_11
REMARK    6  A    between atoms: C_13  and  O_44
REMARK    7  A    between atoms: C_18  and  C_36
REMARK    8  A    between atoms: C_19  and  O_22
REMARK    9  A    between atoms: O_22  and  C_23
REMARK   10  A    between atoms: C_25  and  O_35
REMARK   11  A    between atoms: C_26  and  O_34
REMARK   12  A    between atoms: C_27  and  O_33
REMARK   13  A    between atoms: C_29  and  C_31
REMARK   14  A    between atoms: C_31  and  O_32
REMARK   15  A    between atoms: C_38  and  O_43
REMARK   16  A    between atoms: C_39  and  O_42
REMARK                            x       y       z     vdW  Elec       q    Type
REMARK                         _______ _______ _______ _____ _____    ______ ____
ROOT
ATOM      1  C   UNL     1       6.911  -3.754  24.839  0.00  0.00    +0.131 A 
ATOM      2  C   UNL     1       6.137  -2.598  24.744  0.00  0.00    +0.093 A 
ATOM      3  C   UNL     1       6.709  -1.416  24.253  0.00  0.00    +0.147 A 
ATOM      4  O   UNL     1       5.884  -0.325  24.123  0.00  0.00    -0.451 OA
ATOM      5  C   UNL     1       6.454   0.921  23.873  0.00  0.00    +0.181 A 
ATOM      6  C   UNL     1       7.760   1.109  23.571  0.00  0.00    +0.214 A 
ATOM      7  C   UNL     1       8.551  -0.129  23.289  0.00  0.00    +0.238 A 
ATOM      8  O   UNL     1       9.500  -0.130  22.515  0.00  0.00    -0.283 OA
ATOM      9  C   UNL     1       8.049  -1.376  23.881  0.00  0.00    +0.109 A 
ATOM     10  C   UNL     1       8.831  -2.526  24.025  0.00  0.00    +0.135 A 
ATOM     11  C   UNL     1       8.268  -3.708  24.508  0.00  0.00    +0.092 A 
ENDROOT
BRANCH   5  12
ATOM     12  C   UNL     1       5.454   2.027  23.928  0.00  0.00    +0.025 A 
ATOM     13  C   UNL     1       4.687   2.233  25.094  0.00  0.00    +0.015 A 
ATOM     14  C   UNL     1       3.685   3.212  25.144  0.00  0.00    +0.050 A 
ATOM     15  C   UNL     1       3.443   3.997  24.031  0.00  0.00    +0.158 A 
ATOM     16  C   UNL     1       4.168   3.803  22.864  0.00  0.00    +0.159 A 
ATOM     17  C   UNL     1       5.158   2.810  22.801  0.00  0.00    +0.060 A 
BRANCH  16  18
ATOM     18  O   UNL     1       3.881   4.604  21.798  0.00  0.00    -0.503 OA
ATOM     19  H   UNL     1       4.216   4.200  20.979  0.00  0.00    +0.292 HD
ENDBRANCH  16  18
BRANCH  15  20
ATOM     20  O   UNL     1       2.458   4.940  24.075  0.00  0.00    -0.503 OA
ATOM     21  H   UNL     1       2.646   5.463  24.879  0.00  0.00    +0.292 HD
ENDBRANCH  15  20
ENDBRANCH   5  12
BRANCH  10  22
ATOM     22  O   UNL     1      10.165  -2.497  23.740  0.00  0.00    -0.506 OA
ATOM     23  H   UNL     1      10.645  -1.961  24.395  0.00  0.00    +0.292 HD
ENDBRANCH  10  22
BRANCH   6  24
ATOM     24  O   UNL     1       8.297   2.385  23.492  0.00  0.00    -0.453 OA
BRANCH  24  25
ATOM     25  C   UNL     1       9.009   2.955  24.606  0.00  0.00    +0.340 C 
ATOM     26  O   UNL     1       8.169   3.507  25.625  0.00  0.00    -0.331 OA
ATOM     27  C   UNL     1       7.412   4.682  25.285  0.00  0.00    +0.179 C 
ATOM     28  C   UNL     1       8.244   5.772  24.593  0.00  0.00    +0.177 C 
ATOM     29  C   UNL     1       9.082   5.181  23.469  0.00  0.00    +0.180 C 
ATOM     30  C   UNL     1       9.940   4.035  24.015  0.00  0.00    +0.214 C 
BRANCH  30  31
ATOM     31  O   UNL     1      10.765   3.546  22.940  0.00  0.00    -0.383 OA
ATOM     32  H   UNL     1      10.468   4.013  22.140  0.00  0.00    +0.210 HD
ENDBRANCH  30  31
BRANCH  29  33
ATOM     33  O   UNL     1       9.930   6.208  22.932  0.00  0.00    -0.386 OA
ATOM     34  H   UNL     1       9.341   6.951  22.691  0.00  0.00    +0.210 HD
ENDBRANCH  29  33
BRANCH  28  35
ATOM     35  O   UNL     1       9.139   6.410  25.517  0.00  0.00    -0.386 OA
ATOM     36  H   UNL     1       9.606   7.091  24.990  0.00  0.00    +0.210 HD
ENDBRANCH  28  35
BRANCH  27  37
ATOM     37  C   UNL     1       6.826   5.245  26.588  0.00  0.00    +0.190 C 
BRANCH  37  38
ATOM     38  O   UNL     1       7.770   5.153  27.670  0.00  0.00    -0.392 OA
ATOM     39  H   UNL     1       8.144   6.044  27.796  0.00  0.00    +0.210 HD
ENDBRANCH  37  38
ENDBRANCH  27  37
ENDBRANCH  24  25
ENDBRANCH   6  24
BRANCH   1  40
ATOM     40  O   UNL     1       6.463  -4.974  25.266  0.00  0.00    -0.461 OA
BRANCH  40  43
ATOM     41  C   UNL     1       4.676  -3.797  28.221  0.00  0.00    +0.198 C 
ATOM     42  O   UNL     1       5.634  -3.849  27.156  0.00  0.00    -0.337 OA
ATOM     43  C   UNL     1       5.433  -4.958  26.271  0.00  0.00    +0.339 C 
ATOM     44  C   UNL     1       5.569  -6.280  27.065  0.00  0.00    +0.214 C 
ATOM     45  C   UNL     1       4.490  -6.298  28.160  0.00  0.00    +0.180 C 
ATOM     46  C   UNL     1       4.645  -5.071  29.073  0.00  0.00    +0.171 C 
BRANCH  46  47
ATOM     47  O   UNL     1       5.838  -5.185  29.858  0.00  0.00    -0.387 OA
ATOM     48  H   UNL     1       5.593  -4.961  30.785  0.00  0.00    +0.210 HD
ENDBRANCH  46  47
BRANCH  45  49
ATOM     49  O   UNL     1       4.515  -7.516  28.908  0.00  0.00    -0.386 OA
ATOM     50  H   UNL     1       5.276  -8.041  28.590  0.00  0.00    +0.210 HD
ENDBRANCH  45  49
BRANCH  44  51
ATOM     51  O   UNL     1       6.883  -6.346  27.671  0.00  0.00    -0.383 OA
ATOM     52  H   UNL     1       7.422  -6.910  27.079  0.00  0.00    +0.210 HD
ENDBRANCH  44  51
ENDBRANCH  40  43
ENDBRANCH   1  40
TORSDOF 16
ENDMDL
