MODEL 1
REMARK VINA RESULT:      -6.8      0.000      0.000
REMARK  Name = 
REMARK  10 active torsions:
REMARK  status: ('A' for Active; 'I' for Inactive)
REMARK    1  A    between atoms: C_1  and  O_2
REMARK    2  A    between atoms: O_2  and  C_3
REMARK    3  A    between atoms: C_4  and  O_25
REMARK    4  A    between atoms: C_6  and  C_9
REMARK    5  A    between atoms: C_10  and  O_23
REMARK    6  A    between atoms: C_17  and  O_22
REMARK    7  A    between atoms: C_19  and  O_20
REMARK    8  A    between atoms: O_20  and  C_21
REMARK    9  A    between atoms: O_23  and  C_24
REMARK   10  A    between atoms: O_25  and  C_26
REMARK                            x       y       z     vdW  Elec       q    Type
REMARK                         _______ _______ _______ _____ _____    ______ ____
ROOT
ATOM      1  C   UNL     1       7.863  -2.122  24.242  0.00  0.00    +0.181 A 
ATOM      2  O   UNL     1       7.150  -2.895  23.331  0.00  0.00    -0.451 OA
ATOM      3  C   UNL     1       6.457  -4.000  23.783  0.00  0.00    +0.147 A 
ATOM      4  C   UNL     1       5.583  -4.584  22.859  0.00  0.00    +0.092 A 
ATOM      5  C   UNL     1       4.867  -5.709  23.227  0.00  0.00    +0.124 A 
ATOM      6  C   UNL     1       5.010  -6.245  24.500  0.00  0.00    +0.092 A 
ATOM      7  C   UNL     1       5.885  -5.682  25.446  0.00  0.00    +0.138 A 
ATOM      8  C   UNL     1       6.630  -4.550  25.066  0.00  0.00    +0.109 A 
ATOM      9  C   UNL     1       7.680  -3.898  25.858  0.00  0.00    +0.238 A 
ATOM     10  O   UNL     1       8.312  -4.494  26.728  0.00  0.00    -0.283 OA
ATOM     11  C   UNL     1       8.074  -2.494  25.528  0.00  0.00    +0.211 A 
ENDROOT
BRANCH   1  15
ATOM     12  C   UNL     1       9.788   1.343  22.578  0.00  0.00    +0.162 A 
ATOM     13  C   UNL     1      10.495   0.382  23.309  0.00  0.00    +0.050 A 
ATOM     14  C   UNL     1       9.867  -0.763  23.794  0.00  0.00    +0.015 A 
ATOM     15  C   UNL     1       8.494  -0.954  23.593  0.00  0.00    +0.025 A 
ATOM     16  C   UNL     1       7.796  -0.038  22.791  0.00  0.00    +0.061 A 
ATOM     17  C   UNL     1       8.431   1.115  22.276  0.00  0.00    +0.162 A 
BRANCH  12  19
ATOM     18  C   UNL     1      10.870   3.364  23.321  0.00  0.00    +0.277 C 
ATOM     19  O   UNL     1      10.565   2.435  22.295  0.00  0.00    -0.491 OA
ENDBRANCH  12  19
BRANCH  17  20
ATOM     20  O   UNL     1       7.783   2.062  21.527  0.00  0.00    -0.491 OA
ATOM     21  C   UNL     1       7.104   3.111  22.203  0.00  0.00    +0.277 C 
ENDBRANCH  17  20
ENDBRANCH   1  15
BRANCH   5  22
ATOM     22  O   UNL     1       4.007  -6.338  22.379  0.00  0.00    -0.507 OA
ATOM     23  H   UNL     1       4.253  -6.132  21.462  0.00  0.00    +0.292 HD
ENDBRANCH   5  22
BRANCH   7  24
ATOM     24  O   UNL     1       5.813  -6.404  26.601  0.00  0.00    -0.494 OA
ATOM     25  C   UNL     1       4.595  -6.755  27.230  0.00  0.00    +0.277 C 
ENDBRANCH   7  24
BRANCH  11  26
ATOM     26  O   UNL     1       8.709  -1.885  26.573  0.00  0.00    -0.488 OA
ATOM     27  C   UNL     1       8.350  -0.659  27.165  0.00  0.00    +0.277 C 
ENDBRANCH  11  26
TORSDOF 6
ENDMDL
MODEL 2
REMARK VINA RESULT:      -6.7      2.352      3.284
REMARK  Name = 
REMARK  10 active torsions:
REMARK  status: ('A' for Active; 'I' for Inactive)
REMARK    1  A    between atoms: C_1  and  O_2
REMARK    2  A    between atoms: O_2  and  C_3
REMARK    3  A    between atoms: C_4  and  O_25
REMARK    4  A    between atoms: C_6  and  C_9
REMARK    5  A    between atoms: C_10  and  O_23
REMARK    6  A    between atoms: C_17  and  O_22
REMARK    7  A    between atoms: C_19  and  O_20
REMARK    8  A    between atoms: O_20  and  C_21
REMARK    9  A    between atoms: O_23  and  C_24
REMARK   10  A    between atoms: O_25  and  C_26
REMARK                            x       y       z     vdW  Elec       q    Type
REMARK                         _______ _______ _______ _____ _____    ______ ____
ROOT
ATOM      1  C   UNL     1       7.738  -0.258  23.536  0.00  0.00    +0.181 A 
ATOM      2  O   UNL     1       6.740  -1.030  22.949  0.00  0.00    -0.451 OA
ATOM      3  C   UNL     1       6.800  -2.405  23.063  0.00  0.00    +0.147 A 
ATOM      4  C   UNL     1       5.652  -3.094  22.656  0.00  0.00    +0.092 A 
ATOM      5  C   UNL     1       5.639  -4.475  22.718  0.00  0.00    +0.124 A 
ATOM      6  C   UNL     1       6.749  -5.167  23.184  0.00  0.00    +0.092 A 
ATOM      7  C   UNL     1       7.917  -4.500  23.593  0.00  0.00    +0.138 A 
ATOM      8  C   UNL     1       7.940  -3.095  23.511  0.00  0.00    +0.109 A 
ATOM      9  C   UNL     1       9.099  -2.231  23.768  0.00  0.00    +0.238 A 
ATOM     10  O   UNL     1      10.255  -2.636  23.667  0.00  0.00    -0.283 OA
ATOM     11  C   UNL     1       8.875  -0.782  24.056  0.00  0.00    +0.211 A 
ENDROOT
BRANCH   1  15
ATOM     12  C   UNL     1       7.222   3.966  22.925  0.00  0.00    +0.162 A 
ATOM     13  C   UNL     1       7.503   3.094  21.868  0.00  0.00    +0.050 A 
ATOM     14  C   UNL     1       7.613   1.721  22.074  0.00  0.00    +0.015 A 
ATOM     15  C   UNL     1       7.484   1.188  23.363  0.00  0.00    +0.025 A 
ATOM     16  C   UNL     1       7.120   2.045  24.413  0.00  0.00    +0.061 A 
ATOM     17  C   UNL     1       6.984   3.437  24.208  0.00  0.00    +0.162 A 
BRANCH  12  19
ATOM     18  C   UNL     1       8.350   6.095  22.934  0.00  0.00    +0.277 C 
ATOM     19  O   UNL     1       7.268   5.275  22.526  0.00  0.00    -0.491 OA
ENDBRANCH  12  19
BRANCH  17  20
ATOM     20  O   UNL     1       6.676   4.320  25.209  0.00  0.00    -0.491 OA
ATOM     21  C   UNL     1       7.599   4.480  26.278  0.00  0.00    +0.277 C 
ENDBRANCH  17  20
ENDBRANCH   1  15
BRANCH   5  22
ATOM     22  O   UNL     1       4.562  -5.214  22.329  0.00  0.00    -0.507 OA
ATOM     23  H   UNL     1       4.218  -5.706  23.093  0.00  0.00    +0.292 HD
ENDBRANCH   5  22
BRANCH   7  24
ATOM     24  O   UNL     1       8.832  -5.424  24.008  0.00  0.00    -0.494 OA
ATOM     25  C   UNL     1       9.255  -5.558  25.351  0.00  0.00    +0.277 C 
ENDBRANCH   7  24
BRANCH  11  26
ATOM     26  O   UNL     1       9.946  -0.217  24.688  0.00  0.00    -0.488 OA
ATOM     27  C   UNL     1      10.819   0.746  24.146  0.00  0.00    +0.277 C 
ENDBRANCH  11  26
TORSDOF 6
ENDMDL
MODEL 3
REMARK VINA RESULT:      -6.7      1.539      1.820
REMARK  Name = 
REMARK  10 active torsions:
REMARK  status: ('A' for Active; 'I' for Inactive)
REMARK    1  A    between atoms: C_1  and  O_2
REMARK    2  A    between atoms: O_2  and  C_3
REMARK    3  A    between atoms: C_4  and  O_25
REMARK    4  A    between atoms: C_6  and  C_9
REMARK    5  A    between atoms: C_10  and  O_23
REMARK    6  A    between atoms: C_17  and  O_22
REMARK    7  A    between atoms: C_19  and  O_20
REMARK    8  A    between atoms: O_20  and  C_21
REMARK    9  A    between atoms: O_23  and  C_24
REMARK   10  A    between atoms: O_25  and  C_26
REMARK                            x       y       z     vdW  Elec       q    Type
REMARK                         _______ _______ _______ _____ _____    ______ ____
ROOT
ATOM      1  C   UNL     1       8.280  -0.790  24.301  0.00  0.00    +0.181 A 
ATOM      2  O   UNL     1       7.981  -1.479  23.130  0.00  0.00    -0.451 OA
ATOM      3  C   UNL     1       7.467  -2.758  23.214  0.00  0.00    +0.147 A 
ATOM      4  C   UNL     1       6.976  -3.291  22.017  0.00  0.00    +0.092 A 
ATOM      5  C   UNL     1       6.464  -4.576  22.013  0.00  0.00    +0.124 A 
ATOM      6  C   UNL     1       6.432  -5.322  23.183  0.00  0.00    +0.092 A 
ATOM      7  C   UNL     1       6.924  -4.813  24.398  0.00  0.00    +0.138 A 
ATOM      8  C   UNL     1       7.465  -3.513  24.401  0.00  0.00    +0.109 A 
ATOM      9  C   UNL     1       8.137  -2.857  25.528  0.00  0.00    +0.238 A 
ATOM     10  O   UNL     1       8.674  -3.493  26.433  0.00  0.00    -0.283 OA
ATOM     11  C   UNL     1       8.273  -1.369  25.527  0.00  0.00    +0.211 A 
ENDROOT
BRANCH   1  15
ATOM     12  C   UNL     1       9.834   3.171  23.694  0.00  0.00    +0.162 A 
ATOM     13  C   UNL     1      10.671   2.056  23.800  0.00  0.00    +0.050 A 
ATOM     14  C   UNL     1      10.150   0.772  23.941  0.00  0.00    +0.015 A 
ATOM     15  C   UNL     1       8.765   0.578  24.023  0.00  0.00    +0.025 A 
ATOM     16  C   UNL     1       7.918   1.681  23.833  0.00  0.00    +0.061 A 
ATOM     17  C   UNL     1       8.439   2.984  23.667  0.00  0.00    +0.162 A 
BRANCH  12  19
ATOM     18  C   UNL     1      11.910   4.324  23.276  0.00  0.00    +0.277 C 
ATOM     19  O   UNL     1      10.549   4.340  23.675  0.00  0.00    -0.491 OA
ENDBRANCH  12  19
BRANCH  17  20
ATOM     20  O   UNL     1       7.653   4.097  23.525  0.00  0.00    -0.491 OA
ATOM     21  C   UNL     1       7.221   4.460  22.221  0.00  0.00    +0.277 C 
ENDBRANCH  17  20
ENDBRANCH   1  15
BRANCH   5  22
ATOM     22  O   UNL     1       5.979  -5.165  20.884  0.00  0.00    -0.507 OA
ATOM     23  H   UNL     1       6.554  -5.908  20.638  0.00  0.00    +0.292 HD
ENDBRANCH   5  22
BRANCH   7  24
ATOM     24  O   UNL     1       6.756  -5.754  25.373  0.00  0.00    -0.494 OA
ATOM     25  C   UNL     1       5.669  -5.758  26.277  0.00  0.00    +0.277 C 
ENDBRANCH   7  24
BRANCH  11  26
ATOM     26  O   UNL     1       8.505  -0.878  26.780  0.00  0.00    -0.488 OA
ATOM     27  C   UNL     1       7.680   0.015  27.491  0.00  0.00    +0.277 C 
ENDBRANCH  11  26
TORSDOF 6
ENDMDL
MODEL 4
REMARK VINA RESULT:      -6.6      1.919      3.884
REMARK  Name = 
REMARK  10 active torsions:
REMARK  status: ('A' for Active; 'I' for Inactive)
REMARK    1  A    between atoms: C_1  and  O_2
REMARK    2  A    between atoms: O_2  and  C_3
REMARK    3  A    between atoms: C_4  and  O_25
REMARK    4  A    between atoms: C_6  and  C_9
REMARK    5  A    between atoms: C_10  and  O_23
REMARK    6  A    between atoms: C_17  and  O_22
REMARK    7  A    between atoms: C_19  and  O_20
REMARK    8  A    between atoms: O_20  and  C_21
REMARK    9  A    between atoms: O_23  and  C_24
REMARK   10  A    between atoms: O_25  and  C_26
REMARK                            x       y       z     vdW  Elec       q    Type
REMARK                         _______ _______ _______ _____ _____    ______ ____
ROOT
ATOM      1  C   UNL     1       6.634  -4.175  23.781  0.00  0.00    +0.181 A 
ATOM      2  O   UNL     1       6.504  -4.459  25.137  0.00  0.00    -0.451 OA
ATOM      3  C   UNL     1       5.668  -5.483  25.533  0.00  0.00    +0.147 A 
ATOM      4  C   UNL     1       5.769  -5.859  26.877  0.00  0.00    +0.092 A 
ATOM      5  C   UNL     1       4.950  -6.864  27.359  0.00  0.00    +0.124 A 
ATOM      6  C   UNL     1       4.044  -7.494  26.516  0.00  0.00    +0.092 A 
ATOM      7  C   UNL     1       3.918  -7.132  25.163  0.00  0.00    +0.138 A 
ATOM      8  C   UNL     1       4.736  -6.095  24.676  0.00  0.00    +0.109 A 
ATOM      9  C   UNL     1       4.666  -5.491  23.340  0.00  0.00    +0.238 A 
ATOM     10  O   UNL     1       3.643  -5.518  22.661  0.00  0.00    -0.283 OA
ATOM     11  C   UNL     1       5.842  -4.723  22.828  0.00  0.00    +0.211 A 
ENDROOT
BRANCH   1  15
ATOM     12  C   UNL     1       9.539  -1.041  23.314  0.00  0.00    +0.162 A 
ATOM     13  C   UNL     1       9.887  -2.308  23.792  0.00  0.00    +0.050 A 
ATOM     14  C   UNL     1       8.945  -3.329  23.886  0.00  0.00    +0.015 A 
ATOM     15  C   UNL     1       7.609  -3.091  23.539  0.00  0.00    +0.025 A 
ATOM     16  C   UNL     1       7.269  -1.849  22.980  0.00  0.00    +0.061 A 
ATOM     17  C   UNL     1       8.225  -0.814  22.861  0.00  0.00    +0.162 A 
BRANCH  12  19
ATOM     18  C   UNL     1      10.742   0.615  24.586  0.00  0.00    +0.277 C 
ATOM     19  O   UNL     1      10.583  -0.160  23.410  0.00  0.00    -0.491 OA
ENDBRANCH  12  19
BRANCH  17  20
ATOM     20  O   UNL     1       7.932   0.429  22.366  0.00  0.00    -0.491 OA
ATOM     21  C   UNL     1       7.187   1.324  23.181  0.00  0.00    +0.277 C 
ENDBRANCH  17  20
ENDBRANCH   1  15
BRANCH   5  22
ATOM     22  O   UNL     1       4.984  -7.276  28.657  0.00  0.00    -0.507 OA
ATOM     23  H   UNL     1       5.246  -8.210  28.690  0.00  0.00    +0.292 HD
ENDBRANCH   5  22
BRANCH   7  24
ATOM     24  O   UNL     1       2.966  -7.919  24.581  0.00  0.00    -0.494 OA
ATOM     25  C   UNL     1       1.599  -7.890  24.943  0.00  0.00    +0.277 C 
ENDBRANCH   7  24
BRANCH  11  26
ATOM     26  O   UNL     1       5.817  -4.603  21.467  0.00  0.00    -0.488 OA
ATOM     27  C   UNL     1       6.266  -5.562  20.539  0.00  0.00    +0.277 C 
ENDBRANCH  11  26
TORSDOF 6
ENDMDL
MODEL 5
REMARK VINA RESULT:      -6.6      2.558      8.493
REMARK  Name = 
REMARK  10 active torsions:
REMARK  status: ('A' for Active; 'I' for Inactive)
REMARK    1  A    between atoms: C_1  and  O_2
REMARK    2  A    between atoms: O_2  and  C_3
REMARK    3  A    between atoms: C_4  and  O_25
REMARK    4  A    between atoms: C_6  and  C_9
REMARK    5  A    between atoms: C_10  and  O_23
REMARK    6  A    between atoms: C_17  and  O_22
REMARK    7  A    between atoms: C_19  and  O_20
REMARK    8  A    between atoms: O_20  and  C_21
REMARK    9  A    between atoms: O_23  and  C_24
REMARK   10  A    between atoms: O_25  and  C_26
REMARK                            x       y       z     vdW  Elec       q    Type
REMARK                         _______ _______ _______ _____ _____    ______ ____
ROOT
ATOM      1  C   UNL     1       8.770   1.449  23.906  0.00  0.00    +0.181 A 
ATOM      2  O   UNL     1      10.047   1.860  23.540  0.00  0.00    -0.451 OA
ATOM      3  C   UNL     1      10.364   3.202  23.596  0.00  0.00    +0.147 A 
ATOM      4  C   UNL     1      11.720   3.509  23.441  0.00  0.00    +0.092 A 
ATOM      5  C   UNL     1      12.117   4.834  23.463  0.00  0.00    +0.124 A 
ATOM      6  C   UNL     1      11.181   5.844  23.643  0.00  0.00    +0.092 A 
ATOM      7  C   UNL     1       9.812   5.564  23.795  0.00  0.00    +0.138 A 
ATOM      8  C   UNL     1       9.403   4.217  23.752  0.00  0.00    +0.109 A 
ATOM      9  C   UNL     1       8.018   3.732  23.764  0.00  0.00    +0.238 A 
ATOM     10  O   UNL     1       7.075   4.427  23.390  0.00  0.00    -0.283 OA
ATOM     11  C   UNL     1       7.749   2.310  24.139  0.00  0.00    +0.211 A 
ENDROOT
BRANCH   1  15
ATOM     12  C   UNL     1       8.602  -2.842  23.701  0.00  0.00    +0.162 A 
ATOM     13  C   UNL     1       9.351  -2.176  24.677  0.00  0.00    +0.050 A 
ATOM     14  C   UNL     1       9.351  -0.786  24.763  0.00  0.00    +0.015 A 
ATOM     15  C   UNL     1       8.627  -0.021  23.840  0.00  0.00    +0.025 A 
ATOM     16  C   UNL     1       7.807  -0.682  22.913  0.00  0.00    +0.061 A 
ATOM     17  C   UNL     1       7.784  -2.093  22.832  0.00  0.00    +0.162 A 
BRANCH  12  19
ATOM     18  C   UNL     1       8.358  -4.967  24.811  0.00  0.00    +0.277 C 
ATOM     19  O   UNL     1       8.831  -4.192  23.722  0.00  0.00    -0.491 OA
ENDBRANCH  12  19
BRANCH  17  20
ATOM     20  O   UNL     1       7.038  -2.784  21.914  0.00  0.00    -0.491 OA
ATOM     21  C   UNL     1       5.731  -3.204  22.282  0.00  0.00    +0.277 C 
ENDBRANCH  17  20
ENDBRANCH   1  15
BRANCH   5  22
ATOM     22  O   UNL     1      13.418   5.210  23.308  0.00  0.00    -0.507 OA
ATOM     23  H   UNL     1      13.996   4.530  23.691  0.00  0.00    +0.292 HD
ENDBRANCH   5  22
BRANCH   7  24
ATOM     24  O   UNL     1       9.136   6.737  23.962  0.00  0.00    -0.494 OA
ATOM     25  C   UNL     1       8.499   7.108  25.169  0.00  0.00    +0.277 C 
ENDBRANCH   7  24
BRANCH  11  26
ATOM     26  O   UNL     1       6.452   2.122  24.526  0.00  0.00    -0.488 OA
ATOM     27  C   UNL     1       6.004   1.866  25.835  0.00  0.00    +0.277 C 
ENDBRANCH  11  26
TORSDOF 6
ENDMDL
MODEL 6
REMARK VINA RESULT:      -6.5      2.184      7.765
REMARK  Name = 
REMARK  10 active torsions:
REMARK  status: ('A' for Active; 'I' for Inactive)
REMARK    1  A    between atoms: C_1  and  O_2
REMARK    2  A    between atoms: O_2  and  C_3
REMARK    3  A    between atoms: C_4  and  O_25
REMARK    4  A    between atoms: C_6  and  C_9
REMARK    5  A    between atoms: C_10  and  O_23
REMARK    6  A    between atoms: C_17  and  O_22
REMARK    7  A    between atoms: C_19  and  O_20
REMARK    8  A    between atoms: O_20  and  C_21
REMARK    9  A    between atoms: O_23  and  C_24
REMARK   10  A    between atoms: O_25  and  C_26
REMARK                            x       y       z     vdW  Elec       q    Type
REMARK                         _______ _______ _______ _____ _____    ______ ____
ROOT
ATOM      1  C   UNL     1       7.121  -0.537  23.499  0.00  0.00    +0.181 A 
ATOM      2  O   UNL     1       6.391   0.601  23.173  0.00  0.00    -0.451 OA
ATOM      3  C   UNL     1       7.040   1.817  23.092  0.00  0.00    +0.147 A 
ATOM      4  C   UNL     1       6.296   2.862  22.535  0.00  0.00    +0.092 A 
ATOM      5  C   UNL     1       6.867   4.118  22.439  0.00  0.00    +0.124 A 
ATOM      6  C   UNL     1       8.165   4.335  22.883  0.00  0.00    +0.092 A 
ATOM      7  C   UNL     1       8.933   3.303  23.452  0.00  0.00    +0.138 A 
ATOM      8  C   UNL     1       8.346   2.029  23.570  0.00  0.00    +0.109 A 
ATOM      9  C   UNL     1       8.932   0.864  24.245  0.00  0.00    +0.238 A 
ATOM     10  O   UNL     1       9.780   0.975  25.128  0.00  0.00    -0.283 OA
ATOM     11  C   UNL     1       8.406  -0.499  23.929  0.00  0.00    +0.211 A 
ENDROOT
BRANCH   1  15
ATOM     12  C   UNL     1       4.771  -4.133  23.675  0.00  0.00    +0.162 A 
ATOM     13  C   UNL     1       4.751  -3.184  24.703  0.00  0.00    +0.050 A 
ATOM     14  C   UNL     1       5.475  -1.998  24.605  0.00  0.00    +0.015 A 
ATOM     15  C   UNL     1       6.279  -1.752  23.485  0.00  0.00    +0.025 A 
ATOM     16  C   UNL     1       6.239  -2.658  22.415  0.00  0.00    +0.061 A 
ATOM     17  C   UNL     1       5.488  -3.854  22.495  0.00  0.00    +0.162 A 
BRANCH  12  19
ATOM     18  C   UNL     1       4.780  -6.360  24.595  0.00  0.00    +0.277 C 
ATOM     19  O   UNL     1       4.084  -5.266  24.020  0.00  0.00    -0.491 OA
ENDBRANCH  12  19
BRANCH  17  20
ATOM     20  O   UNL     1       5.455  -4.792  21.498  0.00  0.00    -0.491 OA
ATOM     21  C   UNL     1       6.581  -5.641  21.328  0.00  0.00    +0.277 C 
ENDBRANCH  17  20
ENDBRANCH   1  15
BRANCH   5  22
ATOM     22  O   UNL     1       6.200   5.187  21.919  0.00  0.00    -0.507 OA
ATOM     23  H   UNL     1       6.842   5.851  21.621  0.00  0.00    +0.292 HD
ENDBRANCH   5  22
BRANCH   7  24
ATOM     24  O   UNL     1      10.160   3.797  23.785  0.00  0.00    -0.494 OA
ATOM     25  C   UNL     1      10.467   5.178  23.811  0.00  0.00    +0.277 C 
ENDBRANCH   7  24
BRANCH  11  26
ATOM     26  O   UNL     1       9.295  -1.478  24.270  0.00  0.00    -0.488 OA
ATOM     27  C   UNL     1      10.120  -2.198  23.386  0.00  0.00    +0.277 C 
ENDBRANCH  11  26
TORSDOF 6
ENDMDL
MODEL 7
REMARK VINA RESULT:      -6.5      1.891      7.600
REMARK  Name = 
REMARK  10 active torsions:
REMARK  status: ('A' for Active; 'I' for Inactive)
REMARK    1  A    between atoms: C_1  and  O_2
REMARK    2  A    between atoms: O_2  and  C_3
REMARK    3  A    between atoms: C_4  and  O_25
REMARK    4  A    between atoms: C_6  and  C_9
REMARK    5  A    between atoms: C_10  and  O_23
REMARK    6  A    between atoms: C_17  and  O_22
REMARK    7  A    between atoms: C_19  and  O_20
REMARK    8  A    between atoms: O_20  and  C_21
REMARK    9  A    between atoms: O_23  and  C_24
REMARK   10  A    between atoms: O_25  and  C_26
REMARK                            x       y       z     vdW  Elec       q    Type
REMARK                         _______ _______ _______ _____ _____    ______ ____
ROOT
ATOM      1  C   UNL     1       7.199  -1.367  23.444  0.00  0.00    +0.181 A 
ATOM      2  O   UNL     1       6.600  -0.146  23.151  0.00  0.00    -0.451 OA
ATOM      3  C   UNL     1       7.388   0.983  23.049  0.00  0.00    +0.147 A 
ATOM      4  C   UNL     1       6.754   2.115  22.526  0.00  0.00    +0.092 A 
ATOM      5  C   UNL     1       7.469   3.294  22.411  0.00  0.00    +0.124 A 
ATOM      6  C   UNL     1       8.800   3.349  22.804  0.00  0.00    +0.092 A 
ATOM      7  C   UNL     1       9.459   2.227  23.338  0.00  0.00    +0.138 A 
ATOM      8  C   UNL     1       8.727   1.032  23.475  0.00  0.00    +0.109 A 
ATOM      9  C   UNL     1       9.194  -0.200  24.122  0.00  0.00    +0.238 A 
ATOM     10  O   UNL     1      10.083  -0.200  24.971  0.00  0.00    -0.283 OA
ATOM     11  C   UNL     1       8.495  -1.487  23.823  0.00  0.00    +0.211 A 
ENDROOT
BRANCH   1  15
ATOM     12  C   UNL     1       4.416  -4.632  23.717  0.00  0.00    +0.162 A 
ATOM     13  C   UNL     1       4.441  -3.599  24.660  0.00  0.00    +0.050 A 
ATOM     14  C   UNL     1       5.312  -2.520  24.527  0.00  0.00    +0.015 A 
ATOM     15  C   UNL     1       6.217  -2.470  23.459  0.00  0.00    +0.025 A 
ATOM     16  C   UNL     1       6.140  -3.458  22.464  0.00  0.00    +0.061 A 
ATOM     17  C   UNL     1       5.244  -4.545  22.580  0.00  0.00    +0.162 A 
BRANCH  12  19
ATOM     18  C   UNL     1       4.095  -6.782  24.755  0.00  0.00    +0.277 C 
ATOM     19  O   UNL     1       3.572  -5.642  24.094  0.00  0.00    -0.491 OA
ENDBRANCH  12  19
BRANCH  17  20
ATOM     20  O   UNL     1       5.164  -5.557  21.660  0.00  0.00    -0.491 OA
ATOM     21  C   UNL     1       6.340  -5.922  20.952  0.00  0.00    +0.277 C 
ENDBRANCH  17  20
ENDBRANCH   1  15
BRANCH   5  22
ATOM     22  O   UNL     1       6.916   4.439  21.921  0.00  0.00    -0.507 OA
ATOM     23  H   UNL     1       5.957   4.320  21.832  0.00  0.00    +0.292 HD
ENDBRANCH   5  22
BRANCH   7  24
ATOM     24  O   UNL     1      10.749   2.567  23.624  0.00  0.00    -0.494 OA
ATOM     25  C   UNL     1      11.298   3.843  23.361  0.00  0.00    +0.277 C 
ENDBRANCH   7  24
BRANCH  11  26
ATOM     26  O   UNL     1       9.272  -2.569  24.125  0.00  0.00    -0.488 OA
ATOM     27  C   UNL     1       9.023  -3.516  25.137  0.00  0.00    +0.277 C 
ENDBRANCH  11  26
TORSDOF 6
ENDMDL
MODEL 8
REMARK VINA RESULT:      -6.5      2.577      8.164
REMARK  Name = 
REMARK  10 active torsions:
REMARK  status: ('A' for Active; 'I' for Inactive)
REMARK    1  A    between atoms: C_1  and  O_2
REMARK    2  A    between atoms: O_2  and  C_3
REMARK    3  A    between atoms: C_4  and  O_25
REMARK    4  A    between atoms: C_6  and  C_9
REMARK    5  A    between atoms: C_10  and  O_23
REMARK    6  A    between atoms: C_17  and  O_22
REMARK    7  A    between atoms: C_19  and  O_20
REMARK    8  A    between atoms: O_20  and  C_21
REMARK    9  A    between atoms: O_23  and  C_24
REMARK   10  A    between atoms: O_25  and  C_26
REMARK                            x       y       z     vdW  Elec       q    Type
REMARK                         _______ _______ _______ _____ _____    ______ ____
ROOT
ATOM      1  C   UNL     1       8.225   0.232  23.740  0.00  0.00    +0.181 A 
ATOM      2  O   UNL     1       9.440   0.813  23.391  0.00  0.00    -0.451 OA
ATOM      3  C   UNL     1       9.601   2.176  23.542  0.00  0.00    +0.147 A 
ATOM      4  C   UNL     1      10.910   2.648  23.395  0.00  0.00    +0.092 A 
ATOM      5  C   UNL     1      11.153   4.005  23.510  0.00  0.00    +0.124 A 
ATOM      6  C   UNL     1      10.111   4.884  23.775  0.00  0.00    +0.092 A 
ATOM      7  C   UNL     1       8.786   4.437  23.921  0.00  0.00    +0.138 A 
ATOM      8  C   UNL     1       8.533   3.059  23.783  0.00  0.00    +0.109 A 
ATOM      9  C   UNL     1       7.214   2.417  23.775  0.00  0.00    +0.238 A 
ATOM     10  O   UNL     1       6.191   3.023  23.464  0.00  0.00    -0.283 OA
ATOM     11  C   UNL     1       7.117   0.950  24.047  0.00  0.00    +0.211 A 
ENDROOT
BRANCH   1  15
ATOM     12  C   UNL     1       8.053  -4.038  23.276  0.00  0.00    +0.162 A 
ATOM     13  C   UNL     1       7.260  -3.178  22.510  0.00  0.00    +0.050 A 
ATOM     14  C   UNL     1       7.367  -1.795  22.634  0.00  0.00    +0.015 A 
ATOM     15  C   UNL     1       8.250  -1.236  23.567  0.00  0.00    +0.025 A 
ATOM     16  C   UNL     1       9.108  -2.089  24.278  0.00  0.00    +0.061 A 
ATOM     17  C   UNL     1       9.021  -3.493  24.142  0.00  0.00    +0.162 A 
BRANCH  12  19
ATOM     18  C   UNL     1       7.068  -5.736  21.877  0.00  0.00    +0.277 C 
ATOM     19  O   UNL     1       7.710  -5.350  23.081  0.00  0.00    -0.491 OA
ENDBRANCH  12  19
BRANCH  17  20
ATOM     20  O   UNL     1       9.803  -4.369  24.848  0.00  0.00    -0.491 OA
ATOM     21  C   UNL     1       9.353  -4.802  26.124  0.00  0.00    +0.277 C 
ENDBRANCH  17  20
ENDBRANCH   1  15
BRANCH   5  22
ATOM     22  O   UNL     1      12.399   4.539  23.369  0.00  0.00    -0.507 OA
ATOM     23  H   UNL     1      13.004   3.857  23.035  0.00  0.00    +0.292 HD
ENDBRANCH   5  22
BRANCH   7  24
ATOM     24  O   UNL     1       7.984   5.509  24.182  0.00  0.00    -0.494 OA
ATOM     25  C   UNL     1       8.452   6.843  24.231  0.00  0.00    +0.277 C 
ENDBRANCH   7  24
BRANCH  11  26
ATOM     26  O   UNL     1       5.859   0.586  24.433  0.00  0.00    -0.488 OA
ATOM     27  C   UNL     1       5.482   0.118  25.707  0.00  0.00    +0.277 C 
ENDBRANCH  11  26
TORSDOF 6
ENDMDL
MODEL 9
REMARK VINA RESULT:      -6.2      1.224      2.028
REMARK  Name = 
REMARK  10 active torsions:
REMARK  status: ('A' for Active; 'I' for Inactive)
REMARK    1  A    between atoms: C_1  and  O_2
REMARK    2  A    between atoms: O_2  and  C_3
REMARK    3  A    between atoms: C_4  and  O_25
REMARK    4  A    between atoms: C_6  and  C_9
REMARK    5  A    between atoms: C_10  and  O_23
REMARK    6  A    between atoms: C_17  and  O_22
REMARK    7  A    between atoms: C_19  and  O_20
REMARK    8  A    between atoms: O_20  and  C_21
REMARK    9  A    between atoms: O_23  and  C_24
REMARK   10  A    between atoms: O_25  and  C_26
REMARK                            x       y       z     vdW  Elec       q    Type
REMARK                         _______ _______ _______ _____ _____    ______ ____
ROOT
ATOM      1  C   UNL     1       6.444  -1.854  24.562  0.00  0.00    +0.181 A 
ATOM      2  O   UNL     1       5.818  -2.712  23.663  0.00  0.00    -0.451 OA
ATOM      3  C   UNL     1       5.468  -3.981  24.078  0.00  0.00    +0.147 A 
ATOM      4  C   UNL     1       4.641  -4.694  23.202  0.00  0.00    +0.092 A 
ATOM      5  C   UNL     1       4.262  -5.982  23.534  0.00  0.00    +0.124 A 
ATOM      6  C   UNL     1       4.692  -6.556  24.724  0.00  0.00    +0.092 A 
ATOM      7  C   UNL     1       5.528  -5.864  25.618  0.00  0.00    +0.138 A 
ATOM      8  C   UNL     1       5.932  -4.560  25.272  0.00  0.00    +0.109 A 
ATOM      9  C   UNL     1       6.895  -3.729  26.004  0.00  0.00    +0.238 A 
ATOM     10  O   UNL     1       7.758  -4.213  26.734  0.00  0.00    -0.283 OA
ATOM     11  C   UNL     1       6.904  -2.252  25.773  0.00  0.00    +0.211 A 
ENDROOT
BRANCH   1  15
ATOM     12  C   UNL     1       6.932   2.021  22.767  0.00  0.00    +0.162 A 
ATOM     13  C   UNL     1       5.977   1.780  23.760  0.00  0.00    +0.050 A 
ATOM     14  C   UNL     1       5.869   0.533  24.370  0.00  0.00    +0.015 A 
ATOM     15  C   UNL     1       6.694  -0.524  23.967  0.00  0.00    +0.025 A 
ATOM     16  C   UNL     1       7.709  -0.268  23.033  0.00  0.00    +0.061 A 
ATOM     17  C   UNL     1       7.841   1.001  22.425  0.00  0.00    +0.162 A 
BRANCH  12  19
ATOM     18  C   UNL     1       7.451   4.374  22.828  0.00  0.00    +0.277 C 
ATOM     19  O   UNL     1       6.793   3.272  22.225  0.00  0.00    -0.491 OA
ENDBRANCH  12  19
BRANCH  17  20
ATOM     20  O   UNL     1       8.784   1.288  21.474  0.00  0.00    -0.491 OA
ATOM     21  C   UNL     1      10.072   1.708  21.903  0.00  0.00    +0.277 C 
ENDBRANCH  17  20
ENDBRANCH   1  15
BRANCH   5  22
ATOM     22  O   UNL     1       3.468  -6.741  22.728  0.00  0.00    -0.507 OA
ATOM     23  H   UNL     1       3.733  -7.673  22.802  0.00  0.00    +0.292 HD
ENDBRANCH   5  22
BRANCH   7  24
ATOM     24  O   UNL     1       5.779  -6.661  26.696  0.00  0.00    -0.494 OA
ATOM     25  C   UNL     1       4.897  -6.793  27.794  0.00  0.00    +0.277 C 
ENDBRANCH   7  24
BRANCH  11  26
ATOM     26  O   UNL     1       7.511  -1.581  26.797  0.00  0.00    -0.488 OA
ATOM     27  C   UNL     1       8.743  -0.902  26.731  0.00  0.00    +0.277 C 
ENDBRANCH  11  26
TORSDOF 6
ENDMDL
