MODEL 1
REMARK VINA RESULT:      -7.2      0.000      0.000
REMARK  Name = 
REMARK  24 active torsions:
REMARK  status: ('A' for Active; 'I' for Inactive)
REMARK    1  A    between atoms: C_3  and  O_70
REMARK    2  A    between atoms: C_4  and  O_69
REMARK    3  A    between atoms: C_6  and  C_7
REMARK    4  A    between atoms: C_8  and  O_52
REMARK    5  A    between atoms: C_12  and  O_51
REMARK    6  A    between atoms: C_14  and  O_18
REMARK    7  A    between atoms: O_18  and  C_19
REMARK    8  A    between atoms: C_21  and  O_50
REMARK    9  A    between atoms: C_23  and  O_49
REMARK   10  A    between atoms: C_25  and  O_48
REMARK   11  A    between atoms: C_27  and  C_30
REMARK   12  A    between atoms: C_30  and  O_31
REMARK   13  A    between atoms: O_31  and  C_32
REMARK   14  A    between atoms: C_34  and  O_47
REMARK   15  A    between atoms: C_36  and  O_46
REMARK   16  A    between atoms: C_38  and  O_45
REMARK   17  A    between atoms: C_40  and  C_43
REMARK   18  A    between atoms: C_43  and  O_44
REMARK   19  A    between atoms: O_52  and  C_53
REMARK   20  A    between atoms: C_55  and  O_68
REMARK   21  A    between atoms: C_57  and  O_67
REMARK   22  A    between atoms: C_59  and  O_66
REMARK   23  A    between atoms: C_61  and  C_64
REMARK   24  A    between atoms: C_64  and  O_65
REMARK                            x       y       z     vdW  Elec       q    Type
REMARK                         _______ _______ _______ _____ _____    ______ ____
ROOT
ATOM      1  C   UNL     1       5.523  -2.609  26.119  0.00  0.00    +0.181 A 
ATOM      2  O   UNL     1       5.870  -1.279  26.024  0.00  0.00    -0.451 OA
ATOM      3  C   UNL     1       4.996  -0.335  26.481  0.00  0.00    +0.147 A 
ATOM      4  C   UNL     1       3.815  -0.621  27.126  0.00  0.00    +0.109 A 
ATOM      5  C   UNL     1       3.031   0.434  27.615  0.00  0.00    +0.135 A 
ATOM      6  C   UNL     1       3.382   1.768  27.350  0.00  0.00    +0.092 A 
ATOM      7  C   UNL     1       4.561   2.052  26.654  0.00  0.00    +0.131 A 
ATOM      8  C   UNL     1       3.459  -2.032  27.278  0.00  0.00    +0.238 A 
ATOM      9  O   UNL     1       2.482  -2.329  27.961  0.00  0.00    -0.283 OA
ATOM     10  C   UNL     1       5.375   0.982  26.273  0.00  0.00    +0.093 A 
ATOM     11  C   UNL     1       4.345  -3.053  26.623  0.00  0.00    +0.214 A 
ENDROOT
BRANCH   1  13
ATOM     12  C   UNL     1       7.680  -3.606  26.782  0.00  0.00    +0.015 A 
ATOM     13  C   UNL     1       6.685  -3.457  25.794  0.00  0.00    +0.025 A 
ATOM     14  C   UNL     1       6.890  -4.038  24.538  0.00  0.00    +0.060 A 
ATOM     15  C   UNL     1       7.998  -4.857  24.339  0.00  0.00    +0.159 A 
ATOM     16  C   UNL     1       8.907  -5.097  25.365  0.00  0.00    +0.158 A 
ATOM     17  C   UNL     1       8.787  -4.433  26.575  0.00  0.00    +0.050 A 
BRANCH  16  18
ATOM     18  O   UNL     1       9.903  -6.006  25.142  0.00  0.00    -0.503 OA
ATOM     19  H   UNL     1       9.486  -6.829  24.830  0.00  0.00    +0.292 HD
ENDBRANCH  16  18
BRANCH  15  20
ATOM     20  O   UNL     1       8.188  -5.442  23.121  0.00  0.00    -0.503 OA
ATOM     21  H   UNL     1       9.128  -5.281  22.906  0.00  0.00    +0.292 HD
ENDBRANCH  15  20
ENDBRANCH   1  13
BRANCH   5  22
ATOM     22  O   UNL     1       1.914   0.219  28.379  0.00  0.00    -0.506 OA
ATOM     23  H   UNL     1       2.131   0.456  29.311  0.00  0.00    +0.292 HD
ENDBRANCH   5  22
BRANCH  11  24
ATOM     24  O   UNL     1       3.923  -4.343  26.773  0.00  0.00    -0.453 OA
BRANCH  24  25
ATOM     25  C   UNL     1       3.343  -5.091  25.710  0.00  0.00    +0.340 C 
ATOM     26  O   UNL     1       4.374  -6.008  25.303  0.00  0.00    -0.331 OA
ATOM     27  C   UNL     1       4.091  -6.833  24.160  0.00  0.00    +0.179 C 
ATOM     28  C   UNL     1       2.737  -7.562  24.260  0.00  0.00    +0.177 C 
ATOM     29  C   UNL     1       1.599  -6.662  24.782  0.00  0.00    +0.180 C 
ATOM     30  C   UNL     1       2.055  -5.891  26.035  0.00  0.00    +0.214 C 
BRANCH  30  31
ATOM     31  O   UNL     1       2.266  -6.812  27.121  0.00  0.00    -0.383 OA
ATOM     32  H   UNL     1       2.011  -6.341  27.942  0.00  0.00    +0.210 HD
ENDBRANCH  30  31
BRANCH  29  33
ATOM     33  O   UNL     1       1.091  -5.797  23.772  0.00  0.00    -0.386 OA
ATOM     34  H   UNL     1       1.464  -4.889  23.884  0.00  0.00    +0.210 HD
ENDBRANCH  29  33
BRANCH  28  35
ATOM     35  O   UNL     1       2.919  -8.668  25.168  0.00  0.00    -0.386 OA
ATOM     36  H   UNL     1       3.856  -8.692  25.437  0.00  0.00    +0.210 HD
ENDBRANCH  28  35
BRANCH  27  37
ATOM     37  C   UNL     1       4.320  -6.060  22.859  0.00  0.00    +0.190 C 
BRANCH  37  38
ATOM     38  O   UNL     1       5.527  -6.446  22.208  0.00  0.00    -0.392 OA
ATOM     39  H   UNL     1       5.691  -5.775  21.517  0.00  0.00    +0.210 HD
ENDBRANCH  37  38
ENDBRANCH  27  37
ENDBRANCH  24  25
ENDBRANCH  11  24
BRANCH   7  40
ATOM     40  O   UNL     1       4.837   3.366  26.339  0.00  0.00    -0.461 OA
BRANCH  40  41
ATOM     41  C   UNL     1       4.259   3.811  25.097  0.00  0.00    +0.339 C 
ATOM     42  O   UNL     1       4.867   3.177  23.959  0.00  0.00    -0.331 OA
ATOM     43  C   UNL     1       5.955   3.841  23.310  0.00  0.00    +0.179 C 
ATOM     44  C   UNL     1       5.616   5.307  22.974  0.00  0.00    +0.177 C 
ATOM     45  C   UNL     1       5.246   6.076  24.229  0.00  0.00    +0.180 C 
ATOM     46  C   UNL     1       4.122   5.361  24.967  0.00  0.00    +0.214 C 
BRANCH  46  47
ATOM     47  O   UNL     1       2.870   5.655  24.308  0.00  0.00    -0.383 OA
ATOM     48  H   UNL     1       2.655   4.871  23.761  0.00  0.00    +0.210 HD
ENDBRANCH  46  47
BRANCH  45  49
ATOM     49  O   UNL     1       6.358   6.265  25.099  0.00  0.00    -0.386 OA
ATOM     50  H   UNL     1       6.927   6.974  24.755  0.00  0.00    +0.210 HD
ENDBRANCH  45  49
BRANCH  44  51
ATOM     51  O   UNL     1       4.511   5.335  22.055  0.00  0.00    -0.386 OA
ATOM     52  H   UNL     1       4.864   5.275  21.147  0.00  0.00    +0.210 HD
ENDBRANCH  44  51
BRANCH  43  53
ATOM     53  C   UNL     1       7.291   3.668  24.073  0.00  0.00    +0.197 C 
BRANCH  53  54
ATOM     54  O   UNL     1       7.829   2.330  24.138  0.00  0.00    -0.346 OA
BRANCH  54  55
ATOM     55  C   UNL     1       7.723   1.555  22.940  0.00  0.00    +0.282 C 
ATOM     56  O   UNL     1       7.663   0.161  23.260  0.00  0.00    -0.341 OA
ATOM     57  C   UNL     1       8.866  -0.540  23.568  0.00  0.00    +0.178 C 
ATOM     58  C   UNL     1      10.121  -0.113  22.771  0.00  0.00    +0.177 C 
ATOM     59  C   UNL     1      10.179   1.385  22.437  0.00  0.00    +0.179 C 
ATOM     60  C   UNL     1       8.824   1.859  21.903  0.00  0.00    +0.201 C 
BRANCH  60  61
ATOM     61  O   UNL     1       8.523   1.244  20.643  0.00  0.00    -0.384 OA
ATOM     62  H   UNL     1       8.234   0.325  20.835  0.00  0.00    +0.210 HD
ENDBRANCH  60  61
BRANCH  59  63
ATOM     63  O   UNL     1      10.624   2.193  23.524  0.00  0.00    -0.386 OA
ATOM     64  H   UNL     1      10.803   3.096  23.188  0.00  0.00    +0.210 HD
ENDBRANCH  59  63
BRANCH  58  65
ATOM     65  O   UNL     1      10.074  -0.833  21.517  0.00  0.00    -0.386 OA
ATOM     66  H   UNL     1       9.924  -0.171  20.818  0.00  0.00    +0.210 HD
ENDBRANCH  58  65
BRANCH  57  67
ATOM     67  C   UNL     1       9.124  -0.624  25.073  0.00  0.00    +0.190 C 
BRANCH  67  68
ATOM     68  O   UNL     1       9.756   0.553  25.554  0.00  0.00    -0.392 OA
ATOM     69  H   UNL     1       9.221   1.281  25.204  0.00  0.00    +0.210 HD
ENDBRANCH  67  68
ENDBRANCH  57  67
ENDBRANCH  54  55
ENDBRANCH  53  54
ENDBRANCH  43  53
ENDBRANCH  40  41
ENDBRANCH   7  40
TORSDOF 24
ENDMDL
MODEL 2
REMARK VINA RESULT:      -6.2      1.946      8.680
REMARK  Name = 
REMARK  24 active torsions:
REMARK  status: ('A' for Active; 'I' for Inactive)
REMARK    1  A    between atoms: C_3  and  O_70
REMARK    2  A    between atoms: C_4  and  O_69
REMARK    3  A    between atoms: C_6  and  C_7
REMARK    4  A    between atoms: C_8  and  O_52
REMARK    5  A    between atoms: C_12  and  O_51
REMARK    6  A    between atoms: C_14  and  O_18
REMARK    7  A    between atoms: O_18  and  C_19
REMARK    8  A    between atoms: C_21  and  O_50
REMARK    9  A    between atoms: C_23  and  O_49
REMARK   10  A    between atoms: C_25  and  O_48
REMARK   11  A    between atoms: C_27  and  C_30
REMARK   12  A    between atoms: C_30  and  O_31
REMARK   13  A    between atoms: O_31  and  C_32
REMARK   14  A    between atoms: C_34  and  O_47
REMARK   15  A    between atoms: C_36  and  O_46
REMARK   16  A    between atoms: C_38  and  O_45
REMARK   17  A    between atoms: C_40  and  C_43
REMARK   18  A    between atoms: C_43  and  O_44
REMARK   19  A    between atoms: O_52  and  C_53
REMARK   20  A    between atoms: C_55  and  O_68
REMARK   21  A    between atoms: C_57  and  O_67
REMARK   22  A    between atoms: C_59  and  O_66
REMARK   23  A    between atoms: C_61  and  C_64
REMARK   24  A    between atoms: C_64  and  O_65
REMARK                            x       y       z     vdW  Elec       q    Type
REMARK                         _______ _______ _______ _____ _____    ______ ____
ROOT
ATOM      1  C   UNL     1       6.737   1.128  25.823  0.00  0.00    +0.181 A 
ATOM      2  O   UNL     1       6.217  -0.147  25.791  0.00  0.00    -0.451 OA
ATOM      3  C   UNL     1       5.185  -0.460  26.629  0.00  0.00    +0.147 A 
ATOM      4  C   UNL     1       4.554   0.445  27.451  0.00  0.00    +0.109 A 
ATOM      5  C   UNL     1       3.457   0.023  28.216  0.00  0.00    +0.135 A 
ATOM      6  C   UNL     1       3.078  -1.329  28.237  0.00  0.00    +0.092 A 
ATOM      7  C   UNL     1       3.753  -2.253  27.434  0.00  0.00    +0.131 A 
ATOM      8  C   UNL     1       5.065   1.816  27.457  0.00  0.00    +0.238 A 
ATOM      9  O   UNL     1       4.447   2.679  28.076  0.00  0.00    -0.283 OA
ATOM     10  C   UNL     1       4.772  -1.783  26.602  0.00  0.00    +0.093 A 
ATOM     11  C   UNL     1       6.305   2.105  26.659  0.00  0.00    +0.214 A 
ENDROOT
BRANCH   1  13
ATOM     12  C   UNL     1       7.174   1.077  23.396  0.00  0.00    +0.015 A 
ATOM     13  C   UNL     1       7.666   1.322  24.694  0.00  0.00    +0.025 A 
ATOM     14  C   UNL     1       9.019   1.642  24.853  0.00  0.00    +0.060 A 
ATOM     15  C   UNL     1       9.808   1.845  23.724  0.00  0.00    +0.159 A 
ATOM     16  C   UNL     1       9.275   1.722  22.444  0.00  0.00    +0.158 A 
ATOM     17  C   UNL     1       7.972   1.286  22.268  0.00  0.00    +0.050 A 
BRANCH  16  18
ATOM     18  O   UNL     1      10.069   2.054  21.383  0.00  0.00    -0.503 OA
ATOM     19  H   UNL     1      10.884   2.454  21.738  0.00  0.00    +0.292 HD
ENDBRANCH  16  18
BRANCH  15  20
ATOM     20  O   UNL     1      11.122   2.179  23.877  0.00  0.00    -0.503 OA
ATOM     21  H   UNL     1      11.118   3.135  24.082  0.00  0.00    +0.292 HD
ENDBRANCH  15  20
ENDBRANCH   1  13
BRANCH   5  22
ATOM     22  O   UNL     1       2.703   0.898  28.954  0.00  0.00    -0.506 OA
ATOM     23  H   UNL     1       3.256   1.220  29.704  0.00  0.00    +0.292 HD
ENDBRANCH   5  22
BRANCH  11  24
ATOM     24  O   UNL     1       6.745   3.394  26.750  0.00  0.00    -0.453 OA
BRANCH  24  25
ATOM     25  C   UNL     1       6.445   4.380  25.768  0.00  0.00    +0.340 C 
ATOM     26  O   UNL     1       5.456   3.766  24.923  0.00  0.00    -0.331 OA
ATOM     27  C   UNL     1       5.037   4.514  23.768  0.00  0.00    +0.179 C 
ATOM     28  C   UNL     1       4.631   5.962  24.100  0.00  0.00    +0.177 C 
ATOM     29  C   UNL     1       5.599   6.656  25.079  0.00  0.00    +0.180 C 
ATOM     30  C   UNL     1       5.900   5.738  26.279  0.00  0.00    +0.214 C 
BRANCH  30  31
ATOM     31  O   UNL     1       4.707   5.565  27.067  0.00  0.00    -0.383 OA
ATOM     32  H   UNL     1       4.422   6.462  27.345  0.00  0.00    +0.210 HD
ENDBRANCH  30  31
BRANCH  29  33
ATOM     33  O   UNL     1       6.786   7.107  24.435  0.00  0.00    -0.386 OA
ATOM     34  H   UNL     1       6.919   8.071  24.607  0.00  0.00    +0.210 HD
ENDBRANCH  29  33
BRANCH  28  35
ATOM     35  O   UNL     1       3.317   5.908  24.693  0.00  0.00    -0.386 OA
ATOM     36  H   UNL     1       3.135   6.769  25.113  0.00  0.00    +0.210 HD
ENDBRANCH  28  35
BRANCH  27  37
ATOM     37  C   UNL     1       6.047   4.366  22.627  0.00  0.00    +0.190 C 
BRANCH  37  38
ATOM     38  O   UNL     1       6.218   5.578  21.899  0.00  0.00    -0.392 OA
ATOM     39  H   UNL     1       5.556   6.205  22.253  0.00  0.00    +0.210 HD
ENDBRANCH  37  38
ENDBRANCH  27  37
ENDBRANCH  24  25
ENDBRANCH  11  24
BRANCH   7  40
ATOM     40  O   UNL     1       3.411  -3.585  27.537  0.00  0.00    -0.461 OA
BRANCH  40  41
ATOM     41  C   UNL     1       4.067  -4.283  28.614  0.00  0.00    +0.339 C 
ATOM     42  O   UNL     1       5.482  -4.411  28.393  0.00  0.00    -0.331 OA
ATOM     43  C   UNL     1       5.968  -5.601  27.765  0.00  0.00    +0.179 C 
ATOM     44  C   UNL     1       5.426  -6.874  28.445  0.00  0.00    +0.177 C 
ATOM     45  C   UNL     1       3.909  -6.891  28.428  0.00  0.00    +0.180 C 
ATOM     46  C   UNL     1       3.365  -5.609  29.046  0.00  0.00    +0.214 C 
BRANCH  46  47
ATOM     47  O   UNL     1       3.439  -5.718  30.485  0.00  0.00    -0.383 OA
ATOM     48  H   UNL     1       3.106  -6.611  30.711  0.00  0.00    +0.210 HD
ENDBRANCH  46  47
BRANCH  45  49
ATOM     49  O   UNL     1       3.383  -7.060  27.114  0.00  0.00    -0.386 OA
ATOM     50  H   UNL     1       3.912  -6.548  26.480  0.00  0.00    +0.210 HD
ENDBRANCH  45  49
BRANCH  44  51
ATOM     51  O   UNL     1       5.887  -6.911  29.807  0.00  0.00    -0.386 OA
ATOM     52  H   UNL     1       6.863  -6.908  29.802  0.00  0.00    +0.210 HD
ENDBRANCH  44  51
BRANCH  43  53
ATOM     53  C   UNL     1       5.768  -5.581  26.230  0.00  0.00    +0.197 C 
BRANCH  53  54
ATOM     54  O   UNL     1       6.878  -5.101  25.441  0.00  0.00    -0.346 OA
BRANCH  54  55
ATOM     55  C   UNL     1       7.103  -3.688  25.472  0.00  0.00    +0.282 C 
ATOM     56  O   UNL     1       6.712  -3.101  24.227  0.00  0.00    -0.341 OA
ATOM     57  C   UNL     1       7.589  -3.183  23.106  0.00  0.00    +0.178 C 
ATOM     58  C   UNL     1       9.100  -3.084  23.421  0.00  0.00    +0.177 C 
ATOM     59  C   UNL     1       9.512  -3.721  24.756  0.00  0.00    +0.179 C 
ATOM     60  C   UNL     1       8.543  -3.297  25.863  0.00  0.00    +0.201 C 
BRANCH  60  61
ATOM     61  O   UNL     1       8.638  -1.889  26.119  0.00  0.00    -0.384 OA
ATOM     62  H   UNL     1       8.086  -1.703  26.910  0.00  0.00    +0.210 HD
ENDBRANCH  60  61
BRANCH  59  63
ATOM     63  O   UNL     1       9.643  -5.139  24.692  0.00  0.00    -0.386 OA
ATOM     64  H   UNL     1       9.182  -5.530  25.463  0.00  0.00    +0.210 HD
ENDBRANCH  59  63
BRANCH  58  65
ATOM     65  O   UNL     1       9.409  -1.672  23.504  0.00  0.00    -0.386 OA
ATOM     66  H   UNL     1       9.459  -1.451  24.452  0.00  0.00    +0.210 HD
ENDBRANCH  58  65
BRANCH  57  67
ATOM     67  C   UNL     1       7.255  -4.359  22.187  0.00  0.00    +0.190 C 
BRANCH  67  68
ATOM     68  O   UNL     1       7.579  -5.599  22.799  0.00  0.00    -0.392 OA
ATOM     69  H   UNL     1       7.194  -6.270  22.217  0.00  0.00    +0.210 HD
ENDBRANCH  67  68
ENDBRANCH  57  67
ENDBRANCH  54  55
ENDBRANCH  53  54
ENDBRANCH  43  53
ENDBRANCH  40  41
ENDBRANCH   7  40
TORSDOF 24
ENDMDL
MODEL 3
REMARK VINA RESULT:      -6.2      1.558      2.553
REMARK  Name = 
REMARK  24 active torsions:
REMARK  status: ('A' for Active; 'I' for Inactive)
REMARK    1  A    between atoms: C_3  and  O_70
REMARK    2  A    between atoms: C_4  and  O_69
REMARK    3  A    between atoms: C_6  and  C_7
REMARK    4  A    between atoms: C_8  and  O_52
REMARK    5  A    between atoms: C_12  and  O_51
REMARK    6  A    between atoms: C_14  and  O_18
REMARK    7  A    between atoms: O_18  and  C_19
REMARK    8  A    between atoms: C_21  and  O_50
REMARK    9  A    between atoms: C_23  and  O_49
REMARK   10  A    between atoms: C_25  and  O_48
REMARK   11  A    between atoms: C_27  and  C_30
REMARK   12  A    between atoms: C_30  and  O_31
REMARK   13  A    between atoms: O_31  and  C_32
REMARK   14  A    between atoms: C_34  and  O_47
REMARK   15  A    between atoms: C_36  and  O_46
REMARK   16  A    between atoms: C_38  and  O_45
REMARK   17  A    between atoms: C_40  and  C_43
REMARK   18  A    between atoms: C_43  and  O_44
REMARK   19  A    between atoms: O_52  and  C_53
REMARK   20  A    between atoms: C_55  and  O_68
REMARK   21  A    between atoms: C_57  and  O_67
REMARK   22  A    between atoms: C_59  and  O_66
REMARK   23  A    between atoms: C_61  and  C_64
REMARK   24  A    between atoms: C_64  and  O_65
REMARK                            x       y       z     vdW  Elec       q    Type
REMARK                         _______ _______ _______ _____ _____    ______ ____
ROOT
ATOM      1  C   UNL     1       5.298  -2.854  26.075  0.00  0.00    +0.181 A 
ATOM      2  O   UNL     1       5.510  -1.499  25.943  0.00  0.00    -0.451 OA
ATOM      3  C   UNL     1       4.584  -0.634  26.453  0.00  0.00    +0.147 A 
ATOM      4  C   UNL     1       3.484  -1.019  27.183  0.00  0.00    +0.109 A 
ATOM      5  C   UNL     1       2.641  -0.035  27.718  0.00  0.00    +0.135 A 
ATOM      6  C   UNL     1       2.844   1.321  27.416  0.00  0.00    +0.092 A 
ATOM      7  C   UNL     1       3.939   1.704  26.635  0.00  0.00    +0.131 A 
ATOM      8  C   UNL     1       3.275  -2.455  27.373  0.00  0.00    +0.238 A 
ATOM      9  O   UNL     1       2.381  -2.831  28.127  0.00  0.00    -0.283 OA
ATOM     10  C   UNL     1       4.821   0.710  26.206  0.00  0.00    +0.093 A 
ATOM     11  C   UNL     1       4.205  -3.398  26.665  0.00  0.00    +0.214 A 
ENDROOT
BRANCH   1  13
ATOM     12  C   UNL     1       7.611  -3.564  26.554  0.00  0.00    +0.015 A 
ATOM     13  C   UNL     1       6.509  -3.594  25.675  0.00  0.00    +0.025 A 
ATOM     14  C   UNL     1       6.648  -4.239  24.441  0.00  0.00    +0.060 A 
ATOM     15  C   UNL     1       7.816  -4.948  24.171  0.00  0.00    +0.159 A 
ATOM     16  C   UNL     1       8.847  -5.014  25.102  0.00  0.00    +0.158 A 
ATOM     17  C   UNL     1       8.778  -4.280  26.276  0.00  0.00    +0.050 A 
BRANCH  16  18
ATOM     18  O   UNL     1       9.912  -5.824  24.826  0.00  0.00    -0.503 OA
ATOM     19  H   UNL     1       9.778  -6.193  23.934  0.00  0.00    +0.292 HD
ENDBRANCH  16  18
BRANCH  15  20
ATOM     20  O   UNL     1       7.944  -5.595  22.976  0.00  0.00    -0.503 OA
ATOM     21  H   UNL     1       7.562  -4.985  22.315  0.00  0.00    +0.292 HD
ENDBRANCH  15  20
ENDBRANCH   1  13
BRANCH   5  22
ATOM     22  O   UNL     1       1.605  -0.342  28.561  0.00  0.00    -0.506 OA
ATOM     23  H   UNL     1       1.845  -1.162  29.053  0.00  0.00    +0.292 HD
ENDBRANCH   5  22
BRANCH  11  24
ATOM     24  O   UNL     1       3.919  -4.720  26.857  0.00  0.00    -0.453 OA
BRANCH  24  25
ATOM     25  C   UNL     1       3.133  -5.477  25.943  0.00  0.00    +0.340 C 
ATOM     26  O   UNL     1       4.081  -6.297  25.237  0.00  0.00    -0.331 OA
ATOM     27  C   UNL     1       3.566  -7.106  24.166  0.00  0.00    +0.179 C 
ATOM     28  C   UNL     1       2.337  -7.941  24.575  0.00  0.00    +0.177 C 
ATOM     29  C   UNL     1       1.317  -7.149  25.417  0.00  0.00    +0.180 C 
ATOM     30  C   UNL     1       2.031  -6.384  26.548  0.00  0.00    +0.214 C 
BRANCH  30  31
ATOM     31  O   UNL     1       2.580  -7.321  27.494  0.00  0.00    -0.383 OA
ATOM     32  H   UNL     1       2.906  -6.792  28.254  0.00  0.00    +0.210 HD
ENDBRANCH  30  31
BRANCH  29  33
ATOM     33  O   UNL     1       0.505  -6.295  24.619  0.00  0.00    -0.386 OA
ATOM     34  H   UNL     1       0.464  -5.393  25.021  0.00  0.00    +0.210 HD
ENDBRANCH  29  33
BRANCH  28  35
ATOM     35  O   UNL     1       2.823  -9.057  25.348  0.00  0.00    -0.386 OA
ATOM     36  H   UNL     1       3.287  -8.708  26.132  0.00  0.00    +0.210 HD
ENDBRANCH  28  35
BRANCH  27  37
ATOM     37  C   UNL     1       3.394  -6.276  22.891  0.00  0.00    +0.190 C 
BRANCH  37  38
ATOM     38  O   UNL     1       4.642  -5.969  22.277  0.00  0.00    -0.392 OA
ATOM     39  H   UNL     1       4.535  -6.171  21.326  0.00  0.00    +0.210 HD
ENDBRANCH  37  38
ENDBRANCH  27  37
ENDBRANCH  24  25
ENDBRANCH  11  24
BRANCH   7  40
ATOM     40  O   UNL     1       4.065   3.033  26.290  0.00  0.00    -0.461 OA
BRANCH  40  41
ATOM     41  C   UNL     1       4.497   3.887  27.367  0.00  0.00    +0.339 C 
ATOM     42  O   UNL     1       4.978   5.156  26.892  0.00  0.00    -0.331 OA
ATOM     43  C   UNL     1       6.380   5.305  26.651  0.00  0.00    +0.179 C 
ATOM     44  C   UNL     1       7.224   4.842  27.855  0.00  0.00    +0.177 C 
ATOM     45  C   UNL     1       6.933   3.391  28.192  0.00  0.00    +0.180 C 
ATOM     46  C   UNL     1       5.437   3.194  28.403  0.00  0.00    +0.214 C 
BRANCH  46  47
ATOM     47  O   UNL     1       5.087   3.665  29.724  0.00  0.00    -0.383 OA
ATOM     48  H   UNL     1       4.321   4.266  29.608  0.00  0.00    +0.210 HD
ENDBRANCH  46  47
BRANCH  45  49
ATOM     49  O   UNL     1       7.406   2.495  27.190  0.00  0.00    -0.386 OA
ATOM     50  H   UNL     1       6.708   1.857  26.965  0.00  0.00    +0.210 HD
ENDBRANCH  45  49
BRANCH  44  51
ATOM     51  O   UNL     1       6.913   5.666  28.992  0.00  0.00    -0.386 OA
ATOM     52  H   UNL     1       6.490   5.106  29.671  0.00  0.00    +0.210 HD
ENDBRANCH  44  51
BRANCH  43  53
ATOM     53  C   UNL     1       6.817   4.678  25.305  0.00  0.00    +0.197 C 
BRANCH  53  54
ATOM     54  O   UNL     1       8.158   4.147  25.246  0.00  0.00    -0.346 OA
BRANCH  54  55
ATOM     55  C   UNL     1       8.879   4.400  24.036  0.00  0.00    +0.282 C 
ATOM     56  O   UNL     1       8.051   4.116  22.902  0.00  0.00    -0.341 OA
ATOM     57  C   UNL     1       7.881   2.765  22.479  0.00  0.00    +0.178 C 
ATOM     58  C   UNL     1       9.120   1.851  22.621  0.00  0.00    +0.177 C 
ATOM     59  C   UNL     1       9.999   2.159  23.842  0.00  0.00    +0.179 C 
ATOM     60  C   UNL     1      10.234   3.668  23.954  0.00  0.00    +0.201 C 
BRANCH  60  61
ATOM     61  O   UNL     1      11.011   4.152  22.850  0.00  0.00    -0.384 OA
ATOM     62  H   UNL     1      10.398   4.652  22.267  0.00  0.00    +0.210 HD
ENDBRANCH  60  61
BRANCH  59  63
ATOM     63  O   UNL     1       9.491   1.617  25.058  0.00  0.00    -0.386 OA
ATOM     64  H   UNL     1       8.528   1.796  25.101  0.00  0.00    +0.210 HD
ENDBRANCH  59  63
BRANCH  58  65
ATOM     65  O   UNL     1       9.929   2.072  21.441  0.00  0.00    -0.386 OA
ATOM     66  H   UNL     1      10.791   2.404  21.749  0.00  0.00    +0.210 HD
ENDBRANCH  58  65
BRANCH  57  67
ATOM     67  C   UNL     1       6.612   2.131  23.050  0.00  0.00    +0.190 C 
BRANCH  67  68
ATOM     68  O   UNL     1       6.485   0.776  22.642  0.00  0.00    -0.392 OA
ATOM     69  H   UNL     1       5.715   0.766  22.055  0.00  0.00    +0.210 HD
ENDBRANCH  67  68
ENDBRANCH  57  67
ENDBRANCH  54  55
ENDBRANCH  53  54
ENDBRANCH  43  53
ENDBRANCH  40  41
ENDBRANCH   7  40
TORSDOF 24
ENDMDL
MODEL 4
REMARK VINA RESULT:      -6.1      2.339      9.174
REMARK  Name = 
REMARK  24 active torsions:
REMARK  status: ('A' for Active; 'I' for Inactive)
REMARK    1  A    between atoms: C_3  and  O_70
REMARK    2  A    between atoms: C_4  and  O_69
REMARK    3  A    between atoms: C_6  and  C_7
REMARK    4  A    between atoms: C_8  and  O_52
REMARK    5  A    between atoms: C_12  and  O_51
REMARK    6  A    between atoms: C_14  and  O_18
REMARK    7  A    between atoms: O_18  and  C_19
REMARK    8  A    between atoms: C_21  and  O_50
REMARK    9  A    between atoms: C_23  and  O_49
REMARK   10  A    between atoms: C_25  and  O_48
REMARK   11  A    between atoms: C_27  and  C_30
REMARK   12  A    between atoms: C_30  and  O_31
REMARK   13  A    between atoms: O_31  and  C_32
REMARK   14  A    between atoms: C_34  and  O_47
REMARK   15  A    between atoms: C_36  and  O_46
REMARK   16  A    between atoms: C_38  and  O_45
REMARK   17  A    between atoms: C_40  and  C_43
REMARK   18  A    between atoms: C_43  and  O_44
REMARK   19  A    between atoms: O_52  and  C_53
REMARK   20  A    between atoms: C_55  and  O_68
REMARK   21  A    between atoms: C_57  and  O_67
REMARK   22  A    between atoms: C_59  and  O_66
REMARK   23  A    between atoms: C_61  and  C_64
REMARK   24  A    between atoms: C_64  and  O_65
REMARK                            x       y       z     vdW  Elec       q    Type
REMARK                         _______ _______ _______ _____ _____    ______ ____
ROOT
ATOM      1  C   UNL     1       4.635   3.051  24.948  0.00  0.00    +0.181 A 
ATOM      2  O   UNL     1       4.232   1.736  25.032  0.00  0.00    -0.451 OA
ATOM      3  C   UNL     1       4.726   0.958  26.040  0.00  0.00    +0.147 A 
ATOM      4  C   UNL     1       5.537   1.422  27.049  0.00  0.00    +0.109 A 
ATOM      5  C   UNL     1       5.924   0.544  28.072  0.00  0.00    +0.135 A 
ATOM      6  C   UNL     1       5.590  -0.818  28.009  0.00  0.00    +0.092 A 
ATOM      7  C   UNL     1       4.803  -1.294  26.956  0.00  0.00    +0.131 A 
ATOM      8  C   UNL     1       5.931   2.830  26.999  0.00  0.00    +0.238 A 
ATOM      9  O   UNL     1       6.545   3.311  27.949  0.00  0.00    -0.283 OA
ATOM     10  C   UNL     1       4.344  -0.374  26.010  0.00  0.00    +0.093 A 
ATOM     11  C   UNL     1       5.521   3.630  25.796  0.00  0.00    +0.214 A 
ENDROOT
BRANCH   1  13
ATOM     12  C   UNL     1       3.031   4.844  24.404  0.00  0.00    +0.015 A 
ATOM     13  C   UNL     1       3.817   3.765  23.951  0.00  0.00    +0.025 A 
ATOM     14  C   UNL     1       3.712   3.372  22.612  0.00  0.00    +0.060 A 
ATOM     15  C   UNL     1       2.946   4.135  21.735  0.00  0.00    +0.159 A 
ATOM     16  C   UNL     1       2.275   5.273  22.172  0.00  0.00    +0.158 A 
ATOM     17  C   UNL     1       2.267   5.606  23.517  0.00  0.00    +0.050 A 
BRANCH  16  18
ATOM     18  O   UNL     1       1.642   6.045  21.239  0.00  0.00    -0.503 OA
ATOM     19  H   UNL     1       1.210   5.444  20.605  0.00  0.00    +0.292 HD
ENDBRANCH  16  18
BRANCH  15  20
ATOM     20  O   UNL     1       2.861   3.765  20.424  0.00  0.00    -0.503 OA
ATOM     21  H   UNL     1       2.503   4.549  19.962  0.00  0.00    +0.292 HD
ENDBRANCH  15  20
ENDBRANCH   1  13
BRANCH   5  22
ATOM     22  O   UNL     1       6.621   0.969  29.173  0.00  0.00    -0.506 OA
ATOM     23  H   UNL     1       7.460   1.384  28.862  0.00  0.00    +0.292 HD
ENDBRANCH   5  22
BRANCH  11  24
ATOM     24  O   UNL     1       5.963   4.922  25.801  0.00  0.00    -0.453 OA
BRANCH  24  25
ATOM     25  C   UNL     1       7.133   5.337  25.104  0.00  0.00    +0.340 C 
ATOM     26  O   UNL     1       7.245   4.422  24.001  0.00  0.00    -0.331 OA
ATOM     27  C   UNL     1       8.413   4.548  23.171  0.00  0.00    +0.179 C 
ATOM     28  C   UNL     1       8.664   5.992  22.696  0.00  0.00    +0.177 C 
ATOM     29  C   UNL     1       8.469   7.041  23.809  0.00  0.00    +0.180 C 
ATOM     30  C   UNL     1       7.149   6.789  24.561  0.00  0.00    +0.214 C 
BRANCH  30  31
ATOM     31  O   UNL     1       6.036   7.035  23.681  0.00  0.00    -0.383 OA
ATOM     32  H   UNL     1       6.416   7.270  22.808  0.00  0.00    +0.210 HD
ENDBRANCH  30  31
BRANCH  29  33
ATOM     33  O   UNL     1       9.587   7.107  24.688  0.00  0.00    -0.386 OA
ATOM     34  H   UNL     1      10.388   7.412  24.196  0.00  0.00    +0.210 HD
ENDBRANCH  29  33
BRANCH  28  35
ATOM     35  O   UNL     1       7.728   6.255  21.630  0.00  0.00    -0.386 OA
ATOM     36  H   UNL     1       8.045   7.029  21.128  0.00  0.00    +0.210 HD
ENDBRANCH  28  35
BRANCH  27  37
ATOM     37  C   UNL     1       9.617   3.857  23.816  0.00  0.00    +0.190 C 
BRANCH  37  38
ATOM     38  O   UNL     1      10.847   4.488  23.473  0.00  0.00    -0.392 OA
ATOM     39  H   UNL     1      11.514   4.145  24.101  0.00  0.00    +0.210 HD
ENDBRANCH  37  38
ENDBRANCH  27  37
ENDBRANCH  24  25
ENDBRANCH  11  24
BRANCH   7  40
ATOM     40  O   UNL     1       4.560  -2.649  26.878  0.00  0.00    -0.461 OA
BRANCH  40  41
ATOM     41  C   UNL     1       5.544  -3.466  27.540  0.00  0.00    +0.339 C 
ATOM     42  O   UNL     1       6.860  -3.282  26.991  0.00  0.00    -0.331 OA
ATOM     43  C   UNL     1       7.297  -4.170  25.959  0.00  0.00    +0.179 C 
ATOM     44  C   UNL     1       7.094  -5.648  26.347  0.00  0.00    +0.177 C 
ATOM     45  C   UNL     1       5.635  -5.930  26.655  0.00  0.00    +0.180 C 
ATOM     46  C   UNL     1       5.129  -4.961  27.717  0.00  0.00    +0.214 C 
BRANCH  46  47
ATOM     47  O   UNL     1       5.584  -5.412  29.013  0.00  0.00    -0.383 OA
ATOM     48  H   UNL     1       5.112  -4.865  29.675  0.00  0.00    +0.210 HD
ENDBRANCH  46  47
BRANCH  45  49
ATOM     49  O   UNL     1       4.811  -5.855  25.495  0.00  0.00    -0.386 OA
ATOM     50  H   UNL     1       3.898  -6.097  25.725  0.00  0.00    +0.210 HD
ENDBRANCH  45  49
BRANCH  44  51
ATOM     51  O   UNL     1       7.891  -5.943  27.507  0.00  0.00    -0.386 OA
ATOM     52  H   UNL     1       7.808  -5.199  28.134  0.00  0.00    +0.210 HD
ENDBRANCH  44  51
BRANCH  43  53
ATOM     53  C   UNL     1       6.708  -3.802  24.575  0.00  0.00    +0.197 C 
BRANCH  53  54
ATOM     54  O   UNL     1       7.103  -2.528  24.024  0.00  0.00    -0.346 OA
BRANCH  54  55
ATOM     55  C   UNL     1       8.426  -2.462  23.484  0.00  0.00    +0.282 C 
ATOM     56  O   UNL     1       9.352  -2.060  24.499  0.00  0.00    -0.341 OA
ATOM     57  C   UNL     1       9.460  -0.681  24.844  0.00  0.00    +0.178 C 
ATOM     58  C   UNL     1       9.305   0.322  23.677  0.00  0.00    +0.177 C 
ATOM     59  C   UNL     1       8.306  -0.114  22.596  0.00  0.00    +0.179 C 
ATOM     60  C   UNL     1       8.540  -1.581  22.223  0.00  0.00    +0.201 C 
BRANCH  60  61
ATOM     61  O   UNL     1       9.817  -1.754  21.592  0.00  0.00    -0.384 OA
ATOM     62  H   UNL     1      10.063  -2.699  21.700  0.00  0.00    +0.210 HD
ENDBRANCH  60  61
BRANCH  59  63
ATOM     63  O   UNL     1       6.946   0.124  22.949  0.00  0.00    -0.386 OA
ATOM     64  H   UNL     1       6.901   0.302  23.912  0.00  0.00    +0.210 HD
ENDBRANCH  59  63
BRANCH  58  65
ATOM     65  O   UNL     1      10.604   0.423  23.049  0.00  0.00    -0.386 OA
ATOM     66  H   UNL     1      10.464   0.304  22.091  0.00  0.00    +0.210 HD
ENDBRANCH  58  65
BRANCH  57  67
ATOM     67  C   UNL     1       8.602  -0.314  26.056  0.00  0.00    +0.190 C 
BRANCH  67  68
ATOM     68  O   UNL     1       9.340  -0.431  27.264  0.00  0.00    -0.392 OA
ATOM     69  H   UNL     1       8.750  -0.905  27.868  0.00  0.00    +0.210 HD
ENDBRANCH  67  68
ENDBRANCH  57  67
ENDBRANCH  54  55
ENDBRANCH  53  54
ENDBRANCH  43  53
ENDBRANCH  40  41
ENDBRANCH   7  40
TORSDOF 24
ENDMDL
MODEL 5
REMARK VINA RESULT:      -6.1      1.565      2.325
REMARK  Name = 
REMARK  24 active torsions:
REMARK  status: ('A' for Active; 'I' for Inactive)
REMARK    1  A    between atoms: C_3  and  O_70
REMARK    2  A    between atoms: C_4  and  O_69
REMARK    3  A    between atoms: C_6  and  C_7
REMARK    4  A    between atoms: C_8  and  O_52
REMARK    5  A    between atoms: C_12  and  O_51
REMARK    6  A    between atoms: C_14  and  O_18
REMARK    7  A    between atoms: O_18  and  C_19
REMARK    8  A    between atoms: C_21  and  O_50
REMARK    9  A    between atoms: C_23  and  O_49
REMARK   10  A    between atoms: C_25  and  O_48
REMARK   11  A    between atoms: C_27  and  C_30
REMARK   12  A    between atoms: C_30  and  O_31
REMARK   13  A    between atoms: O_31  and  C_32
REMARK   14  A    between atoms: C_34  and  O_47
REMARK   15  A    between atoms: C_36  and  O_46
REMARK   16  A    between atoms: C_38  and  O_45
REMARK   17  A    between atoms: C_40  and  C_43
REMARK   18  A    between atoms: C_43  and  O_44
REMARK   19  A    between atoms: O_52  and  C_53
REMARK   20  A    between atoms: C_55  and  O_68
REMARK   21  A    between atoms: C_57  and  O_67
REMARK   22  A    between atoms: C_59  and  O_66
REMARK   23  A    between atoms: C_61  and  C_64
REMARK   24  A    between atoms: C_64  and  O_65
REMARK                            x       y       z     vdW  Elec       q    Type
REMARK                         _______ _______ _______ _____ _____    ______ ____
ROOT
ATOM      1  C   UNL     1       5.650  -2.475  25.651  0.00  0.00    +0.181 A 
ATOM      2  O   UNL     1       6.031  -1.372  26.383  0.00  0.00    -0.451 OA
ATOM      3  C   UNL     1       5.065  -0.528  26.854  0.00  0.00    +0.147 A 
ATOM      4  C   UNL     1       3.714  -0.751  26.728  0.00  0.00    +0.109 A 
ATOM      5  C   UNL     1       2.815   0.152  27.314  0.00  0.00    +0.135 A 
ATOM      6  C   UNL     1       3.280   1.331  27.920  0.00  0.00    +0.092 A 
ATOM      7  C   UNL     1       4.653   1.575  28.005  0.00  0.00    +0.131 A 
ATOM      8  C   UNL     1       3.297  -1.947  25.995  0.00  0.00    +0.238 A 
ATOM      9  O   UNL     1       2.106  -2.248  25.976  0.00  0.00    -0.283 OA
ATOM     10  C   UNL     1       5.526   0.605  27.506  0.00  0.00    +0.093 A 
ATOM     11  C   UNL     1       4.365  -2.775  25.340  0.00  0.00    +0.214 A 
ENDROOT
BRANCH   1  13
ATOM     12  C   UNL     1       7.756  -3.452  26.486  0.00  0.00    +0.015 A 
ATOM     13  C   UNL     1       6.807  -3.367  25.447  0.00  0.00    +0.025 A 
ATOM     14  C   UNL     1       7.054  -4.051  24.251  0.00  0.00    +0.060 A 
ATOM     15  C   UNL     1       8.152  -4.903  24.168  0.00  0.00    +0.159 A 
ATOM     16  C   UNL     1       9.012  -5.074  25.248  0.00  0.00    +0.158 A 
ATOM     17  C   UNL     1       8.854  -4.312  26.395  0.00  0.00    +0.050 A 
BRANCH  16  18
ATOM     18  O   UNL     1       9.997  -6.014  25.143  0.00  0.00    -0.503 OA
ATOM     19  H   UNL     1       9.566  -6.886  25.080  0.00  0.00    +0.292 HD
ENDBRANCH  16  18
BRANCH  15  20
ATOM     20  O   UNL     1       8.381  -5.588  23.010  0.00  0.00    -0.503 OA
ATOM     21  H   UNL     1       7.631  -5.356  22.426  0.00  0.00    +0.292 HD
ENDBRANCH  15  20
ENDBRANCH   1  13
BRANCH   5  22
ATOM     22  O   UNL     1       1.464  -0.077  27.341  0.00  0.00    -0.506 OA
ATOM     23  H   UNL     1       1.134  -0.060  26.412  0.00  0.00    +0.292 HD
ENDBRANCH   5  22
BRANCH  11  24
ATOM     24  O   UNL     1       3.894  -3.848  24.639  0.00  0.00    -0.453 OA
BRANCH  24  25
ATOM     25  C   UNL     1       3.570  -5.089  25.258  0.00  0.00    +0.340 C 
ATOM     26  O   UNL     1       2.277  -5.433  24.731  0.00  0.00    -0.331 OA
ATOM     27  C   UNL     1       1.651  -6.611  25.268  0.00  0.00    +0.179 C 
ATOM     28  C   UNL     1       2.577  -7.843  25.262  0.00  0.00    +0.177 C 
ATOM     29  C   UNL     1       4.012  -7.528  25.728  0.00  0.00    +0.180 C 
ATOM     30  C   UNL     1       4.545  -6.270  25.017  0.00  0.00    +0.214 C 
BRANCH  30  31
ATOM     31  O   UNL     1       4.709  -6.540  23.613  0.00  0.00    -0.383 OA
ATOM     32  H   UNL     1       5.666  -6.700  23.468  0.00  0.00    +0.210 HD
ENDBRANCH  30  31
BRANCH  29  33
ATOM     33  O   UNL     1       4.109  -7.429  27.145  0.00  0.00    -0.386 OA
ATOM     34  H   UNL     1       3.381  -7.944  27.571  0.00  0.00    +0.210 HD
ENDBRANCH  29  33
BRANCH  28  35
ATOM     35  O   UNL     1       2.617  -8.334  23.906  0.00  0.00    -0.386 OA
ATOM     36  H   UNL     1       2.615  -7.568  23.303  0.00  0.00    +0.210 HD
ENDBRANCH  28  35
BRANCH  27  37
ATOM     37  C   UNL     1       0.980  -6.308  26.610  0.00  0.00    +0.190 C 
BRANCH  37  38
ATOM     38  O   UNL     1       1.099  -7.391  27.528  0.00  0.00    -0.392 OA
ATOM     39  H   UNL     1       0.442  -8.058  27.249  0.00  0.00    +0.210 HD
ENDBRANCH  37  38
ENDBRANCH  27  37
ENDBRANCH  24  25
ENDBRANCH  11  24
BRANCH   7  40
ATOM     40  O   UNL     1       5.075   2.777  28.532  0.00  0.00    -0.461 OA
BRANCH  40  41
ATOM     41  C   UNL     1       4.736   3.926  27.731  0.00  0.00    +0.339 C 
ATOM     42  O   UNL     1       5.091   3.747  26.350  0.00  0.00    -0.331 OA
ATOM     43  C   UNL     1       6.365   4.225  25.907  0.00  0.00    +0.179 C 
ATOM     44  C   UNL     1       6.608   5.689  26.324  0.00  0.00    +0.177 C 
ATOM     45  C   UNL     1       6.520   5.842  27.832  0.00  0.00    +0.180 C 
ATOM     46  C   UNL     1       5.192   5.291  28.336  0.00  0.00    +0.214 C 
BRANCH  46  47
ATOM     47  O   UNL     1       4.158   6.270  28.087  0.00  0.00    -0.383 OA
ATOM     48  H   UNL     1       4.040   6.766  28.924  0.00  0.00    +0.210 HD
ENDBRANCH  46  47
BRANCH  45  49
ATOM     49  O   UNL     1       7.600   5.202  28.506  0.00  0.00    -0.386 OA
ATOM     50  H   UNL     1       8.318   5.840  28.654  0.00  0.00    +0.210 HD
ENDBRANCH  45  49
BRANCH  44  51
ATOM     51  O   UNL     1       5.616   6.525  25.703  0.00  0.00    -0.386 OA
ATOM     52  H   UNL     1       4.735   6.153  25.897  0.00  0.00    +0.210 HD
ENDBRANCH  44  51
BRANCH  43  53
ATOM     53  C   UNL     1       7.520   3.267  26.289  0.00  0.00    +0.197 C 
BRANCH  53  54
ATOM     54  O   UNL     1       8.409   2.871  25.223  0.00  0.00    -0.346 OA
BRANCH  54  55
ATOM     55  C   UNL     1       7.786   2.297  24.070  0.00  0.00    +0.282 C 
ATOM     56  O   UNL     1       7.669   0.879  24.228  0.00  0.00    -0.341 OA
ATOM     57  C   UNL     1       8.803   0.050  23.987  0.00  0.00    +0.178 C 
ATOM     58  C   UNL     1       9.735   0.497  22.836  0.00  0.00    +0.177 C 
ATOM     59  C   UNL     1       9.860   2.020  22.677  0.00  0.00    +0.179 C 
ATOM     60  C   UNL     1       8.475   2.671  22.741  0.00  0.00    +0.201 C 
BRANCH  60  61
ATOM     61  O   UNL     1       7.670   2.279  21.620  0.00  0.00    -0.384 OA
ATOM     62  H   UNL     1       7.040   1.598  21.944  0.00  0.00    +0.210 HD
ENDBRANCH  60  61
BRANCH  59  63
ATOM     63  O   UNL     1      10.761   2.616  23.606  0.00  0.00    -0.386 OA
ATOM     64  H   UNL     1      10.261   3.250  24.163  0.00  0.00    +0.210 HD
ENDBRANCH  59  63
BRANCH  58  65
ATOM     65  O   UNL     1       9.154  -0.018  21.615  0.00  0.00    -0.386 OA
ATOM     66  H   UNL     1       8.492   0.635  21.322  0.00  0.00    +0.210 HD
ENDBRANCH  58  65
BRANCH  57  67
ATOM     67  C   UNL     1       9.567  -0.281  25.269  0.00  0.00    +0.190 C 
BRANCH  67  68
ATOM     68  O   UNL     1       8.774  -0.033  26.421  0.00  0.00    -0.392 OA
ATOM     69  H   UNL     1       9.382   0.371  27.057  0.00  0.00    +0.210 HD
ENDBRANCH  67  68
ENDBRANCH  57  67
ENDBRANCH  54  55
ENDBRANCH  53  54
ENDBRANCH  43  53
ENDBRANCH  40  41
ENDBRANCH   7  40
TORSDOF 24
ENDMDL
MODEL 6
REMARK VINA RESULT:      -5.9      2.317      9.207
REMARK  Name = 
REMARK  24 active torsions:
REMARK  status: ('A' for Active; 'I' for Inactive)
REMARK    1  A    between atoms: C_3  and  O_70
REMARK    2  A    between atoms: C_4  and  O_69
REMARK    3  A    between atoms: C_6  and  C_7
REMARK    4  A    between atoms: C_8  and  O_52
REMARK    5  A    between atoms: C_12  and  O_51
REMARK    6  A    between atoms: C_14  and  O_18
REMARK    7  A    between atoms: O_18  and  C_19
REMARK    8  A    between atoms: C_21  and  O_50
REMARK    9  A    between atoms: C_23  and  O_49
REMARK   10  A    between atoms: C_25  and  O_48
REMARK   11  A    between atoms: C_27  and  C_30
REMARK   12  A    between atoms: C_30  and  O_31
REMARK   13  A    between atoms: O_31  and  C_32
REMARK   14  A    between atoms: C_34  and  O_47
REMARK   15  A    between atoms: C_36  and  O_46
REMARK   16  A    between atoms: C_38  and  O_45
REMARK   17  A    between atoms: C_40  and  C_43
REMARK   18  A    between atoms: C_43  and  O_44
REMARK   19  A    between atoms: O_52  and  C_53
REMARK   20  A    between atoms: C_55  and  O_68
REMARK   21  A    between atoms: C_57  and  O_67
REMARK   22  A    between atoms: C_59  and  O_66
REMARK   23  A    between atoms: C_61  and  C_64
REMARK   24  A    between atoms: C_64  and  O_65
REMARK                            x       y       z     vdW  Elec       q    Type
REMARK                         _______ _______ _______ _____ _____    ______ ____
ROOT
ATOM      1  C   UNL     1       4.181   2.715  25.223  0.00  0.00    +0.181 A 
ATOM      2  O   UNL     1       3.717   1.440  25.457  0.00  0.00    -0.451 OA
ATOM      3  C   UNL     1       4.324   0.683  26.419  0.00  0.00    +0.147 A 
ATOM      4  C   UNL     1       5.321   1.141  27.249  0.00  0.00    +0.109 A 
ATOM      5  C   UNL     1       5.820   0.294  28.249  0.00  0.00    +0.135 A 
ATOM      6  C   UNL     1       5.395  -1.043  28.330  0.00  0.00    +0.092 A 
ATOM      7  C   UNL     1       4.414  -1.516  27.454  0.00  0.00    +0.131 A 
ATOM      8  C   UNL     1       5.788   2.512  27.043  0.00  0.00    +0.238 A 
ATOM      9  O   UNL     1       6.581   2.998  27.846  0.00  0.00    -0.283 OA
ATOM     10  C   UNL     1       3.860  -0.618  26.539  0.00  0.00    +0.093 A 
ATOM     11  C   UNL     1       5.231   3.274  25.874  0.00  0.00    +0.214 A 
ENDROOT
BRANCH   1  13
ATOM     12  C   UNL     1       2.101   4.003  24.908  0.00  0.00    +0.015 A 
ATOM     13  C   UNL     1       3.253   3.432  24.329  0.00  0.00    +0.025 A 
ATOM     14  C   UNL     1       3.410   3.494  22.940  0.00  0.00    +0.060 A 
ATOM     15  C   UNL     1       2.502   4.230  22.184  0.00  0.00    +0.159 A 
ATOM     16  C   UNL     1       1.438   4.894  22.786  0.00  0.00    +0.158 A 
ATOM     17  C   UNL     1       1.197   4.743  24.142  0.00  0.00    +0.050 A 
BRANCH  16  18
ATOM     18  O   UNL     1       0.656   5.698  22.005  0.00  0.00    -0.503 OA
ATOM     19  H   UNL     1      -0.042   6.071  22.573  0.00  0.00    +0.292 HD
ENDBRANCH  16  18
BRANCH  15  20
ATOM     20  O   UNL     1       2.666   4.309  20.831  0.00  0.00    -0.503 OA
ATOM     21  H   UNL     1       3.571   4.659  20.706  0.00  0.00    +0.292 HD
ENDBRANCH  15  20
ENDBRANCH   1  13
BRANCH   5  22
ATOM     22  O   UNL     1       6.716   0.726  29.191  0.00  0.00    -0.506 OA
ATOM     23  H   UNL     1       6.413   0.403  30.072  0.00  0.00    +0.292 HD
ENDBRANCH   5  22
BRANCH  11  24
ATOM     24  O   UNL     1       5.748   4.529  25.723  0.00  0.00    -0.453 OA
BRANCH  24  25
ATOM     25  C   UNL     1       6.686   4.857  24.704  0.00  0.00    +0.340 C 
ATOM     26  O   UNL     1       6.626   6.290  24.599  0.00  0.00    -0.331 OA
ATOM     27  C   UNL     1       7.413   6.897  23.559  0.00  0.00    +0.179 C 
ATOM     28  C   UNL     1       8.878   6.421  23.554  0.00  0.00    +0.177 C 
ATOM     29  C   UNL     1       9.024   4.900  23.756  0.00  0.00    +0.180 C 
ATOM     30  C   UNL     1       8.157   4.428  24.939  0.00  0.00    +0.214 C 
BRANCH  30  31
ATOM     31  O   UNL     1       8.675   4.972  26.167  0.00  0.00    -0.383 OA
ATOM     32  H   UNL     1       9.440   4.413  26.421  0.00  0.00    +0.210 HD
ENDBRANCH  30  31
BRANCH  29  33
ATOM     33  O   UNL     1       8.754   4.170  22.565  0.00  0.00    -0.386 OA
ATOM     34  H   UNL     1       8.248   4.733  21.929  0.00  0.00    +0.210 HD
ENDBRANCH  29  33
BRANCH  28  35
ATOM     35  O   UNL     1       9.549   7.108  24.631  0.00  0.00    -0.386 OA
ATOM     36  H   UNL     1       8.981   7.065  25.422  0.00  0.00    +0.210 HD
ENDBRANCH  28  35
BRANCH  27  37
ATOM     37  C   UNL     1       6.694   6.808  22.210  0.00  0.00    +0.190 C 
BRANCH  37  38
ATOM     38  O   UNL     1       7.568   6.398  21.162  0.00  0.00    -0.392 OA
ATOM     39  H   UNL     1       8.317   5.942  21.594  0.00  0.00    +0.210 HD
ENDBRANCH  37  38
ENDBRANCH  27  37
ENDBRANCH  24  25
ENDBRANCH  11  24
BRANCH   7  40
ATOM     40  O   UNL     1       4.078  -2.852  27.506  0.00  0.00    -0.461 OA
BRANCH  40  41
ATOM     41  C   UNL     1       5.103  -3.700  28.057  0.00  0.00    +0.339 C 
ATOM     42  O   UNL     1       6.410  -3.362  27.561  0.00  0.00    -0.331 OA
ATOM     43  C   UNL     1       6.907  -4.064  26.418  0.00  0.00    +0.179 C 
ATOM     44  C   UNL     1       6.788  -5.592  26.583  0.00  0.00    +0.177 C 
ATOM     45  C   UNL     1       5.345  -5.998  26.823  0.00  0.00    +0.180 C 
ATOM     46  C   UNL     1       4.776  -5.226  28.007  0.00  0.00    +0.214 C 
BRANCH  46  47
ATOM     47  O   UNL     1       5.246  -5.835  29.230  0.00  0.00    -0.383 OA
ATOM     48  H   UNL     1       4.449  -6.154  29.703  0.00  0.00    +0.210 HD
ENDBRANCH  46  47
BRANCH  45  49
ATOM     49  O   UNL     1       4.527  -5.802  25.674  0.00  0.00    -0.386 OA
ATOM     50  H   UNL     1       4.606  -6.567  25.080  0.00  0.00    +0.210 HD
ENDBRANCH  45  49
BRANCH  44  51
ATOM     51  O   UNL     1       7.592  -6.008  27.700  0.00  0.00    -0.386 OA
ATOM     52  H   UNL     1       8.328  -6.552  27.364  0.00  0.00    +0.210 HD
ENDBRANCH  44  51
BRANCH  43  53
ATOM     53  C   UNL     1       6.307  -3.531  25.093  0.00  0.00    +0.197 C 
BRANCH  53  54
ATOM     54  O   UNL     1       7.244  -3.024  24.119  0.00  0.00    -0.346 OA
BRANCH  54  55
ATOM     55  C   UNL     1       6.816  -1.877  23.378  0.00  0.00    +0.282 C 
ATOM     56  O   UNL     1       7.731  -1.614  22.309  0.00  0.00    -0.341 OA
ATOM     57  C   UNL     1       8.956  -0.937  22.584  0.00  0.00    +0.178 C 
ATOM     58  C   UNL     1       8.891   0.166  23.667  0.00  0.00    +0.177 C 
ATOM     59  C   UNL     1       7.911  -0.128  24.812  0.00  0.00    +0.179 C 
ATOM     60  C   UNL     1       6.577  -0.627  24.250  0.00  0.00    +0.201 C 
BRANCH  60  61
ATOM     61  O   UNL     1       5.918   0.402  23.497  0.00  0.00    -0.384 OA
ATOM     62  H   UNL     1       6.549   0.700  22.807  0.00  0.00    +0.210 HD
ENDBRANCH  60  61
BRANCH  59  63
ATOM     63  O   UNL     1       8.433  -1.023  25.791  0.00  0.00    -0.386 OA
ATOM     64  H   UNL     1       8.197  -1.939  25.533  0.00  0.00    +0.210 HD
ENDBRANCH  59  63
BRANCH  58  65
ATOM     65  O   UNL     1       8.429   1.365  23.001  0.00  0.00    -0.386 OA
ATOM     66  H   UNL     1       8.903   2.113  23.410  0.00  0.00    +0.210 HD
ENDBRANCH  58  65
BRANCH  57  67
ATOM     67  C   UNL     1      10.121  -1.905  22.798  0.00  0.00    +0.190 C 
BRANCH  67  68
ATOM     68  O   UNL     1       9.971  -2.633  24.007  0.00  0.00    -0.392 OA
ATOM     69  H   UNL     1       9.054  -2.476  24.278  0.00  0.00    +0.210 HD
ENDBRANCH  67  68
ENDBRANCH  57  67
ENDBRANCH  54  55
ENDBRANCH  53  54
ENDBRANCH  43  53
ENDBRANCH  40  41
ENDBRANCH   7  40
TORSDOF 24
ENDMDL
MODEL 7
REMARK VINA RESULT:      -5.8      2.251     10.746
REMARK  Name = 
REMARK  24 active torsions:
REMARK  status: ('A' for Active; 'I' for Inactive)
REMARK    1  A    between atoms: C_3  and  O_70
REMARK    2  A    between atoms: C_4  and  O_69
REMARK    3  A    between atoms: C_6  and  C_7
REMARK    4  A    between atoms: C_8  and  O_52
REMARK    5  A    between atoms: C_12  and  O_51
REMARK    6  A    between atoms: C_14  and  O_18
REMARK    7  A    between atoms: O_18  and  C_19
REMARK    8  A    between atoms: C_21  and  O_50
REMARK    9  A    between atoms: C_23  and  O_49
REMARK   10  A    between atoms: C_25  and  O_48
REMARK   11  A    between atoms: C_27  and  C_30
REMARK   12  A    between atoms: C_30  and  O_31
REMARK   13  A    between atoms: O_31  and  C_32
REMARK   14  A    between atoms: C_34  and  O_47
REMARK   15  A    between atoms: C_36  and  O_46
REMARK   16  A    between atoms: C_38  and  O_45
REMARK   17  A    between atoms: C_40  and  C_43
REMARK   18  A    between atoms: C_43  and  O_44
REMARK   19  A    between atoms: O_52  and  C_53
REMARK   20  A    between atoms: C_55  and  O_68
REMARK   21  A    between atoms: C_57  and  O_67
REMARK   22  A    between atoms: C_59  and  O_66
REMARK   23  A    between atoms: C_61  and  C_64
REMARK   24  A    between atoms: C_64  and  O_65
REMARK                            x       y       z     vdW  Elec       q    Type
REMARK                         _______ _______ _______ _____ _____    ______ ____
ROOT
ATOM      1  C   UNL     1       6.587   1.754  23.034  0.00  0.00    +0.181 A 
ATOM      2  O   UNL     1       6.239   0.439  23.245  0.00  0.00    -0.451 OA
ATOM      3  C   UNL     1       7.228  -0.501  23.325  0.00  0.00    +0.147 A 
ATOM      4  C   UNL     1       8.573  -0.212  23.303  0.00  0.00    +0.109 A 
ATOM      5  C   UNL     1       9.497  -1.253  23.465  0.00  0.00    +0.135 A 
ATOM      6  C   UNL     1       9.066  -2.588  23.530  0.00  0.00    +0.092 A 
ATOM      7  C   UNL     1       7.699  -2.880  23.505  0.00  0.00    +0.131 A 
ATOM      8  C   UNL     1       8.955   1.190  23.131  0.00  0.00    +0.238 A 
ATOM      9  O   UNL     1      10.139   1.502  23.238  0.00  0.00    -0.283 OA
ATOM     10  C   UNL     1       6.799  -1.813  23.451  0.00  0.00    +0.093 A 
ATOM     11  C   UNL     1       7.862   2.188  22.875  0.00  0.00    +0.214 A 
ENDROOT
BRANCH   1  13
ATOM     12  C   UNL     1       4.801   2.640  24.488  0.00  0.00    +0.015 A 
ATOM     13  C   UNL     1       5.408   2.622  23.215  0.00  0.00    +0.025 A 
ATOM     14  C   UNL     1       4.815   3.347  22.176  0.00  0.00    +0.060 A 
ATOM     15  C   UNL     1       3.728   4.171  22.454  0.00  0.00    +0.159 A 
ATOM     16  C   UNL     1       3.217   4.275  23.744  0.00  0.00    +0.158 A 
ATOM     17  C   UNL     1       3.712   3.472  24.758  0.00  0.00    +0.050 A 
BRANCH  16  18
ATOM     18  O   UNL     1       2.230   5.192  23.973  0.00  0.00    -0.503 OA
ATOM     19  H   UNL     1       1.586   4.785  24.580  0.00  0.00    +0.292 HD
ENDBRANCH  16  18
BRANCH  15  20
ATOM     20  O   UNL     1       3.162   4.896  21.445  0.00  0.00    -0.503 OA
ATOM     21  H   UNL     1       3.025   5.789  21.821  0.00  0.00    +0.292 HD
ENDBRANCH  15  20
ENDBRANCH   1  13
BRANCH   5  22
ATOM     22  O   UNL     1      10.843  -1.023  23.585  0.00  0.00    -0.506 OA
ATOM     23  H   UNL     1      11.319  -1.743  23.109  0.00  0.00    +0.292 HD
ENDBRANCH   5  22
BRANCH  11  24
ATOM     24  O   UNL     1       8.301   3.466  22.680  0.00  0.00    -0.453 OA
BRANCH  24  25
ATOM     25  C   UNL     1       7.972   4.535  23.561  0.00  0.00    +0.340 C 
ATOM     26  O   UNL     1       8.713   4.260  24.763  0.00  0.00    -0.331 OA
ATOM     27  C   UNL     1       8.489   5.141  25.877  0.00  0.00    +0.179 C 
ATOM     28  C   UNL     1       8.609   6.631  25.504  0.00  0.00    +0.177 C 
ATOM     29  C   UNL     1       7.915   6.983  24.173  0.00  0.00    +0.180 C 
ATOM     30  C   UNL     1       8.305   5.970  23.079  0.00  0.00    +0.214 C 
BRANCH  30  31
ATOM     31  O   UNL     1       9.703   6.110  22.765  0.00  0.00    -0.383 OA
ATOM     32  H   UNL     1      10.189   6.045  23.615  0.00  0.00    +0.210 HD
ENDBRANCH  30  31
BRANCH  29  33
ATOM     33  O   UNL     1       6.504   7.105  24.317  0.00  0.00    -0.386 OA
ATOM     34  H   UNL     1       6.234   6.846  25.232  0.00  0.00    +0.210 HD
ENDBRANCH  29  33
BRANCH  28  35
ATOM     35  O   UNL     1      10.017   6.927  25.396  0.00  0.00    -0.386 OA
ATOM     36  H   UNL     1      10.135   7.608  24.708  0.00  0.00    +0.210 HD
ENDBRANCH  28  35
BRANCH  27  37
ATOM     37  C   UNL     1       7.209   4.759  26.626  0.00  0.00    +0.190 C 
BRANCH  37  38
ATOM     38  O   UNL     1       7.323   4.974  28.029  0.00  0.00    -0.392 OA
ATOM     39  H   UNL     1       8.202   4.633  28.287  0.00  0.00    +0.210 HD
ENDBRANCH  37  38
ENDBRANCH  27  37
ENDBRANCH  24  25
ENDBRANCH  11  24
BRANCH   7  40
ATOM     40  O   UNL     1       7.310  -4.203  23.488  0.00  0.00    -0.461 OA
BRANCH  40  41
ATOM     41  C   UNL     1       7.796  -4.977  24.601  0.00  0.00    +0.339 C 
ATOM     42  O   UNL     1       6.859  -5.989  25.007  0.00  0.00    -0.331 OA
ATOM     43  C   UNL     1       5.933  -5.680  26.052  0.00  0.00    +0.179 C 
ATOM     44  C   UNL     1       6.637  -5.091  27.291  0.00  0.00    +0.177 C 
ATOM     45  C   UNL     1       7.409  -3.836  26.927  0.00  0.00    +0.180 C 
ATOM     46  C   UNL     1       8.367  -4.127  25.779  0.00  0.00    +0.214 C 
BRANCH  46  47
ATOM     47  O   UNL     1       9.533  -4.800  26.305  0.00  0.00    -0.383 OA
ATOM     48  H   UNL     1      10.254  -4.651  25.657  0.00  0.00    +0.210 HD
ENDBRANCH  46  47
BRANCH  45  49
ATOM     49  O   UNL     1       6.551  -2.752  26.583  0.00  0.00    -0.386 OA
ATOM     50  H   UNL     1       5.630  -2.983  26.790  0.00  0.00    +0.210 HD
ENDBRANCH  45  49
BRANCH  44  51
ATOM     51  O   UNL     1       7.545  -6.071  27.824  0.00  0.00    -0.386 OA
ATOM     52  H   UNL     1       8.091  -5.642  28.511  0.00  0.00    +0.210 HD
ENDBRANCH  44  51
BRANCH  43  53
ATOM     53  C   UNL     1       4.740  -4.829  25.550  0.00  0.00    +0.197 C 
BRANCH  53  54
ATOM     54  O   UNL     1       3.489  -5.523  25.355  0.00  0.00    -0.346 OA
BRANCH  54  55
ATOM     55  C   UNL     1       3.355  -6.773  26.038  0.00  0.00    +0.282 C 
ATOM     56  O   UNL     1       3.231  -7.840  25.091  0.00  0.00    -0.341 OA
ATOM     57  C   UNL     1       1.971  -8.082  24.468  0.00  0.00    +0.178 C 
ATOM     58  C   UNL     1       0.724  -7.856  25.354  0.00  0.00    +0.177 C 
ATOM     59  C   UNL     1       0.863  -6.706  26.363  0.00  0.00    +0.179 C 
ATOM     60  C   UNL     1       2.215  -6.794  27.077  0.00  0.00    +0.201 C 
BRANCH  60  61
ATOM     61  O   UNL     1       2.290  -7.971  27.894  0.00  0.00    -0.384 OA
ATOM     62  H   UNL     1       1.410  -8.083  28.316  0.00  0.00    +0.210 HD
ENDBRANCH  60  61
BRANCH  59  63
ATOM     63  O   UNL     1       0.659  -5.418  25.788  0.00  0.00    -0.386 OA
ATOM     64  H   UNL     1       0.325  -5.534  24.874  0.00  0.00    +0.210 HD
ENDBRANCH  59  63
BRANCH  58  65
ATOM     65  O   UNL     1       0.534  -9.074  26.111  0.00  0.00    -0.386 OA
ATOM     66  H   UNL     1      -0.411  -9.114  26.347  0.00  0.00    +0.210 HD
ENDBRANCH  58  65
BRANCH  57  67
ATOM     67  C   UNL     1       1.855  -7.403  23.102  0.00  0.00    +0.190 C 
BRANCH  67  68
ATOM     68  O   UNL     1       3.114  -6.913  22.662  0.00  0.00    -0.392 OA
ATOM     69  H   UNL     1       3.231  -6.075  23.133  0.00  0.00    +0.210 HD
ENDBRANCH  67  68
ENDBRANCH  57  67
ENDBRANCH  54  55
ENDBRANCH  53  54
ENDBRANCH  43  53
ENDBRANCH  40  41
ENDBRANCH   7  40
TORSDOF 24
ENDMDL
MODEL 8
REMARK VINA RESULT:      -5.8      2.507      8.882
REMARK  Name = 
REMARK  24 active torsions:
REMARK  status: ('A' for Active; 'I' for Inactive)
REMARK    1  A    between atoms: C_3  and  O_70
REMARK    2  A    between atoms: C_4  and  O_69
REMARK    3  A    between atoms: C_6  and  C_7
REMARK    4  A    between atoms: C_8  and  O_52
REMARK    5  A    between atoms: C_12  and  O_51
REMARK    6  A    between atoms: C_14  and  O_18
REMARK    7  A    between atoms: O_18  and  C_19
REMARK    8  A    between atoms: C_21  and  O_50
REMARK    9  A    between atoms: C_23  and  O_49
REMARK   10  A    between atoms: C_25  and  O_48
REMARK   11  A    between atoms: C_27  and  C_30
REMARK   12  A    between atoms: C_30  and  O_31
REMARK   13  A    between atoms: O_31  and  C_32
REMARK   14  A    between atoms: C_34  and  O_47
REMARK   15  A    between atoms: C_36  and  O_46
REMARK   16  A    between atoms: C_38  and  O_45
REMARK   17  A    between atoms: C_40  and  C_43
REMARK   18  A    between atoms: C_43  and  O_44
REMARK   19  A    between atoms: O_52  and  C_53
REMARK   20  A    between atoms: C_55  and  O_68
REMARK   21  A    between atoms: C_57  and  O_67
REMARK   22  A    between atoms: C_59  and  O_66
REMARK   23  A    between atoms: C_61  and  C_64
REMARK   24  A    between atoms: C_64  and  O_65
REMARK                            x       y       z     vdW  Elec       q    Type
REMARK                         _______ _______ _______ _____ _____    ______ ____
ROOT
ATOM      1  C   UNL     1       4.470   2.467  25.587  0.00  0.00    +0.181 A 
ATOM      2  O   UNL     1       4.792   1.216  25.111  0.00  0.00    -0.451 OA
ATOM      3  C   UNL     1       4.770   0.156  25.973  0.00  0.00    +0.147 A 
ATOM      4  C   UNL     1       4.352   0.231  27.281  0.00  0.00    +0.109 A 
ATOM      5  C   UNL     1       4.305  -0.939  28.051  0.00  0.00    +0.135 A 
ATOM      6  C   UNL     1       4.788  -2.154  27.536  0.00  0.00    +0.092 A 
ATOM      7  C   UNL     1       5.254  -2.215  26.220  0.00  0.00    +0.131 A 
ATOM      8  C   UNL     1       3.959   1.547  27.785  0.00  0.00    +0.238 A 
ATOM      9  O   UNL     1       3.458   1.631  28.904  0.00  0.00    -0.283 OA
ATOM     10  C   UNL     1       5.189  -1.055  25.444  0.00  0.00    +0.093 A 
ATOM     11  C   UNL     1       4.149   2.730  26.878  0.00  0.00    +0.214 A 
ENDROOT
BRANCH   1  13
ATOM     12  C   UNL     1       3.033   3.604  23.936  0.00  0.00    +0.015 A 
ATOM     13  C   UNL     1       4.326   3.411  24.464  0.00  0.00    +0.025 A 
ATOM     14  C   UNL     1       5.408   4.046  23.845  0.00  0.00    +0.060 A 
ATOM     15  C   UNL     1       5.168   4.954  22.817  0.00  0.00    +0.159 A 
ATOM     16  C   UNL     1       3.873   5.229  22.389  0.00  0.00    +0.158 A 
ATOM     17  C   UNL     1       2.801   4.519  22.905  0.00  0.00    +0.050 A 
BRANCH  16  18
ATOM     18  O   UNL     1       3.698   6.217  21.462  0.00  0.00    -0.503 OA
ATOM     19  H   UNL     1       4.331   6.059  20.739  0.00  0.00    +0.292 HD
ENDBRANCH  16  18
BRANCH  15  20
ATOM     20  O   UNL     1       6.221   5.591  22.226  0.00  0.00    -0.503 OA
ATOM     21  H   UNL     1       6.789   5.883  22.968  0.00  0.00    +0.292 HD
ENDBRANCH  15  20
ENDBRANCH   1  13
BRANCH   5  22
ATOM     22  O   UNL     1       3.777  -0.960  29.316  0.00  0.00    -0.506 OA
ATOM     23  H   UNL     1       2.868  -0.581  29.273  0.00  0.00    +0.292 HD
ENDBRANCH   5  22
BRANCH  11  24
ATOM     24  O   UNL     1       3.800   3.927  27.435  0.00  0.00    -0.453 OA
BRANCH  24  25
ATOM     25  C   UNL     1       4.671   4.661  28.289  0.00  0.00    +0.340 C 
ATOM     26  O   UNL     1       5.932   3.974  28.203  0.00  0.00    -0.331 OA
ATOM     27  C   UNL     1       6.987   4.450  29.057  0.00  0.00    +0.179 C 
ATOM     28  C   UNL     1       7.201   5.972  28.963  0.00  0.00    +0.177 C 
ATOM     29  C   UNL     1       5.883   6.772  28.955  0.00  0.00    +0.180 C 
ATOM     30  C   UNL     1       4.888   6.159  27.952  0.00  0.00    +0.214 C 
BRANCH  30  31
ATOM     31  O   UNL     1       5.383   6.332  26.611  0.00  0.00    -0.383 OA
ATOM     32  H   UNL     1       5.668   7.267  26.536  0.00  0.00    +0.210 HD
ENDBRANCH  30  31
BRANCH  29  33
ATOM     33  O   UNL     1       5.324   6.903  30.257  0.00  0.00    -0.386 OA
ATOM     34  H   UNL     1       5.322   7.853  30.532  0.00  0.00    +0.210 HD
ENDBRANCH  29  33
BRANCH  28  35
ATOM     35  O   UNL     1       7.914   6.224  27.735  0.00  0.00    -0.386 OA
ATOM     36  H   UNL     1       8.819   6.512  27.960  0.00  0.00    +0.210 HD
ENDBRANCH  28  35
BRANCH  27  37
ATOM     37  C   UNL     1       6.829   3.900  30.477  0.00  0.00    +0.190 C 
BRANCH  37  38
ATOM     38  O   UNL     1       6.518   2.510  30.485  0.00  0.00    -0.392 OA
ATOM     39  H   UNL     1       7.224   2.070  29.971  0.00  0.00    +0.210 HD
ENDBRANCH  37  38
ENDBRANCH  27  37
ENDBRANCH  24  25
ENDBRANCH  11  24
BRANCH   7  40
ATOM     40  O   UNL     1       5.797  -3.400  25.770  0.00  0.00    -0.461 OA
BRANCH  40  41
ATOM     41  C   UNL     1       6.978  -3.818  26.481  0.00  0.00    +0.339 C 
ATOM     42  O   UNL     1       8.077  -2.912  26.284  0.00  0.00    -0.331 OA
ATOM     43  C   UNL     1       9.010  -3.191  25.235  0.00  0.00    +0.179 C 
ATOM     44  C   UNL     1       9.531  -4.640  25.298  0.00  0.00    +0.177 C 
ATOM     45  C   UNL     1       8.383  -5.630  25.214  0.00  0.00    +0.180 C 
ATOM     46  C   UNL     1       7.348  -5.323  26.289  0.00  0.00    +0.214 C 
BRANCH  46  47
ATOM     47  O   UNL     1       7.822  -5.841  27.552  0.00  0.00    -0.383 OA
ATOM     48  H   UNL     1       8.790  -5.963  27.455  0.00  0.00    +0.210 HD
ENDBRANCH  46  47
BRANCH  45  49
ATOM     49  O   UNL     1       7.764  -5.636  23.930  0.00  0.00    -0.386 OA
ATOM     50  H   UNL     1       7.496  -4.733  23.691  0.00  0.00    +0.210 HD
ENDBRANCH  45  49
BRANCH  44  51
ATOM     51  O   UNL     1      10.235  -4.834  26.536  0.00  0.00    -0.386 OA
ATOM     52  H   UNL     1       9.660  -4.538  27.267  0.00  0.00    +0.210 HD
ENDBRANCH  44  51
BRANCH  43  53
ATOM     53  C   UNL     1       8.471  -2.781  23.843  0.00  0.00    +0.197 C 
BRANCH  53  54
ATOM     54  O   UNL     1       8.080  -1.400  23.684  0.00  0.00    -0.346 OA
BRANCH  54  55
ATOM     55  C   UNL     1       8.931  -0.433  24.306  0.00  0.00    +0.282 C 
ATOM     56  O   UNL     1       8.306   0.855  24.288  0.00  0.00    -0.341 OA
ATOM     57  C   UNL     1       8.345   1.637  23.096  0.00  0.00    +0.178 C 
ATOM     58  C   UNL     1       9.645   1.536  22.263  0.00  0.00    +0.177 C 
ATOM     59  C   UNL     1      10.305   0.150  22.284  0.00  0.00    +0.179 C 
ATOM     60  C   UNL     1      10.356  -0.388  23.717  0.00  0.00    +0.201 C 
BRANCH  60  61
ATOM     61  O   UNL     1      11.222   0.410  24.536  0.00  0.00    -0.384 OA
ATOM     62  H   UNL     1      11.383   1.249  24.050  0.00  0.00    +0.210 HD
ENDBRANCH  60  61
BRANCH  59  63
ATOM     63  O   UNL     1       9.693  -0.784  21.397  0.00  0.00    -0.386 OA
ATOM     64  H   UNL     1      10.397  -1.326  20.982  0.00  0.00    +0.210 HD
ENDBRANCH  59  63
BRANCH  58  65
ATOM     65  O   UNL     1      10.582   2.469  22.853  0.00  0.00    -0.386 OA
ATOM     66  H   UNL     1      11.220   1.940  23.366  0.00  0.00    +0.210 HD
ENDBRANCH  58  65
BRANCH  57  67
ATOM     67  C   UNL     1       7.086   1.467  22.245  0.00  0.00    +0.190 C 
BRANCH  67  68
ATOM     68  O   UNL     1       6.175   0.560  22.849  0.00  0.00    -0.392 OA
ATOM     69  H   UNL     1       5.886   1.004  23.660  0.00  0.00    +0.210 HD
ENDBRANCH  67  68
ENDBRANCH  57  67
ENDBRANCH  54  55
ENDBRANCH  53  54
ENDBRANCH  43  53
ENDBRANCH  40  41
ENDBRANCH   7  40
TORSDOF 24
ENDMDL
MODEL 9
REMARK VINA RESULT:      -5.7      2.043      7.575
REMARK  Name = 
REMARK  24 active torsions:
REMARK  status: ('A' for Active; 'I' for Inactive)
REMARK    1  A    between atoms: C_3  and  O_70
REMARK    2  A    between atoms: C_4  and  O_69
REMARK    3  A    between atoms: C_6  and  C_7
REMARK    4  A    between atoms: C_8  and  O_52
REMARK    5  A    between atoms: C_12  and  O_51
REMARK    6  A    between atoms: C_14  and  O_18
REMARK    7  A    between atoms: O_18  and  C_19
REMARK    8  A    between atoms: C_21  and  O_50
REMARK    9  A    between atoms: C_23  and  O_49
REMARK   10  A    between atoms: C_25  and  O_48
REMARK   11  A    between atoms: C_27  and  C_30
REMARK   12  A    between atoms: C_30  and  O_31
REMARK   13  A    between atoms: O_31  and  C_32
REMARK   14  A    between atoms: C_34  and  O_47
REMARK   15  A    between atoms: C_36  and  O_46
REMARK   16  A    between atoms: C_38  and  O_45
REMARK   17  A    between atoms: C_40  and  C_43
REMARK   18  A    between atoms: C_43  and  O_44
REMARK   19  A    between atoms: O_52  and  C_53
REMARK   20  A    between atoms: C_55  and  O_68
REMARK   21  A    between atoms: C_57  and  O_67
REMARK   22  A    between atoms: C_59  and  O_66
REMARK   23  A    between atoms: C_61  and  C_64
REMARK   24  A    between atoms: C_64  and  O_65
REMARK                            x       y       z     vdW  Elec       q    Type
REMARK                         _______ _______ _______ _____ _____    ______ ____
ROOT
ATOM      1  C   UNL     1       5.700   1.750  26.544  0.00  0.00    +0.181 A 
ATOM      2  O   UNL     1       6.462   0.603  26.497  0.00  0.00    -0.451 OA
ATOM      3  C   UNL     1       5.845  -0.606  26.657  0.00  0.00    +0.147 A 
ATOM      4  C   UNL     1       4.484  -0.771  26.770  0.00  0.00    +0.109 A 
ATOM      5  C   UNL     1       3.958  -2.067  26.859  0.00  0.00    +0.135 A 
ATOM      6  C   UNL     1       4.811  -3.179  26.950  0.00  0.00    +0.092 A 
ATOM      7  C   UNL     1       6.196  -3.002  26.880  0.00  0.00    +0.131 A 
ATOM      8  C   UNL     1       3.660   0.438  26.770  0.00  0.00    +0.238 A 
ATOM      9  O   UNL     1       2.436   0.325  26.737  0.00  0.00    -0.283 OA
ATOM     10  C   UNL     1       6.685  -1.708  26.685  0.00  0.00    +0.093 A 
ATOM     11  C   UNL     1       4.362   1.766  26.764  0.00  0.00    +0.214 A 
ENDROOT
BRANCH   1  13
ATOM     12  C   UNL     1       6.788   3.897  27.083  0.00  0.00    +0.015 A 
ATOM     13  C   UNL     1       6.508   2.907  26.119  0.00  0.00    +0.025 A 
ATOM     14  C   UNL     1       6.927   3.115  24.800  0.00  0.00    +0.060 A 
ATOM     15  C   UNL     1       7.723   4.218  24.502  0.00  0.00    +0.159 A 
ATOM     16  C   UNL     1       8.096   5.121  25.493  0.00  0.00    +0.158 A 
ATOM     17  C   UNL     1       7.589   5.000  26.777  0.00  0.00    +0.050 A 
BRANCH  16  18
ATOM     18  O   UNL     1       8.976   6.113  25.161  0.00  0.00    -0.503 OA
ATOM     19  H   UNL     1       9.757   6.018  25.736  0.00  0.00    +0.292 HD
ENDBRANCH  16  18
BRANCH  15  20
ATOM     20  O   UNL     1       8.150   4.409  23.221  0.00  0.00    -0.503 OA
ATOM     21  H   UNL     1       8.272   5.376  23.136  0.00  0.00    +0.292 HD
ENDBRANCH  15  20
ENDBRANCH   1  13
BRANCH   5  22
ATOM     22  O   UNL     1       2.610  -2.311  26.842  0.00  0.00    -0.506 OA
ATOM     23  H   UNL     1       2.188  -1.739  27.525  0.00  0.00    +0.292 HD
ENDBRANCH   5  22
BRANCH  11  24
ATOM     24  O   UNL     1       3.527   2.845  26.810  0.00  0.00    -0.453 OA
BRANCH  24  25
ATOM     25  C   UNL     1       3.043   3.493  25.638  0.00  0.00    +0.340 C 
ATOM     26  O   UNL     1       3.559   2.711  24.547  0.00  0.00    -0.331 OA
ATOM     27  C   UNL     1       3.304   3.202  23.220  0.00  0.00    +0.179 C 
ATOM     28  C   UNL     1       1.821   3.545  22.978  0.00  0.00    +0.177 C 
ATOM     29  C   UNL     1       1.174   4.307  24.151  0.00  0.00    +0.180 C 
ATOM     30  C   UNL     1       1.505   3.617  25.488  0.00  0.00    +0.214 C 
BRANCH  30  31
ATOM     31  O   UNL     1       0.865   2.329  25.541  0.00  0.00    -0.383 OA
ATOM     32  H   UNL     1       1.203   1.880  26.345  0.00  0.00    +0.210 HD
ENDBRANCH  30  31
BRANCH  29  33
ATOM     33  O   UNL     1       1.521   5.687  24.156  0.00  0.00    -0.386 OA
ATOM     34  H   UNL     1       1.547   6.027  25.083  0.00  0.00    +0.210 HD
ENDBRANCH  29  33
BRANCH  28  35
ATOM     35  O   UNL     1       1.125   2.297  22.782  0.00  0.00    -0.386 OA
ATOM     36  H   UNL     1       1.552   1.618  23.336  0.00  0.00    +0.210 HD
ENDBRANCH  28  35
BRANCH  27  37
ATOM     37  C   UNL     1       4.297   4.305  22.847  0.00  0.00    +0.190 C 
BRANCH  37  38
ATOM     38  O   UNL     1       5.286   3.850  21.928  0.00  0.00    -0.392 OA
ATOM     39  H   UNL     1       5.729   4.651  21.585  0.00  0.00    +0.210 HD
ENDBRANCH  37  38
ENDBRANCH  27  37
ENDBRANCH  24  25
ENDBRANCH  11  24
BRANCH   7  40
ATOM     40  O   UNL     1       7.009  -4.102  27.055  0.00  0.00    -0.461 OA
BRANCH  40  41
ATOM     41  C   UNL     1       6.927  -5.073  25.993  0.00  0.00    +0.339 C 
ATOM     42  O   UNL     1       8.223  -5.416  25.474  0.00  0.00    -0.331 OA
ATOM     43  C   UNL     1       8.713  -4.700  24.336  0.00  0.00    +0.179 C 
ATOM     44  C   UNL     1       7.682  -4.664  23.190  0.00  0.00    +0.177 C 
ATOM     45  C   UNL     1       6.384  -4.029  23.653  0.00  0.00    +0.180 C 
ATOM     46  C   UNL     1       5.867  -4.742  24.896  0.00  0.00    +0.214 C 
BRANCH  46  47
ATOM     47  O   UNL     1       5.226  -5.974  24.494  0.00  0.00    -0.383 OA
ATOM     48  H   UNL     1       5.687  -6.271  23.681  0.00  0.00    +0.210 HD
ENDBRANCH  46  47
BRANCH  45  49
ATOM     49  O   UNL     1       6.524  -2.635  23.913  0.00  0.00    -0.386 OA
ATOM     50  H   UNL     1       5.650  -2.209  23.899  0.00  0.00    +0.210 HD
ENDBRANCH  45  49
BRANCH  44  51
ATOM     51  O   UNL     1       7.424  -6.008  22.749  0.00  0.00    -0.386 OA
ATOM     52  H   UNL     1       8.126  -6.588  23.100  0.00  0.00    +0.210 HD
ENDBRANCH  44  51
BRANCH  43  53
ATOM     53  C   UNL     1       9.275  -3.307  24.714  0.00  0.00    +0.197 C 
BRANCH  53  54
ATOM     54  O   UNL     1       8.748  -2.180  23.983  0.00  0.00    -0.346 OA
BRANCH  54  55
ATOM     55  C   UNL     1       9.504  -1.764  22.842  0.00  0.00    +0.282 C 
ATOM     56  O   UNL     1      10.679  -1.062  23.260  0.00  0.00    -0.341 OA
ATOM     57  C   UNL     1      10.578   0.306  23.649  0.00  0.00    +0.178 C 
ATOM     58  C   UNL     1       9.561   1.161  22.857  0.00  0.00    +0.177 C 
ATOM     59  C   UNL     1       8.302   0.401  22.418  0.00  0.00    +0.179 C 
ATOM     60  C   UNL     1       8.686  -0.953  21.816  0.00  0.00    +0.201 C 
BRANCH  60  61
ATOM     61  O   UNL     1       9.421  -0.785  20.595  0.00  0.00    -0.384 OA
ATOM     62  H   UNL     1      10.374  -0.771  20.835  0.00  0.00    +0.210 HD
ENDBRANCH  60  61
BRANCH  59  63
ATOM     63  O   UNL     1       7.335   0.256  23.455  0.00  0.00    -0.386 OA
ATOM     64  H   UNL     1       7.191   1.132  23.872  0.00  0.00    +0.210 HD
ENDBRANCH  59  63
BRANCH  58  65
ATOM     65  O   UNL     1      10.242   1.599  21.657  0.00  0.00    -0.386 OA
ATOM     66  H   UNL     1      11.174   1.748  21.901  0.00  0.00    +0.210 HD
ENDBRANCH  58  65
BRANCH  57  67
ATOM     67  C   UNL     1      10.436   0.473  25.163  0.00  0.00    +0.190 C 
BRANCH  67  68
ATOM     68  O   UNL     1       9.074   0.429  25.561  0.00  0.00    -0.392 OA
ATOM     69  H   UNL     1       9.074  -0.076  26.387  0.00  0.00    +0.210 HD
ENDBRANCH  67  68
ENDBRANCH  57  67
ENDBRANCH  54  55
ENDBRANCH  53  54
ENDBRANCH  43  53
ENDBRANCH  40  41
ENDBRANCH   7  40
TORSDOF 24
ENDMDL
