MODEL 1
REMARK VINA RESULT:      -6.0      0.000      0.000
REMARK  Name = 
REMARK  29 active torsions:
REMARK  status: ('A' for Active; 'I' for Inactive)
REMARK    1  A    between atoms: C_1  and  C_2
REMARK    2  A    between atoms: C_3  and  O_76
REMARK    3  A    between atoms: C_5  and  O_75
REMARK    4  A    between atoms: C_7  and  O_74
REMARK    5  A    between atoms: C_8  and  O_11
REMARK    6  A    between atoms: O_11  and  C_12
REMARK    7  A    between atoms: C_12  and  C_13
REMARK    8  A    between atoms: C_14  and  O_73
REMARK    9  A    between atoms: C_16  and  O_72
REMARK   10  A    between atoms: C_17  and  O_71
REMARK   11  A    between atoms: C_18  and  O_21
REMARK   12  A    between atoms: O_21  and  C_22
REMARK   13  A    between atoms: C_23  and  C_49
REMARK   14  A    between atoms: C_27  and  O_34
REMARK   15  A    between atoms: C_29  and  O_33
REMARK   16  A    between atoms: O_34  and  C_35
REMARK   17  A    between atoms: C_37  and  O_48
REMARK   18  A    between atoms: C_38  and  O_47
REMARK   19  A    between atoms: C_40  and  O_46
REMARK   20  A    between atoms: C_42  and  C_44
REMARK   21  A    between atoms: C_44  and  O_45
REMARK   22  A    between atoms: C_51  and  O_56
REMARK   23  A    between atoms: C_52  and  O_55
REMARK   24  A    between atoms: O_56  and  C_57
REMARK   25  A    between atoms: C_59  and  O_70
REMARK   26  A    between atoms: C_60  and  O_69
REMARK   27  A    between atoms: C_62  and  O_68
REMARK   28  A    between atoms: C_64  and  C_66
REMARK   29  A    between atoms: C_66  and  O_67
REMARK                            x       y       z     vdW  Elec       q    Type
REMARK                         _______ _______ _______ _____ _____    ______ ____
ROOT
ATOM      1  C   UNL     1       6.660   0.351  26.687  0.00  0.00    +0.214 A 
ATOM      2  C   UNL     1       7.319  -0.944  27.103  0.00  0.00    +0.238 A 
ATOM      3  O   UNL     1       8.507  -1.008  27.414  0.00  0.00    -0.283 OA
ATOM      4  C   UNL     1       6.461  -2.162  27.196  0.00  0.00    +0.109 A 
ATOM      5  C   UNL     1       5.149  -1.919  27.538  0.00  0.00    +0.147 A 
ATOM      6  C   UNL     1       4.183  -2.940  27.683  0.00  0.00    +0.093 A 
ATOM      7  C   UNL     1       4.544  -4.274  27.523  0.00  0.00    +0.131 A 
ATOM      8  C   UNL     1       5.889  -4.542  27.219  0.00  0.00    +0.092 A 
ATOM      9  O   UNL     1       4.767  -0.634  27.777  0.00  0.00    -0.451 OA
ATOM     10  C   UNL     1       6.818  -3.493  27.032  0.00  0.00    +0.135 A 
ATOM     11  C   UNL     1       5.324   0.373  26.969  0.00  0.00    +0.181 A 
ENDROOT
BRANCH  11  12
ATOM     12  C   UNL     1       4.204   1.319  26.631  0.00  0.00    +0.025 A 
ATOM     13  C   UNL     1       3.069   1.263  27.485  0.00  0.00    +0.015 A 
ATOM     14  C   UNL     1       1.906   1.981  27.269  0.00  0.00    +0.050 A 
ATOM     15  C   UNL     1       1.899   2.930  26.271  0.00  0.00    +0.159 A 
ATOM     16  C   UNL     1       3.022   3.097  25.437  0.00  0.00    +0.166 A 
ATOM     17  C   UNL     1       4.139   2.231  25.574  0.00  0.00    +0.061 A 
BRANCH  15  18
ATOM     18  O   UNL     1       0.793   3.729  26.150  0.00  0.00    -0.503 OA
ATOM     19  H   UNL     1       0.910   4.521  26.704  0.00  0.00    +0.292 HD
ENDBRANCH  15  18
BRANCH  16  20
ATOM     20  O   UNL     1       2.963   4.188  24.596  0.00  0.00    -0.457 OA
BRANCH  20  21
ATOM     21  C   UNL     1       3.900   4.231  23.514  0.00  0.00    +0.339 C 
ATOM     22  O   UNL     1       5.091   4.964  23.841  0.00  0.00    -0.331 OA
ATOM     23  C   UNL     1       4.913   6.384  24.002  0.00  0.00    +0.179 C 
ATOM     24  C   UNL     1       4.312   7.025  22.733  0.00  0.00    +0.177 C 
ATOM     25  C   UNL     1       3.003   6.325  22.361  0.00  0.00    +0.180 C 
ATOM     26  C   UNL     1       3.234   4.811  22.246  0.00  0.00    +0.214 C 
BRANCH  26  27
ATOM     27  O   UNL     1       2.024   4.138  21.882  0.00  0.00    -0.383 OA
ATOM     28  H   UNL     1       1.464   4.783  21.409  0.00  0.00    +0.210 HD
ENDBRANCH  26  27
BRANCH  25  29
ATOM     29  O   UNL     1       1.954   6.651  23.279  0.00  0.00    -0.386 OA
ATOM     30  H   UNL     1       1.103   6.311  22.936  0.00  0.00    +0.210 HD
ENDBRANCH  25  29
BRANCH  24  31
ATOM     31  O   UNL     1       5.240   6.910  21.647  0.00  0.00    -0.386 OA
ATOM     32  H   UNL     1       4.821   6.399  20.932  0.00  0.00    +0.210 HD
ENDBRANCH  24  31
BRANCH  23  33
ATOM     33  C   UNL     1       6.286   7.004  24.321  0.00  0.00    +0.190 C 
BRANCH  33  34
ATOM     34  O   UNL     1       7.368   6.256  23.762  0.00  0.00    -0.392 OA
ATOM     35  H   UNL     1       7.506   5.462  24.305  0.00  0.00    +0.210 HD
ENDBRANCH  33  34
ENDBRANCH  23  33
ENDBRANCH  20  21
ENDBRANCH  16  20
ENDBRANCH  11  12
BRANCH  10  36
ATOM     36  O   UNL     1       8.042  -3.814  26.533  0.00  0.00    -0.506 OA
ATOM     37  H   UNL     1       8.142  -4.792  26.500  0.00  0.00    +0.292 HD
ENDBRANCH  10  36
BRANCH   7  38
ATOM     38  O   UNL     1       3.696  -5.361  27.610  0.00  0.00    -0.461 OA
BRANCH  38  39
ATOM     39  C   UNL     1       2.418  -5.254  26.935  0.00  0.00    +0.339 C 
ATOM     40  O   UNL     1       1.459  -6.139  27.520  0.00  0.00    -0.331 OA
ATOM     41  C   UNL     1       1.789  -7.525  27.315  0.00  0.00    +0.179 C 
ATOM     42  C   UNL     1       1.774  -7.896  25.817  0.00  0.00    +0.177 C 
ATOM     43  C   UNL     1       2.719  -6.972  25.028  0.00  0.00    +0.180 C 
ATOM     44  C   UNL     1       2.480  -5.499  25.402  0.00  0.00    +0.214 C 
BRANCH  44  45
ATOM     45  O   UNL     1       3.425  -4.640  24.755  0.00  0.00    -0.383 OA
ATOM     46  H   UNL     1       2.904  -3.922  24.349  0.00  0.00    +0.210 HD
ENDBRANCH  44  45
BRANCH  43  47
ATOM     47  O   UNL     1       4.105  -7.297  25.206  0.00  0.00    -0.386 OA
ATOM     48  H   UNL     1       4.213  -8.252  25.353  0.00  0.00    +0.210 HD
ENDBRANCH  43  47
BRANCH  42  49
ATOM     49  O   UNL     1       0.444  -7.787  25.303  0.00  0.00    -0.386 OA
ATOM     50  H   UNL     1      -0.027  -8.623  25.474  0.00  0.00    +0.210 HD
ENDBRANCH  42  49
BRANCH  41  51
ATOM     51  C   UNL     1       0.791  -8.367  28.122  0.00  0.00    +0.190 C 
BRANCH  51  52
ATOM     52  O   UNL     1       0.819  -9.743  27.727  0.00  0.00    -0.392 OA
ATOM     53  H   UNL     1       1.740 -10.050  27.745  0.00  0.00    +0.210 HD
ENDBRANCH  51  52
ENDBRANCH  41  51
ENDBRANCH  38  39
ENDBRANCH   7  38
BRANCH   1  54
ATOM     54  O   UNL     1       7.373   1.385  26.072  0.00  0.00    -0.453 OA
BRANCH  54  57
ATOM     55  C   UNL     1       9.866   0.831  23.303  0.00  0.00    +0.179 C 
ATOM     56  O   UNL     1       9.157   0.720  24.571  0.00  0.00    -0.331 OA
ATOM     57  C   UNL     1       7.837   1.301  24.677  0.00  0.00    +0.340 C 
ATOM     58  C   UNL     1       7.849   2.762  24.140  0.00  0.00    +0.214 C 
ATOM     59  C   UNL     1       8.380   2.779  22.703  0.00  0.00    +0.180 C 
ATOM     60  C   UNL     1       9.828   2.269  22.710  0.00  0.00    +0.177 C 
BRANCH  60  61
ATOM     61  O   UNL     1      10.374   2.338  21.387  0.00  0.00    -0.386 OA
ATOM     62  H   UNL     1      11.074   3.014  21.379  0.00  0.00    +0.210 HD
ENDBRANCH  60  61
BRANCH  59  63
ATOM     63  O   UNL     1       8.299   4.109  22.169  0.00  0.00    -0.386 OA
ATOM     64  H   UNL     1       8.173   4.709  22.926  0.00  0.00    +0.210 HD
ENDBRANCH  59  63
BRANCH  58  65
ATOM     65  O   UNL     1       8.683   3.649  24.923  0.00  0.00    -0.383 OA
ATOM     66  H   UNL     1       9.612   3.504  24.656  0.00  0.00    +0.210 HD
ENDBRANCH  58  65
BRANCH  55  67
ATOM     67  C   UNL     1       9.503  -0.231  22.220  0.00  0.00    +0.197 C 
BRANCH  67  68
ATOM     68  O   UNL     1       9.659  -1.586  22.619  0.00  0.00    -0.346 OA
BRANCH  68  72
ATOM     69  C   UNL     1       7.848  -5.382  23.310  0.00  0.00    +0.041 C 
ATOM     70  C   UNL     1       7.334  -4.338  22.331  0.00  0.00    +0.149 C 
ATOM     71  O   UNL     1       8.319  -3.337  22.074  0.00  0.00    -0.343 OA
ATOM     72  C   UNL     1       8.556  -2.348  23.106  0.00  0.00    +0.282 C 
ATOM     73  C   UNL     1       7.219  -1.604  23.389  0.00  0.00    +0.201 C 
ATOM     74  C   UNL     1       6.162  -2.657  23.809  0.00  0.00    +0.179 C 
ATOM     75  C   UNL     1       5.993  -3.744  22.755  0.00  0.00    +0.174 C 
BRANCH  75  76
ATOM     76  O   UNL     1       5.305  -3.153  21.634  0.00  0.00    -0.387 OA
ATOM     77  H   UNL     1       5.832  -2.366  21.374  0.00  0.00    +0.210 HD
ENDBRANCH  75  76
BRANCH  74  78
ATOM     78  O   UNL     1       4.861  -2.060  24.013  0.00  0.00    -0.386 OA
ATOM     79  H   UNL     1       4.237  -2.816  24.099  0.00  0.00    +0.210 HD
ENDBRANCH  74  78
BRANCH  73  80
ATOM     80  O   UNL     1       6.761  -0.897  22.218  0.00  0.00    -0.384 OA
ATOM     81  H   UNL     1       6.395  -1.574  21.621  0.00  0.00    +0.210 HD
ENDBRANCH  73  80
ENDBRANCH  68  72
ENDBRANCH  67  68
ENDBRANCH  55  67
ENDBRANCH  54  57
ENDBRANCH   1  54
TORSDOF 28
ENDMDL
MODEL 2
REMARK VINA RESULT:      -5.7      2.024      8.171
REMARK  Name = 
REMARK  29 active torsions:
REMARK  status: ('A' for Active; 'I' for Inactive)
REMARK    1  A    between atoms: C_1  and  C_2
REMARK    2  A    between atoms: C_3  and  O_76
REMARK    3  A    between atoms: C_5  and  O_75
REMARK    4  A    between atoms: C_7  and  O_74
REMARK    5  A    between atoms: C_8  and  O_11
REMARK    6  A    between atoms: O_11  and  C_12
REMARK    7  A    between atoms: C_12  and  C_13
REMARK    8  A    between atoms: C_14  and  O_73
REMARK    9  A    between atoms: C_16  and  O_72
REMARK   10  A    between atoms: C_17  and  O_71
REMARK   11  A    between atoms: C_18  and  O_21
REMARK   12  A    between atoms: O_21  and  C_22
REMARK   13  A    between atoms: C_23  and  C_49
REMARK   14  A    between atoms: C_27  and  O_34
REMARK   15  A    between atoms: C_29  and  O_33
REMARK   16  A    between atoms: O_34  and  C_35
REMARK   17  A    between atoms: C_37  and  O_48
REMARK   18  A    between atoms: C_38  and  O_47
REMARK   19  A    between atoms: C_40  and  O_46
REMARK   20  A    between atoms: C_42  and  C_44
REMARK   21  A    between atoms: C_44  and  O_45
REMARK   22  A    between atoms: C_51  and  O_56
REMARK   23  A    between atoms: C_52  and  O_55
REMARK   24  A    between atoms: O_56  and  C_57
REMARK   25  A    between atoms: C_59  and  O_70
REMARK   26  A    between atoms: C_60  and  O_69
REMARK   27  A    between atoms: C_62  and  O_68
REMARK   28  A    between atoms: C_64  and  C_66
REMARK   29  A    between atoms: C_66  and  O_67
REMARK                            x       y       z     vdW  Elec       q    Type
REMARK                         _______ _______ _______ _____ _____    ______ ____
ROOT
ATOM      1  C   UNL     1       6.827  -2.125  26.215  0.00  0.00    +0.214 A 
ATOM      2  C   UNL     1       7.939  -2.071  25.192  0.00  0.00    +0.238 A 
ATOM      3  O   UNL     1       8.447  -3.085  24.716  0.00  0.00    -0.283 OA
ATOM      4  C   UNL     1       8.373  -0.727  24.709  0.00  0.00    +0.109 A 
ATOM      5  C   UNL     1       7.383   0.230  24.698  0.00  0.00    +0.147 A 
ATOM      6  C   UNL     1       7.593   1.560  24.268  0.00  0.00    +0.093 A 
ATOM      7  C   UNL     1       8.838   1.951  23.785  0.00  0.00    +0.131 A 
ATOM      8  C   UNL     1       9.847   0.974  23.747  0.00  0.00    +0.092 A 
ATOM      9  O   UNL     1       6.129  -0.126  25.091  0.00  0.00    -0.451 OA
ATOM     10  C   UNL     1       9.616  -0.333  24.232  0.00  0.00    +0.135 A 
ATOM     11  C   UNL     1       6.015  -1.029  26.164  0.00  0.00    +0.181 A 
ENDROOT
BRANCH  11  12
ATOM     12  C   UNL     1       4.897  -0.521  27.034  0.00  0.00    +0.025 A 
ATOM     13  C   UNL     1       4.568  -1.332  28.154  0.00  0.00    +0.015 A 
ATOM     14  C   UNL     1       3.504  -1.080  29.002  0.00  0.00    +0.050 A 
ATOM     15  C   UNL     1       2.824   0.110  28.862  0.00  0.00    +0.159 A 
ATOM     16  C   UNL     1       3.152   1.002  27.822  0.00  0.00    +0.166 A 
ATOM     17  C   UNL     1       4.136   0.639  26.864  0.00  0.00    +0.061 A 
BRANCH  15  18
ATOM     18  O   UNL     1       1.861   0.414  29.788  0.00  0.00    -0.503 OA
ATOM     19  H   UNL     1       1.071   0.747  29.326  0.00  0.00    +0.292 HD
ENDBRANCH  15  18
BRANCH  16  20
ATOM     20  O   UNL     1       2.526   2.228  27.889  0.00  0.00    -0.457 OA
BRANCH  20  21
ATOM     21  C   UNL     1       1.416   2.445  27.012  0.00  0.00    +0.339 C 
ATOM     22  O   UNL     1       1.766   2.290  25.628  0.00  0.00    -0.331 OA
ATOM     23  C   UNL     1       2.635   3.309  25.098  0.00  0.00    +0.179 C 
ATOM     24  C   UNL     1       2.024   4.716  25.263  0.00  0.00    +0.177 C 
ATOM     25  C   UNL     1       1.680   4.968  26.733  0.00  0.00    +0.180 C 
ATOM     26  C   UNL     1       0.790   3.835  27.264  0.00  0.00    +0.214 C 
BRANCH  26  27
ATOM     27  O   UNL     1       0.444   4.061  28.635  0.00  0.00    -0.383 OA
ATOM     28  H   UNL     1       0.046   4.950  28.691  0.00  0.00    +0.210 HD
ENDBRANCH  26  27
BRANCH  25  29
ATOM     29  O   UNL     1       2.859   5.156  27.524  0.00  0.00    -0.386 OA
ATOM     30  H   UNL     1       3.650   5.097  26.952  0.00  0.00    +0.210 HD
ENDBRANCH  25  29
BRANCH  24  31
ATOM     31  O   UNL     1       0.835   4.824  24.470  0.00  0.00    -0.386 OA
ATOM     32  H   UNL     1       1.009   4.435  23.594  0.00  0.00    +0.210 HD
ENDBRANCH  24  31
BRANCH  23  33
ATOM     33  C   UNL     1       2.881   3.000  23.608  0.00  0.00    +0.190 C 
BRANCH  33  34
ATOM     34  O   UNL     1       4.225   2.588  23.350  0.00  0.00    -0.392 OA
ATOM     35  H   UNL     1       4.212   1.918  22.646  0.00  0.00    +0.210 HD
ENDBRANCH  33  34
ENDBRANCH  23  33
ENDBRANCH  20  21
ENDBRANCH  16  20
ENDBRANCH  11  12
BRANCH  10  36
ATOM     36  O   UNL     1      10.689  -1.159  24.363  0.00  0.00    -0.506 OA
ATOM     37  H   UNL     1      10.845  -1.351  25.315  0.00  0.00    +0.292 HD
ENDBRANCH  10  36
BRANCH   7  38
ATOM     38  O   UNL     1       9.183   3.220  23.362  0.00  0.00    -0.461 OA
BRANCH  38  39
ATOM     39  C   UNL     1       9.548   4.179  24.386  0.00  0.00    +0.339 C 
ATOM     40  O   UNL     1       8.532   4.261  25.390  0.00  0.00    -0.331 OA
ATOM     41  C   UNL     1       7.303   4.816  24.888  0.00  0.00    +0.179 C 
ATOM     42  C   UNL     1       7.488   6.277  24.423  0.00  0.00    +0.177 C 
ATOM     43  C   UNL     1       8.613   6.366  23.375  0.00  0.00    +0.180 C 
ATOM     44  C   UNL     1       9.861   5.602  23.849  0.00  0.00    +0.214 C 
BRANCH  44  45
ATOM     45  O   UNL     1      10.875   5.588  22.837  0.00  0.00    -0.383 OA
ATOM     46  H   UNL     1      11.326   6.451  22.895  0.00  0.00    +0.210 HD
ENDBRANCH  44  45
BRANCH  43  47
ATOM     47  O   UNL     1       8.218   5.889  22.081  0.00  0.00    -0.386 OA
ATOM     48  H   UNL     1       7.537   6.468  21.700  0.00  0.00    +0.210 HD
ENDBRANCH  43  47
BRANCH  42  49
ATOM     49  O   UNL     1       7.801   7.108  25.544  0.00  0.00    -0.386 OA
ATOM     50  H   UNL     1       6.980   7.531  25.857  0.00  0.00    +0.210 HD
ENDBRANCH  42  49
BRANCH  41  51
ATOM     51  C   UNL     1       6.250   4.701  25.999  0.00  0.00    +0.190 C 
BRANCH  51  52
ATOM     52  O   UNL     1       5.275   5.745  25.913  0.00  0.00    -0.392 OA
ATOM     53  H   UNL     1       4.564   5.456  25.319  0.00  0.00    +0.210 HD
ENDBRANCH  51  52
ENDBRANCH  41  51
ENDBRANCH  38  39
ENDBRANCH   7  38
BRANCH   1  54
ATOM     54  O   UNL     1       6.686  -3.195  27.105  0.00  0.00    -0.453 OA
BRANCH  54  57
ATOM     55  C   UNL     1       3.547  -5.239  26.714  0.00  0.00    +0.179 C 
ATOM     56  O   UNL     1       4.474  -4.115  26.738  0.00  0.00    -0.331 OA
ATOM     57  C   UNL     1       5.894  -4.391  26.779  0.00  0.00    +0.340 C 
ATOM     58  C   UNL     1       6.205  -5.430  27.896  0.00  0.00    +0.214 C 
ATOM     59  C   UNL     1       5.372  -6.695  27.671  0.00  0.00    +0.180 C 
ATOM     60  C   UNL     1       3.884  -6.327  27.774  0.00  0.00    +0.177 C 
BRANCH  60  61
ATOM     61  O   UNL     1       3.081  -7.505  27.635  0.00  0.00    -0.386 OA
ATOM     62  H   UNL     1       2.722  -7.526  26.730  0.00  0.00    +0.210 HD
ENDBRANCH  60  61
BRANCH  59  63
ATOM     63  O   UNL     1       5.728  -7.694  28.639  0.00  0.00    -0.386 OA
ATOM     64  H   UNL     1       5.210  -7.504  29.442  0.00  0.00    +0.210 HD
ENDBRANCH  59  63
BRANCH  58  65
ATOM     65  O   UNL     1       5.907  -4.943  29.226  0.00  0.00    -0.383 OA
ATOM     66  H   UNL     1       6.712  -5.041  29.771  0.00  0.00    +0.210 HD
ENDBRANCH  58  65
BRANCH  55  67
ATOM     67  C   UNL     1       3.286  -5.882  25.316  0.00  0.00    +0.197 C 
BRANCH  67  68
ATOM     68  O   UNL     1       3.458  -5.013  24.204  0.00  0.00    -0.346 OA
BRANCH  68  72
ATOM     69  C   UNL     1       6.077  -2.280  22.246  0.00  0.00    +0.041 C 
ATOM     70  C   UNL     1       5.621  -3.612  21.670  0.00  0.00    +0.149 C 
ATOM     71  O   UNL     1       4.503  -4.133  22.390  0.00  0.00    -0.343 OA
ATOM     72  C   UNL     1       4.755  -4.709  23.696  0.00  0.00    +0.282 C 
ATOM     73  C   UNL     1       5.770  -5.876  23.529  0.00  0.00    +0.201 C 
ATOM     74  C   UNL     1       7.055  -5.307  22.874  0.00  0.00    +0.179 C 
ATOM     75  C   UNL     1       6.760  -4.620  21.547  0.00  0.00    +0.174 C 
BRANCH  75  76
ATOM     76  O   UNL     1       6.444  -5.651  20.590  0.00  0.00    -0.387 OA
ATOM     77  H   UNL     1       6.762  -5.323  19.720  0.00  0.00    +0.210 HD
ENDBRANCH  75  76
BRANCH  74  78
ATOM     78  O   UNL     1       8.027  -6.344  22.606  0.00  0.00    -0.386 OA
ATOM     79  H   UNL     1       8.584  -6.396  23.415  0.00  0.00    +0.210 HD
ENDBRANCH  74  78
BRANCH  73  80
ATOM     80  O   UNL     1       5.226  -6.923  22.700  0.00  0.00    -0.384 OA
ATOM     81  H   UNL     1       5.977  -7.496  22.462  0.00  0.00    +0.210 HD
ENDBRANCH  73  80
ENDBRANCH  68  72
ENDBRANCH  67  68
ENDBRANCH  55  67
ENDBRANCH  54  57
ENDBRANCH   1  54
TORSDOF 28
ENDMDL
MODEL 3
REMARK VINA RESULT:      -5.5      2.500      8.804
REMARK  Name = 
REMARK  29 active torsions:
REMARK  status: ('A' for Active; 'I' for Inactive)
REMARK    1  A    between atoms: C_1  and  C_2
REMARK    2  A    between atoms: C_3  and  O_76
REMARK    3  A    between atoms: C_5  and  O_75
REMARK    4  A    between atoms: C_7  and  O_74
REMARK    5  A    between atoms: C_8  and  O_11
REMARK    6  A    between atoms: O_11  and  C_12
REMARK    7  A    between atoms: C_12  and  C_13
REMARK    8  A    between atoms: C_14  and  O_73
REMARK    9  A    between atoms: C_16  and  O_72
REMARK   10  A    between atoms: C_17  and  O_71
REMARK   11  A    between atoms: C_18  and  O_21
REMARK   12  A    between atoms: O_21  and  C_22
REMARK   13  A    between atoms: C_23  and  C_49
REMARK   14  A    between atoms: C_27  and  O_34
REMARK   15  A    between atoms: C_29  and  O_33
REMARK   16  A    between atoms: O_34  and  C_35
REMARK   17  A    between atoms: C_37  and  O_48
REMARK   18  A    between atoms: C_38  and  O_47
REMARK   19  A    between atoms: C_40  and  O_46
REMARK   20  A    between atoms: C_42  and  C_44
REMARK   21  A    between atoms: C_44  and  O_45
REMARK   22  A    between atoms: C_51  and  O_56
REMARK   23  A    between atoms: C_52  and  O_55
REMARK   24  A    between atoms: O_56  and  C_57
REMARK   25  A    between atoms: C_59  and  O_70
REMARK   26  A    between atoms: C_60  and  O_69
REMARK   27  A    between atoms: C_62  and  O_68
REMARK   28  A    between atoms: C_64  and  C_66
REMARK   29  A    between atoms: C_66  and  O_67
REMARK                            x       y       z     vdW  Elec       q    Type
REMARK                         _______ _______ _______ _____ _____    ______ ____
ROOT
ATOM      1  C   UNL     1       2.828  -1.285  27.420  0.00  0.00    +0.214 A 
ATOM      2  C   UNL     1       1.964  -0.377  28.265  0.00  0.00    +0.238 A 
ATOM      3  O   UNL     1       0.841  -0.703  28.646  0.00  0.00    -0.283 OA
ATOM      4  C   UNL     1       2.542   0.931  28.692  0.00  0.00    +0.109 A 
ATOM      5  C   UNL     1       3.909   0.929  28.864  0.00  0.00    +0.147 A 
ATOM      6  C   UNL     1       4.642   2.067  29.273  0.00  0.00    +0.093 A 
ATOM      7  C   UNL     1       3.983   3.256  29.567  0.00  0.00    +0.131 A 
ATOM      8  C   UNL     1       2.583   3.261  29.442  0.00  0.00    +0.092 A 
ATOM      9  O   UNL     1       4.589  -0.233  28.659  0.00  0.00    -0.451 OA
ATOM     10  C   UNL     1       1.887   2.120  28.982  0.00  0.00    +0.135 A 
ATOM     11  C   UNL     1       4.162  -1.060  27.605  0.00  0.00    +0.181 A 
ENDROOT
BRANCH  11  12
ATOM     12  C   UNL     1       5.406  -1.557  26.919  0.00  0.00    +0.025 A 
ATOM     13  C   UNL     1       5.963  -2.756  27.442  0.00  0.00    +0.015 A 
ATOM     14  C   UNL     1       7.157  -3.304  27.010  0.00  0.00    +0.050 A 
ATOM     15  C   UNL     1       7.763  -2.757  25.899  0.00  0.00    +0.159 A 
ATOM     16  C   UNL     1       7.220  -1.615  25.279  0.00  0.00    +0.166 A 
ATOM     17  C   UNL     1       6.086  -0.975  25.847  0.00  0.00    +0.061 A 
BRANCH  15  18
ATOM     18  O   UNL     1       8.872  -3.385  25.396  0.00  0.00    -0.503 OA
ATOM     19  H   UNL     1       8.658  -4.321  25.228  0.00  0.00    +0.292 HD
ENDBRANCH  15  18
BRANCH  16  20
ATOM     20  O   UNL     1       7.810  -1.268  24.083  0.00  0.00    -0.457 OA
BRANCH  20  21
ATOM     21  C   UNL     1       8.766  -0.203  24.110  0.00  0.00    +0.339 C 
ATOM     22  O   UNL     1       8.208   1.053  23.693  0.00  0.00    -0.331 OA
ATOM     23  C   UNL     1       7.862   1.138  22.298  0.00  0.00    +0.179 C 
ATOM     24  C   UNL     1       9.079   0.854  21.395  0.00  0.00    +0.177 C 
ATOM     25  C   UNL     1       9.689  -0.504  21.749  0.00  0.00    +0.180 C 
ATOM     26  C   UNL     1      10.000  -0.562  23.252  0.00  0.00    +0.214 C 
BRANCH  26  27
ATOM     27  O   UNL     1      10.587  -1.821  23.601  0.00  0.00    -0.383 OA
ATOM     28  H   UNL     1      11.554  -1.725  23.512  0.00  0.00    +0.210 HD
ENDBRANCH  26  27
BRANCH  25  29
ATOM     29  O   UNL     1       8.853  -1.584  21.320  0.00  0.00    -0.386 OA
ATOM     30  H   UNL     1       7.984  -1.522  21.765  0.00  0.00    +0.210 HD
ENDBRANCH  25  29
BRANCH  24  31
ATOM     31  O   UNL     1      10.064   1.880  21.573  0.00  0.00    -0.386 OA
ATOM     32  H   UNL     1      10.658   1.620  22.299  0.00  0.00    +0.210 HD
ENDBRANCH  24  31
BRANCH  23  33
ATOM     33  C   UNL     1       7.308   2.550  22.028  0.00  0.00    +0.190 C 
BRANCH  33  34
ATOM     34  O   UNL     1       7.949   3.550  22.824  0.00  0.00    -0.392 OA
ATOM     35  H   UNL     1       7.371   4.329  22.866  0.00  0.00    +0.210 HD
ENDBRANCH  33  34
ENDBRANCH  23  33
ENDBRANCH  20  21
ENDBRANCH  16  20
ENDBRANCH  11  12
BRANCH  10  36
ATOM     36  O   UNL     1       0.568   2.262  28.682  0.00  0.00    -0.506 OA
ATOM     37  H   UNL     1       0.471   2.747  27.832  0.00  0.00    +0.292 HD
ENDBRANCH  10  36
BRANCH   7  38
ATOM     38  O   UNL     1       4.579   4.442  29.948  0.00  0.00    -0.461 OA
BRANCH  38  39
ATOM     39  C   UNL     1       4.626   5.502  28.961  0.00  0.00    +0.339 C 
ATOM     40  O   UNL     1       4.711   4.961  27.640  0.00  0.00    -0.331 OA
ATOM     41  C   UNL     1       5.955   4.277  27.402  0.00  0.00    +0.179 C 
ATOM     42  C   UNL     1       7.158   5.241  27.489  0.00  0.00    +0.177 C 
ATOM     43  C   UNL     1       7.167   5.963  28.850  0.00  0.00    +0.180 C 
ATOM     44  C   UNL     1       5.773   6.527  29.176  0.00  0.00    +0.214 C 
BRANCH  44  45
ATOM     45  O   UNL     1       5.743   7.106  30.485  0.00  0.00    -0.383 OA
ATOM     46  H   UNL     1       4.863   6.897  30.852  0.00  0.00    +0.210 HD
ENDBRANCH  44  45
BRANCH  43  47
ATOM     47  O   UNL     1       7.615   5.130  29.928  0.00  0.00    -0.386 OA
ATOM     48  H   UNL     1       8.146   4.391  29.587  0.00  0.00    +0.210 HD
ENDBRANCH  43  47
BRANCH  42  49
ATOM     49  O   UNL     1       7.092   6.199  26.429  0.00  0.00    -0.386 OA
ATOM     50  H   UNL     1       6.459   6.897  26.679  0.00  0.00    +0.210 HD
ENDBRANCH  42  49
BRANCH  41  51
ATOM     51  C   UNL     1       5.862   3.605  26.025  0.00  0.00    +0.190 C 
BRANCH  51  52
ATOM     52  O   UNL     1       7.158   3.305  25.495  0.00  0.00    -0.392 OA
ATOM     53  H   UNL     1       7.261   2.340  25.459  0.00  0.00    +0.210 HD
ENDBRANCH  51  52
ENDBRANCH  41  51
ENDBRANCH  38  39
ENDBRANCH   7  38
BRANCH   1  54
ATOM     54  O   UNL     1       2.281  -2.233  26.548  0.00  0.00    -0.453 OA
BRANCH  54  57
ATOM     55  C   UNL     1       2.279  -5.829  25.427  0.00  0.00    +0.179 C 
ATOM     56  O   UNL     1       2.167  -4.376  25.421  0.00  0.00    -0.331 OA
ATOM     57  C   UNL     1       2.726  -3.636  26.532  0.00  0.00    +0.340 C 
ATOM     58  C   UNL     1       2.252  -4.253  27.880  0.00  0.00    +0.214 C 
ATOM     59  C   UNL     1       2.620  -5.739  27.926  0.00  0.00    +0.180 C 
ATOM     60  C   UNL     1       1.880  -6.463  26.791  0.00  0.00    +0.177 C 
BRANCH  60  61
ATOM     61  O   UNL     1       2.153  -7.868  26.851  0.00  0.00    -0.386 OA
ATOM     62  H   UNL     1       1.312  -8.348  26.757  0.00  0.00    +0.210 HD
ENDBRANCH  60  61
BRANCH  59  63
ATOM     63  O   UNL     1       2.276  -6.289  29.206  0.00  0.00    -0.386 OA
ATOM     64  H   UNL     1       3.006  -6.881  29.462  0.00  0.00    +0.210 HD
ENDBRANCH  59  63
BRANCH  58  65
ATOM     65  O   UNL     1       0.821  -4.153  28.079  0.00  0.00    -0.383 OA
ATOM     66  H   UNL     1       0.665  -3.605  28.874  0.00  0.00    +0.210 HD
ENDBRANCH  58  65
BRANCH  55  67
ATOM     67  C   UNL     1       3.630  -6.415  24.911  0.00  0.00    +0.197 C 
BRANCH  67  68
ATOM     68  O   UNL     1       3.691  -6.666  23.514  0.00  0.00    -0.346 OA
BRANCH  68  72
ATOM     69  C   UNL     1       6.241  -6.169  20.136  0.00  0.00    +0.041 C 
ATOM     70  C   UNL     1       6.625  -5.843  21.571  0.00  0.00    +0.149 C 
ATOM     71  O   UNL     1       5.708  -6.424  22.498  0.00  0.00    -0.343 OA
ATOM     72  C   UNL     1       4.407  -5.801  22.636  0.00  0.00    +0.282 C 
ATOM     73  C   UNL     1       4.616  -4.322  23.072  0.00  0.00    +0.201 C 
ATOM     74  C   UNL     1       5.498  -3.625  22.005  0.00  0.00    +0.179 C 
ATOM     75  C   UNL     1       6.823  -4.348  21.803  0.00  0.00    +0.174 C 
BRANCH  75  76
ATOM     76  O   UNL     1       7.630  -4.102  22.972  0.00  0.00    -0.387 OA
ATOM     77  H   UNL     1       7.885  -4.985  23.318  0.00  0.00    +0.210 HD
ENDBRANCH  75  76
BRANCH  74  78
ATOM     78  O   UNL     1       5.811  -2.262  22.373  0.00  0.00    -0.386 OA
ATOM     79  H   UNL     1       6.793  -2.223  22.421  0.00  0.00    +0.210 HD
ENDBRANCH  74  78
BRANCH  73  80
ATOM     80  O   UNL     1       5.262  -4.247  24.359  0.00  0.00    -0.384 OA
ATOM     81  H   UNL     1       5.986  -4.899  24.336  0.00  0.00    +0.210 HD
ENDBRANCH  73  80
ENDBRANCH  68  72
ENDBRANCH  67  68
ENDBRANCH  55  67
ENDBRANCH  54  57
ENDBRANCH   1  54
TORSDOF 28
ENDMDL
MODEL 4
REMARK VINA RESULT:      -5.3      2.281      8.767
REMARK  Name = 
REMARK  29 active torsions:
REMARK  status: ('A' for Active; 'I' for Inactive)
REMARK    1  A    between atoms: C_1  and  C_2
REMARK    2  A    between atoms: C_3  and  O_76
REMARK    3  A    between atoms: C_5  and  O_75
REMARK    4  A    between atoms: C_7  and  O_74
REMARK    5  A    between atoms: C_8  and  O_11
REMARK    6  A    between atoms: O_11  and  C_12
REMARK    7  A    between atoms: C_12  and  C_13
REMARK    8  A    between atoms: C_14  and  O_73
REMARK    9  A    between atoms: C_16  and  O_72
REMARK   10  A    between atoms: C_17  and  O_71
REMARK   11  A    between atoms: C_18  and  O_21
REMARK   12  A    between atoms: O_21  and  C_22
REMARK   13  A    between atoms: C_23  and  C_49
REMARK   14  A    between atoms: C_27  and  O_34
REMARK   15  A    between atoms: C_29  and  O_33
REMARK   16  A    between atoms: O_34  and  C_35
REMARK   17  A    between atoms: C_37  and  O_48
REMARK   18  A    between atoms: C_38  and  O_47
REMARK   19  A    between atoms: C_40  and  O_46
REMARK   20  A    between atoms: C_42  and  C_44
REMARK   21  A    between atoms: C_44  and  O_45
REMARK   22  A    between atoms: C_51  and  O_56
REMARK   23  A    between atoms: C_52  and  O_55
REMARK   24  A    between atoms: O_56  and  C_57
REMARK   25  A    between atoms: C_59  and  O_70
REMARK   26  A    between atoms: C_60  and  O_69
REMARK   27  A    between atoms: C_62  and  O_68
REMARK   28  A    between atoms: C_64  and  C_66
REMARK   29  A    between atoms: C_66  and  O_67
REMARK                            x       y       z     vdW  Elec       q    Type
REMARK                         _______ _______ _______ _____ _____    ______ ____
ROOT
ATOM      1  C   UNL     1       3.420  -2.066  27.336  0.00  0.00    +0.214 A 
ATOM      2  C   UNL     1       3.158  -1.409  28.672  0.00  0.00    +0.238 A 
ATOM      3  O   UNL     1       2.555  -1.980  29.579  0.00  0.00    -0.283 OA
ATOM      4  C   UNL     1       3.717  -0.044  28.896  0.00  0.00    +0.109 A 
ATOM      5  C   UNL     1       4.889   0.218  28.221  0.00  0.00    +0.147 A 
ATOM      6  C   UNL     1       5.578   1.449  28.309  0.00  0.00    +0.093 A 
ATOM      7  C   UNL     1       5.104   2.458  29.140  0.00  0.00    +0.131 A 
ATOM      8  C   UNL     1       3.934   2.190  29.872  0.00  0.00    +0.092 A 
ATOM      9  O   UNL     1       5.431  -0.767  27.452  0.00  0.00    -0.451 OA
ATOM     10  C   UNL     1       3.244   0.967  29.722  0.00  0.00    +0.135 A 
ATOM     11  C   UNL     1       4.548  -1.590  26.730  0.00  0.00    +0.181 A 
ENDROOT
BRANCH  11  12
ATOM     12  C   UNL     1       5.156  -1.779  25.367  0.00  0.00    +0.025 A 
ATOM     13  C   UNL     1       4.538  -2.761  24.545  0.00  0.00    +0.015 A 
ATOM     14  C   UNL     1       5.020  -3.143  23.306  0.00  0.00    +0.050 A 
ATOM     15  C   UNL     1       6.057  -2.421  22.757  0.00  0.00    +0.159 A 
ATOM     16  C   UNL     1       6.665  -1.379  23.484  0.00  0.00    +0.166 A 
ATOM     17  C   UNL     1       6.259  -1.120  24.820  0.00  0.00    +0.061 A 
BRANCH  15  18
ATOM     18  O   UNL     1       6.441  -2.719  21.476  0.00  0.00    -0.503 OA
ATOM     19  H   UNL     1       6.341  -3.676  21.328  0.00  0.00    +0.292 HD
ENDBRANCH  15  18
BRANCH  16  20
ATOM     20  O   UNL     1       7.568  -0.622  22.768  0.00  0.00    -0.457 OA
BRANCH  20  21
ATOM     21  C   UNL     1       8.830  -0.351  23.387  0.00  0.00    +0.339 C 
ATOM     22  O   UNL     1       8.742   0.654  24.408  0.00  0.00    -0.331 OA
ATOM     23  C   UNL     1       8.467   1.986  23.937  0.00  0.00    +0.179 C 
ATOM     24  C   UNL     1       9.528   2.456  22.920  0.00  0.00    +0.177 C 
ATOM     25  C   UNL     1       9.631   1.453  21.768  0.00  0.00    +0.180 C 
ATOM     26  C   UNL     1       9.880   0.043  22.323  0.00  0.00    +0.214 C 
BRANCH  26  27
ATOM     27  O   UNL     1       9.995  -0.908  21.259  0.00  0.00    -0.383 OA
ATOM     28  H   UNL     1      10.691  -1.544  21.512  0.00  0.00    +0.210 HD
ENDBRANCH  26  27
BRANCH  25  29
ATOM     29  O   UNL     1       8.482   1.512  20.916  0.00  0.00    -0.386 OA
ATOM     30  H   UNL     1       8.272   0.615  20.587  0.00  0.00    +0.210 HD
ENDBRANCH  25  29
BRANCH  24  31
ATOM     31  O   UNL     1      10.802   2.571  23.567  0.00  0.00    -0.386 OA
ATOM     32  H   UNL     1      10.723   2.226  24.474  0.00  0.00    +0.210 HD
ENDBRANCH  24  31
BRANCH  23  33
ATOM     33  C   UNL     1       8.435   2.928  25.156  0.00  0.00    +0.190 C 
BRANCH  33  34
ATOM     34  O   UNL     1       8.763   4.277  24.814  0.00  0.00    -0.392 OA
ATOM     35  H   UNL     1       9.208   4.687  25.573  0.00  0.00    +0.210 HD
ENDBRANCH  33  34
ENDBRANCH  23  33
ENDBRANCH  20  21
ENDBRANCH  16  20
ENDBRANCH  11  12
BRANCH  10  36
ATOM     36  O   UNL     1       2.013   0.860  30.292  0.00  0.00    -0.506 OA
ATOM     37  H   UNL     1       1.702   1.748  30.579  0.00  0.00    +0.292 HD
ENDBRANCH  10  36
BRANCH   7  38
ATOM     38  O   UNL     1       5.663   3.712  29.296  0.00  0.00    -0.461 OA
BRANCH  38  39
ATOM     39  C   UNL     1       4.866   4.845  28.872  0.00  0.00    +0.339 C 
ATOM     40  O   UNL     1       4.438   4.686  27.517  0.00  0.00    -0.331 OA
ATOM     41  C   UNL     1       5.532   4.727  26.583  0.00  0.00    +0.179 C 
ATOM     42  C   UNL     1       6.237   6.100  26.593  0.00  0.00    +0.177 C 
ATOM     43  C   UNL     1       6.702   6.452  28.019  0.00  0.00    +0.180 C 
ATOM     44  C   UNL     1       5.570   6.221  29.034  0.00  0.00    +0.214 C 
BRANCH  44  45
ATOM     45  O   UNL     1       6.023   6.441  30.374  0.00  0.00    -0.383 OA
ATOM     46  H   UNL     1       5.880   5.601  30.850  0.00  0.00    +0.210 HD
ENDBRANCH  44  45
BRANCH  43  47
ATOM     47  O   UNL     1       7.870   5.727  28.425  0.00  0.00    -0.386 OA
ATOM     48  H   UNL     1       8.668   6.265  28.286  0.00  0.00    +0.210 HD
ENDBRANCH  43  47
BRANCH  42  49
ATOM     49  O   UNL     1       5.344   7.108  26.110  0.00  0.00    -0.386 OA
ATOM     50  H   UNL     1       5.864   7.895  25.865  0.00  0.00    +0.210 HD
ENDBRANCH  42  49
BRANCH  41  51
ATOM     51  C   UNL     1       4.975   4.382  25.195  0.00  0.00    +0.190 C 
BRANCH  51  52
ATOM     52  O   UNL     1       5.828   4.861  24.149  0.00  0.00    -0.392 OA
ATOM     53  H   UNL     1       6.074   5.779  24.348  0.00  0.00    +0.210 HD
ENDBRANCH  51  52
ENDBRANCH  41  51
ENDBRANCH  38  39
ENDBRANCH   7  38
BRANCH   1  54
ATOM     54  O   UNL     1       2.570  -3.043  26.807  0.00  0.00    -0.453 OA
BRANCH  54  57
ATOM     55  C   UNL     1       3.065  -6.483  25.354  0.00  0.00    +0.179 C 
ATOM     56  O   UNL     1       3.020  -5.034  25.499  0.00  0.00    -0.331 OA
ATOM     57  C   UNL     1       2.908  -4.476  26.829  0.00  0.00    +0.340 C 
ATOM     58  C   UNL     1       1.758  -5.177  27.609  0.00  0.00    +0.214 C 
ATOM     59  C   UNL     1       1.995  -6.690  27.630  0.00  0.00    +0.180 C 
ATOM     60  C   UNL     1       1.968  -7.210  26.186  0.00  0.00    +0.177 C 
BRANCH  60  61
ATOM     61  O   UNL     1       2.121  -8.635  26.179  0.00  0.00    -0.386 OA
ATOM     62  H   UNL     1       2.930  -8.859  26.671  0.00  0.00    +0.210 HD
ENDBRANCH  60  61
BRANCH  59  63
ATOM     63  O   UNL     1       0.992  -7.331  28.433  0.00  0.00    -0.386 OA
ATOM     64  H   UNL     1       0.839  -6.754  29.203  0.00  0.00    +0.210 HD
ENDBRANCH  59  63
BRANCH  58  65
ATOM     65  O   UNL     1       0.453  -4.949  27.025  0.00  0.00    -0.383 OA
ATOM     66  H   UNL     1       0.386  -5.492  26.214  0.00  0.00    +0.210 HD
ENDBRANCH  58  65
BRANCH  55  67
ATOM     67  C   UNL     1       4.460  -7.150  25.563  0.00  0.00    +0.197 C 
BRANCH  67  68
ATOM     68  O   UNL     1       5.359  -6.434  26.398  0.00  0.00    -0.346 OA
BRANCH  68  72
ATOM     69  C   UNL     1       7.819  -5.225  23.135  0.00  0.00    +0.041 C 
ATOM     70  C   UNL     1       8.335  -5.742  24.469  0.00  0.00    +0.149 C 
ATOM     71  O   UNL     1       7.298  -6.376  25.217  0.00  0.00    -0.343 OA
ATOM     72  C   UNL     1       6.313  -5.525  25.853  0.00  0.00    +0.282 C 
ATOM     73  C   UNL     1       7.052  -4.565  26.830  0.00  0.00    +0.201 C 
ATOM     74  C   UNL     1       8.095  -3.758  26.014  0.00  0.00    +0.179 C 
ATOM     75  C   UNL     1       9.065  -4.669  25.273  0.00  0.00    +0.174 C 
BRANCH  75  76
ATOM     76  O   UNL     1       9.940  -5.257  26.257  0.00  0.00    -0.387 OA
ATOM     77  H   UNL     1       9.356  -5.611  26.964  0.00  0.00    +0.210 HD
ENDBRANCH  75  76
BRANCH  74  78
ATOM     78  O   UNL     1       8.888  -2.894  26.860  0.00  0.00    -0.386 OA
ATOM     79  H   UNL     1       8.243  -2.431  27.440  0.00  0.00    +0.210 HD
ENDBRANCH  74  78
BRANCH  73  80
ATOM     80  O   UNL     1       7.719  -5.301  27.876  0.00  0.00    -0.384 OA
ATOM     81  H   UNL     1       8.432  -5.801  27.440  0.00  0.00    +0.210 HD
ENDBRANCH  73  80
ENDBRANCH  68  72
ENDBRANCH  67  68
ENDBRANCH  55  67
ENDBRANCH  54  57
ENDBRANCH   1  54
TORSDOF 28
ENDMDL
MODEL 5
REMARK VINA RESULT:      -5.2      2.299      7.069
REMARK  Name = 
REMARK  29 active torsions:
REMARK  status: ('A' for Active; 'I' for Inactive)
REMARK    1  A    between atoms: C_1  and  C_2
REMARK    2  A    between atoms: C_3  and  O_76
REMARK    3  A    between atoms: C_5  and  O_75
REMARK    4  A    between atoms: C_7  and  O_74
REMARK    5  A    between atoms: C_8  and  O_11
REMARK    6  A    between atoms: O_11  and  C_12
REMARK    7  A    between atoms: C_12  and  C_13
REMARK    8  A    between atoms: C_14  and  O_73
REMARK    9  A    between atoms: C_16  and  O_72
REMARK   10  A    between atoms: C_17  and  O_71
REMARK   11  A    between atoms: C_18  and  O_21
REMARK   12  A    between atoms: O_21  and  C_22
REMARK   13  A    between atoms: C_23  and  C_49
REMARK   14  A    between atoms: C_27  and  O_34
REMARK   15  A    between atoms: C_29  and  O_33
REMARK   16  A    between atoms: O_34  and  C_35
REMARK   17  A    between atoms: C_37  and  O_48
REMARK   18  A    between atoms: C_38  and  O_47
REMARK   19  A    between atoms: C_40  and  O_46
REMARK   20  A    between atoms: C_42  and  C_44
REMARK   21  A    between atoms: C_44  and  O_45
REMARK   22  A    between atoms: C_51  and  O_56
REMARK   23  A    between atoms: C_52  and  O_55
REMARK   24  A    between atoms: O_56  and  C_57
REMARK   25  A    between atoms: C_59  and  O_70
REMARK   26  A    between atoms: C_60  and  O_69
REMARK   27  A    between atoms: C_62  and  O_68
REMARK   28  A    between atoms: C_64  and  C_66
REMARK   29  A    between atoms: C_66  and  O_67
REMARK                            x       y       z     vdW  Elec       q    Type
REMARK                         _______ _______ _______ _____ _____    ______ ____
ROOT
ATOM      1  C   UNL     1       3.592   0.479  27.838  0.00  0.00    +0.214 A 
ATOM      2  C   UNL     1       2.235  -0.183  27.924  0.00  0.00    +0.238 A 
ATOM      3  O   UNL     1       1.243   0.402  28.354  0.00  0.00    -0.283 OA
ATOM      4  C   UNL     1       2.108  -1.575  27.402  0.00  0.00    +0.109 A 
ATOM      5  C   UNL     1       2.956  -1.881  26.360  0.00  0.00    +0.147 A 
ATOM      6  C   UNL     1       2.982  -3.143  25.725  0.00  0.00    +0.093 A 
ATOM      7  C   UNL     1       2.094  -4.141  26.113  0.00  0.00    +0.131 A 
ATOM      8  C   UNL     1       1.191  -3.830  27.143  0.00  0.00    +0.092 A 
ATOM      9  O   UNL     1       3.792  -0.912  25.896  0.00  0.00    -0.451 OA
ATOM     10  C   UNL     1       1.226  -2.574  27.790  0.00  0.00    +0.135 A 
ATOM     11  C   UNL     1       4.365  -0.039  26.839  0.00  0.00    +0.181 A 
ENDROOT
BRANCH  11  12
ATOM     12  C   UNL     1       5.804   0.139  26.438  0.00  0.00    +0.025 A 
ATOM     13  C   UNL     1       6.762  -0.509  27.266  0.00  0.00    +0.015 A 
ATOM     14  C   UNL     1       8.130  -0.373  27.114  0.00  0.00    +0.050 A 
ATOM     15  C   UNL     1       8.602   0.289  26.002  0.00  0.00    +0.159 A 
ATOM     16  C   UNL     1       7.706   0.886  25.093  0.00  0.00    +0.166 A 
ATOM     17  C   UNL     1       6.312   0.875  25.365  0.00  0.00    +0.061 A 
BRANCH  15  18
ATOM     18  O   UNL     1       9.955   0.304  25.787  0.00  0.00    -0.503 OA
ATOM     19  H   UNL     1      10.132   0.074  24.858  0.00  0.00    +0.292 HD
ENDBRANCH  15  18
BRANCH  16  20
ATOM     20  O   UNL     1       8.285   1.365  23.937  0.00  0.00    -0.457 OA
BRANCH  20  21
ATOM     21  C   UNL     1       7.927   0.719  22.711  0.00  0.00    +0.339 C 
ATOM     22  O   UNL     1       7.441  -0.617  22.910  0.00  0.00    -0.331 OA
ATOM     23  C   UNL     1       8.427  -1.570  23.351  0.00  0.00    +0.179 C 
ATOM     24  C   UNL     1       9.612  -1.653  22.366  0.00  0.00    +0.177 C 
ATOM     25  C   UNL     1      10.216  -0.263  22.154  0.00  0.00    +0.180 C 
ATOM     26  C   UNL     1       9.120   0.724  21.729  0.00  0.00    +0.214 C 
BRANCH  26  27
ATOM     27  O   UNL     1       9.669   2.029  21.510  0.00  0.00    -0.383 OA
ATOM     28  H   UNL     1       9.099   2.666  21.981  0.00  0.00    +0.210 HD
ENDBRANCH  26  27
BRANCH  25  29
ATOM     29  O   UNL     1      10.935   0.179  23.310  0.00  0.00    -0.386 OA
ATOM     30  H   UNL     1      11.118   1.137  23.236  0.00  0.00    +0.210 HD
ENDBRANCH  25  29
BRANCH  24  31
ATOM     31  O   UNL     1       9.161  -2.175  21.109  0.00  0.00    -0.386 OA
ATOM     32  H   UNL     1       9.933  -2.499  20.612  0.00  0.00    +0.210 HD
ENDBRANCH  24  31
BRANCH  23  33
ATOM     33  C   UNL     1       7.740  -2.942  23.485  0.00  0.00    +0.190 C 
BRANCH  33  34
ATOM     34  O   UNL     1       8.668  -4.027  23.420  0.00  0.00    -0.392 OA
ATOM     35  H   UNL     1       9.170  -3.954  22.592  0.00  0.00    +0.210 HD
ENDBRANCH  33  34
ENDBRANCH  23  33
ENDBRANCH  20  21
ENDBRANCH  16  20
ENDBRANCH  11  12
BRANCH  10  36
ATOM     36  O   UNL     1       0.474  -2.419  28.913  0.00  0.00    -0.506 OA
ATOM     37  H   UNL     1       0.403  -3.278  29.387  0.00  0.00    +0.292 HD
ENDBRANCH  10  36
BRANCH   7  38
ATOM     38  O   UNL     1       2.034  -5.420  25.596  0.00  0.00    -0.461 OA
BRANCH  38  39
ATOM     39  C   UNL     1       2.350  -6.510  26.498  0.00  0.00    +0.339 C 
ATOM     40  O   UNL     1       2.937  -6.016  27.704  0.00  0.00    -0.331 OA
ATOM     41  C   UNL     1       4.231  -5.426  27.487  0.00  0.00    +0.179 C 
ATOM     42  C   UNL     1       5.251  -6.465  26.974  0.00  0.00    +0.177 C 
ATOM     43  C   UNL     1       4.723  -7.145  25.696  0.00  0.00    +0.180 C 
ATOM     44  C   UNL     1       3.267  -7.604  25.885  0.00  0.00    +0.214 C 
BRANCH  44  45
ATOM     45  O   UNL     1       2.732  -8.140  24.670  0.00  0.00    -0.383 OA
ATOM     46  H   UNL     1       2.879  -9.104  24.713  0.00  0.00    +0.210 HD
ENDBRANCH  44  45
BRANCH  43  47
ATOM     47  O   UNL     1       4.820  -6.313  24.533  0.00  0.00    -0.386 OA
ATOM     48  H   UNL     1       5.752  -6.131  24.323  0.00  0.00    +0.210 HD
ENDBRANCH  43  47
BRANCH  42  49
ATOM     49  O   UNL     1       5.494  -7.448  27.984  0.00  0.00    -0.386 OA
ATOM     50  H   UNL     1       5.062  -7.161  28.809  0.00  0.00    +0.210 HD
ENDBRANCH  42  49
BRANCH  41  51
ATOM     51  C   UNL     1       4.682  -4.790  28.810  0.00  0.00    +0.190 C 
BRANCH  51  52
ATOM     52  O   UNL     1       6.071  -5.027  29.063  0.00  0.00    -0.392 OA
ATOM     53  H   UNL     1       6.375  -4.395  29.734  0.00  0.00    +0.210 HD
ENDBRANCH  51  52
ENDBRANCH  41  51
ENDBRANCH  38  39
ENDBRANCH   7  38
BRANCH   1  54
ATOM     54  O   UNL     1       3.978   1.501  28.711  0.00  0.00    -0.453 OA
BRANCH  54  57
ATOM     55  C   UNL     1       4.955   5.138  28.762  0.00  0.00    +0.179 C 
ATOM     56  O   UNL     1       5.030   3.684  28.786  0.00  0.00    -0.331 OA
ATOM     57  C   UNL     1       3.878   2.924  28.351  0.00  0.00    +0.340 C 
ATOM     58  C   UNL     1       2.592   3.455  29.049  0.00  0.00    +0.214 C 
ATOM     59  C   UNL     1       2.438   4.955  28.777  0.00  0.00    +0.180 C 
ATOM     60  C   UNL     1       3.641   5.689  29.388  0.00  0.00    +0.177 C 
BRANCH  60  61
ATOM     61  O   UNL     1       3.490   7.102  29.208  0.00  0.00    -0.386 OA
ATOM     62  H   UNL     1       2.841   7.427  29.857  0.00  0.00    +0.210 HD
ENDBRANCH  60  61
BRANCH  59  63
ATOM     63  O   UNL     1       1.202   5.428  29.334  0.00  0.00    -0.386 OA
ATOM     64  H   UNL     1       1.394   6.288  29.750  0.00  0.00    +0.210 HD
ENDBRANCH  59  63
BRANCH  58  65
ATOM     65  O   UNL     1       2.607   3.272  30.485  0.00  0.00    -0.383 OA
ATOM     66  H   UNL     1       2.268   4.091  30.897  0.00  0.00    +0.210 HD
ENDBRANCH  58  65
BRANCH  55  67
ATOM     67  C   UNL     1       5.246   5.816  27.387  0.00  0.00    +0.197 C 
BRANCH  67  68
ATOM     68  O   UNL     1       6.103   5.088  26.518  0.00  0.00    -0.346 OA
BRANCH  68  72
ATOM     69  C   UNL     1       5.106   6.492  22.620  0.00  0.00    +0.041 C 
ATOM     70  C   UNL     1       5.915   5.237  22.912  0.00  0.00    +0.149 C 
ATOM     71  O   UNL     1       5.794   4.849  24.280  0.00  0.00    -0.343 OA
ATOM     72  C   UNL     1       6.520   5.626  25.265  0.00  0.00    +0.282 C 
ATOM     73  C   UNL     1       8.035   5.573  24.912  0.00  0.00    +0.201 C 
ATOM     74  C   UNL     1       8.213   6.123  23.473  0.00  0.00    +0.179 C 
ATOM     75  C   UNL     1       7.369   5.356  22.463  0.00  0.00    +0.174 C 
BRANCH  75  76
ATOM     76  O   UNL     1       7.972   4.058  22.295  0.00  0.00    -0.387 OA
ATOM     77  H   UNL     1       7.699   3.743  21.406  0.00  0.00    +0.210 HD
ENDBRANCH  75  76
BRANCH  74  78
ATOM     78  O   UNL     1       9.587   6.035  23.030  0.00  0.00    -0.386 OA
ATOM     79  H   UNL     1       9.602   6.453  22.140  0.00  0.00    +0.210 HD
ENDBRANCH  74  78
BRANCH  73  80
ATOM     80  O   UNL     1       8.537   4.222  24.980  0.00  0.00    -0.384 OA
ATOM     81  H   UNL     1       8.250   3.787  24.157  0.00  0.00    +0.210 HD
ENDBRANCH  73  80
ENDBRANCH  68  72
ENDBRANCH  67  68
ENDBRANCH  55  67
ENDBRANCH  54  57
ENDBRANCH   1  54
TORSDOF 28
ENDMDL
MODEL 6
REMARK VINA RESULT:      -5.1      2.391      7.516
REMARK  Name = 
REMARK  29 active torsions:
REMARK  status: ('A' for Active; 'I' for Inactive)
REMARK    1  A    between atoms: C_1  and  C_2
REMARK    2  A    between atoms: C_3  and  O_76
REMARK    3  A    between atoms: C_5  and  O_75
REMARK    4  A    between atoms: C_7  and  O_74
REMARK    5  A    between atoms: C_8  and  O_11
REMARK    6  A    between atoms: O_11  and  C_12
REMARK    7  A    between atoms: C_12  and  C_13
REMARK    8  A    between atoms: C_14  and  O_73
REMARK    9  A    between atoms: C_16  and  O_72
REMARK   10  A    between atoms: C_17  and  O_71
REMARK   11  A    between atoms: C_18  and  O_21
REMARK   12  A    between atoms: O_21  and  C_22
REMARK   13  A    between atoms: C_23  and  C_49
REMARK   14  A    between atoms: C_27  and  O_34
REMARK   15  A    between atoms: C_29  and  O_33
REMARK   16  A    between atoms: O_34  and  C_35
REMARK   17  A    between atoms: C_37  and  O_48
REMARK   18  A    between atoms: C_38  and  O_47
REMARK   19  A    between atoms: C_40  and  O_46
REMARK   20  A    between atoms: C_42  and  C_44
REMARK   21  A    between atoms: C_44  and  O_45
REMARK   22  A    between atoms: C_51  and  O_56
REMARK   23  A    between atoms: C_52  and  O_55
REMARK   24  A    between atoms: O_56  and  C_57
REMARK   25  A    between atoms: C_59  and  O_70
REMARK   26  A    between atoms: C_60  and  O_69
REMARK   27  A    between atoms: C_62  and  O_68
REMARK   28  A    between atoms: C_64  and  C_66
REMARK   29  A    between atoms: C_66  and  O_67
REMARK                            x       y       z     vdW  Elec       q    Type
REMARK                         _______ _______ _______ _____ _____    ______ ____
ROOT
ATOM      1  C   UNL     1       4.435   0.512  27.923  0.00  0.00    +0.214 A 
ATOM      2  C   UNL     1       2.999   0.160  28.239  0.00  0.00    +0.238 A 
ATOM      3  O   UNL     1       2.221   0.963  28.751  0.00  0.00    -0.283 OA
ATOM      4  C   UNL     1       2.513  -1.195  27.844  0.00  0.00    +0.109 A 
ATOM      5  C   UNL     1       3.119  -1.722  26.725  0.00  0.00    +0.147 A 
ATOM      6  C   UNL     1       2.793  -2.989  26.189  0.00  0.00    +0.093 A 
ATOM      7  C   UNL     1       1.785  -3.755  26.766  0.00  0.00    +0.131 A 
ATOM      8  C   UNL     1       1.125  -3.211  27.881  0.00  0.00    +0.092 A 
ATOM      9  O   UNL     1       4.060  -0.976  26.082  0.00  0.00    -0.451 OA
ATOM     10  C   UNL     1       1.512  -1.964  28.421  0.00  0.00    +0.135 A 
ATOM     11  C   UNL     1       4.931  -0.205  26.872  0.00  0.00    +0.181 A 
ENDROOT
BRANCH  11  12
ATOM     12  C   UNL     1       6.302  -0.356  26.271  0.00  0.00    +0.025 A 
ATOM     13  C   UNL     1       6.970   0.855  25.942  0.00  0.00    +0.015 A 
ATOM     14  C   UNL     1       8.188   0.911  25.289  0.00  0.00    +0.050 A 
ATOM     15  C   UNL     1       8.878  -0.265  25.091  0.00  0.00    +0.159 A 
ATOM     16  C   UNL     1       8.310  -1.498  25.467  0.00  0.00    +0.166 A 
ATOM     17  C   UNL     1       6.987  -1.539  25.982  0.00  0.00    +0.061 A 
BRANCH  15  18
ATOM     18  O   UNL     1      10.141  -0.190  24.565  0.00  0.00    -0.503 OA
ATOM     19  H   UNL     1      10.077  -0.068  23.601  0.00  0.00    +0.292 HD
ENDBRANCH  15  18
BRANCH  16  20
ATOM     20  O   UNL     1       9.161  -2.580  25.380  0.00  0.00    -0.457 OA
BRANCH  20  21
ATOM     21  C   UNL     1       9.182  -3.297  24.142  0.00  0.00    +0.339 C 
ATOM     22  O   UNL     1       8.040  -3.015  23.319  0.00  0.00    -0.331 OA
ATOM     23  C   UNL     1       6.786  -3.520  23.815  0.00  0.00    +0.179 C 
ATOM     24  C   UNL     1       6.835  -5.047  24.025  0.00  0.00    +0.177 C 
ATOM     25  C   UNL     1       8.001  -5.413  24.946  0.00  0.00    +0.180 C 
ATOM     26  C   UNL     1       9.306  -4.816  24.400  0.00  0.00    +0.214 C 
BRANCH  26  27
ATOM     27  O   UNL     1      10.413  -5.160  25.240  0.00  0.00    -0.383 OA
ATOM     28  H   UNL     1      11.222  -4.830  24.805  0.00  0.00    +0.210 HD
ENDBRANCH  26  27
BRANCH  25  29
ATOM     29  O   UNL     1       7.744  -5.022  26.299  0.00  0.00    -0.386 OA
ATOM     30  H   UNL     1       6.779  -5.009  26.459  0.00  0.00    +0.210 HD
ENDBRANCH  25  29
BRANCH  24  31
ATOM     31  O   UNL     1       7.001  -5.705  22.762  0.00  0.00    -0.386 OA
ATOM     32  H   UNL     1       7.826  -6.221  22.786  0.00  0.00    +0.210 HD
ENDBRANCH  24  31
BRANCH  23  33
ATOM     33  C   UNL     1       5.687  -3.150  22.800  0.00  0.00    +0.190 C 
BRANCH  33  34
ATOM     34  O   UNL     1       4.631  -4.112  22.763  0.00  0.00    -0.392 OA
ATOM     35  H   UNL     1       4.658  -4.568  21.906  0.00  0.00    +0.210 HD
ENDBRANCH  33  34
ENDBRANCH  23  33
ENDBRANCH  20  21
ENDBRANCH  16  20
ENDBRANCH  11  12
BRANCH  10  36
ATOM     36  O   UNL     1       0.979  -1.600  29.619  0.00  0.00    -0.506 OA
ATOM     37  H   UNL     1       1.648  -1.723  30.330  0.00  0.00    +0.292 HD
ENDBRANCH  10  36
BRANCH   7  38
ATOM     38  O   UNL     1       1.389  -5.014  26.359  0.00  0.00    -0.461 OA
BRANCH  38  39
ATOM     39  C   UNL     1       1.776  -6.129  27.200  0.00  0.00    +0.339 C 
ATOM     40  O   UNL     1       2.730  -5.717  28.183  0.00  0.00    -0.331 OA
ATOM     41  C   UNL     1       3.989  -5.331  27.602  0.00  0.00    +0.179 C 
ATOM     42  C   UNL     1       4.674  -6.518  26.892  0.00  0.00    +0.177 C 
ATOM     43  C   UNL     1       3.732  -7.124  25.835  0.00  0.00    +0.180 C 
ATOM     44  C   UNL     1       2.329  -7.355  26.424  0.00  0.00    +0.214 C 
BRANCH  44  45
ATOM     45  O   UNL     1       1.417  -7.818  25.421  0.00  0.00    -0.383 OA
ATOM     46  H   UNL     1       0.565  -7.960  25.877  0.00  0.00    +0.210 HD
ENDBRANCH  44  45
BRANCH  43  47
ATOM     47  O   UNL     1       3.631  -6.329  24.646  0.00  0.00    -0.386 OA
ATOM     48  H   UNL     1       2.703  -6.101  24.468  0.00  0.00    +0.210 HD
ENDBRANCH  43  47
BRANCH  42  49
ATOM     49  O   UNL     1       5.036  -7.515  27.851  0.00  0.00    -0.386 OA
ATOM     50  H   UNL     1       5.033  -8.386  27.412  0.00  0.00    +0.210 HD
ENDBRANCH  42  49
BRANCH  41  51
ATOM     51  C   UNL     1       4.864  -4.757  28.725  0.00  0.00    +0.190 C 
BRANCH  51  52
ATOM     52  O   UNL     1       6.242  -5.105  28.551  0.00  0.00    -0.392 OA
ATOM     53  H   UNL     1       6.769  -4.289  28.551  0.00  0.00    +0.210 HD
ENDBRANCH  51  52
ENDBRANCH  41  51
ENDBRANCH  38  39
ENDBRANCH   7  38
BRANCH   1  54
ATOM     54  O   UNL     1       5.145   1.466  28.658  0.00  0.00    -0.453 OA
BRANCH  54  57
ATOM     55  C   UNL     1       6.520   4.972  28.738  0.00  0.00    +0.179 C 
ATOM     56  O   UNL     1       6.392   3.531  28.906  0.00  0.00    -0.331 OA
ATOM     57  C   UNL     1       5.356   2.839  28.170  0.00  0.00    +0.340 C 
ATOM     58  C   UNL     1       3.994   3.572  28.347  0.00  0.00    +0.214 C 
ATOM     59  C   UNL     1       4.135   5.035  27.918  0.00  0.00    +0.180 C 
ATOM     60  C   UNL     1       5.158   5.718  28.837  0.00  0.00    +0.177 C 
BRANCH  60  61
ATOM     61  O   UNL     1       5.261   7.107  28.502  0.00  0.00    -0.386 OA
ATOM     62  H   UNL     1       4.799   7.623  29.186  0.00  0.00    +0.210 HD
ENDBRANCH  60  61
BRANCH  59  63
ATOM     63  O   UNL     1       2.859   5.689  27.983  0.00  0.00    -0.386 OA
ATOM     64  H   UNL     1       2.492   5.679  27.080  0.00  0.00    +0.210 HD
ENDBRANCH  59  63
BRANCH  58  65
ATOM     65  O   UNL     1       3.515   3.562  29.713  0.00  0.00    -0.383 OA
ATOM     66  H   UNL     1       3.868   4.356  30.162  0.00  0.00    +0.210 HD
ENDBRANCH  58  65
BRANCH  55  67
ATOM     67  C   UNL     1       7.330   5.448  27.492  0.00  0.00    +0.197 C 
BRANCH  67  68
ATOM     68  O   UNL     1       7.883   4.412  26.693  0.00  0.00    -0.346 OA
BRANCH  68  72
ATOM     69  C   UNL     1      10.563   6.003  23.786  0.00  0.00    +0.041 C 
ATOM     70  C   UNL     1       9.149   6.507  24.035  0.00  0.00    +0.149 C 
ATOM     71  O   UNL     1       8.633   6.017  25.272  0.00  0.00    -0.343 OA
ATOM     72  C   UNL     1       8.218   4.629  25.324  0.00  0.00    +0.282 C 
ATOM     73  C   UNL     1       7.111   4.408  24.254  0.00  0.00    +0.201 C 
ATOM     74  C   UNL     1       7.692   4.802  22.871  0.00  0.00    +0.179 C 
ATOM     75  C   UNL     1       8.212   6.234  22.861  0.00  0.00    +0.174 C 
BRANCH  75  76
ATOM     76  O   UNL     1       7.066   7.108  22.892  0.00  0.00    -0.387 OA
ATOM     77  H   UNL     1       6.460   6.739  23.571  0.00  0.00    +0.210 HD
ENDBRANCH  75  76
BRANCH  74  78
ATOM     78  O   UNL     1       6.701   4.704  21.823  0.00  0.00    -0.386 OA
ATOM     79  H   UNL     1       5.868   5.046  22.218  0.00  0.00    +0.210 HD
ENDBRANCH  74  78
BRANCH  73  80
ATOM     80  O   UNL     1       5.947   5.212  24.536  0.00  0.00    -0.384 OA
ATOM     81  H   UNL     1       6.252   6.137  24.533  0.00  0.00    +0.210 HD
ENDBRANCH  73  80
ENDBRANCH  68  72
ENDBRANCH  67  68
ENDBRANCH  55  67
ENDBRANCH  54  57
ENDBRANCH   1  54
TORSDOF 28
ENDMDL
MODEL 7
REMARK VINA RESULT:      -5.1      2.129      8.322
REMARK  Name = 
REMARK  29 active torsions:
REMARK  status: ('A' for Active; 'I' for Inactive)
REMARK    1  A    between atoms: C_1  and  C_2
REMARK    2  A    between atoms: C_3  and  O_76
REMARK    3  A    between atoms: C_5  and  O_75
REMARK    4  A    between atoms: C_7  and  O_74
REMARK    5  A    between atoms: C_8  and  O_11
REMARK    6  A    between atoms: O_11  and  C_12
REMARK    7  A    between atoms: C_12  and  C_13
REMARK    8  A    between atoms: C_14  and  O_73
REMARK    9  A    between atoms: C_16  and  O_72
REMARK   10  A    between atoms: C_17  and  O_71
REMARK   11  A    between atoms: C_18  and  O_21
REMARK   12  A    between atoms: O_21  and  C_22
REMARK   13  A    between atoms: C_23  and  C_49
REMARK   14  A    between atoms: C_27  and  O_34
REMARK   15  A    between atoms: C_29  and  O_33
REMARK   16  A    between atoms: O_34  and  C_35
REMARK   17  A    between atoms: C_37  and  O_48
REMARK   18  A    between atoms: C_38  and  O_47
REMARK   19  A    between atoms: C_40  and  O_46
REMARK   20  A    between atoms: C_42  and  C_44
REMARK   21  A    between atoms: C_44  and  O_45
REMARK   22  A    between atoms: C_51  and  O_56
REMARK   23  A    between atoms: C_52  and  O_55
REMARK   24  A    between atoms: O_56  and  C_57
REMARK   25  A    between atoms: C_59  and  O_70
REMARK   26  A    between atoms: C_60  and  O_69
REMARK   27  A    between atoms: C_62  and  O_68
REMARK   28  A    between atoms: C_64  and  C_66
REMARK   29  A    between atoms: C_66  and  O_67
REMARK                            x       y       z     vdW  Elec       q    Type
REMARK                         _______ _______ _______ _____ _____    ______ ____
ROOT
ATOM      1  C   UNL     1       4.892  -2.369  27.174  0.00  0.00    +0.214 A 
ATOM      2  C   UNL     1       5.990  -2.840  26.247  0.00  0.00    +0.238 A 
ATOM      3  O   UNL     1       6.238  -4.031  26.071  0.00  0.00    -0.283 OA
ATOM      4  C   UNL     1       6.743  -1.804  25.480  0.00  0.00    +0.109 A 
ATOM      5  C   UNL     1       6.016  -0.676  25.166  0.00  0.00    +0.147 A 
ATOM      6  C   UNL     1       6.547   0.412  24.438  0.00  0.00    +0.093 A 
ATOM      7  C   UNL     1       7.853   0.364  23.960  0.00  0.00    +0.131 A 
ATOM      8  C   UNL     1       8.593  -0.799  24.232  0.00  0.00    +0.092 A 
ATOM      9  O   UNL     1       4.711  -0.616  25.549  0.00  0.00    -0.451 OA
ATOM     10  C   UNL     1       8.046  -1.847  25.005  0.00  0.00    +0.135 A 
ATOM     11  C   UNL     1       4.373  -1.163  26.801  0.00  0.00    +0.181 A 
ENDROOT
BRANCH  11  12
ATOM     12  C   UNL     1       3.408  -0.202  27.441  0.00  0.00    +0.025 A 
ATOM     13  C   UNL     1       2.380  -0.791  28.227  0.00  0.00    +0.015 A 
ATOM     14  C   UNL     1       1.345  -0.076  28.804  0.00  0.00    +0.050 A 
ATOM     15  C   UNL     1       1.398   1.300  28.761  0.00  0.00    +0.159 A 
ATOM     16  C   UNL     1       2.436   1.953  28.068  0.00  0.00    +0.166 A 
ATOM     17  C   UNL     1       3.390   1.191  27.343  0.00  0.00    +0.061 A 
BRANCH  15  18
ATOM     18  O   UNL     1       0.444   2.003  29.449  0.00  0.00    -0.503 OA
ATOM     19  H   UNL     1       0.335   1.610  30.333  0.00  0.00    +0.292 HD
ENDBRANCH  15  18
BRANCH  16  20
ATOM     20  O   UNL     1       2.480   3.320  28.242  0.00  0.00    -0.457 OA
BRANCH  20  21
ATOM     21  C   UNL     1       1.686   4.118  27.358  0.00  0.00    +0.339 C 
ATOM     22  O   UNL     1       1.899   3.792  25.976  0.00  0.00    -0.331 OA
ATOM     23  C   UNL     1       3.192   4.151  25.453  0.00  0.00    +0.179 C 
ATOM     24  C   UNL     1       3.470   5.659  25.618  0.00  0.00    +0.177 C 
ATOM     25  C   UNL     1       3.316   6.063  27.086  0.00  0.00    +0.180 C 
ATOM     26  C   UNL     1       1.942   5.621  27.609  0.00  0.00    +0.214 C 
BRANCH  26  27
ATOM     27  O   UNL     1       1.771   6.004  28.978  0.00  0.00    -0.383 OA
ATOM     28  H   UNL     1       2.468   5.555  29.494  0.00  0.00    +0.210 HD
ENDBRANCH  26  27
BRANCH  25  29
ATOM     29  O   UNL     1       4.393   5.563  27.885  0.00  0.00    -0.386 OA
ATOM     30  H   UNL     1       4.107   5.497  28.818  0.00  0.00    +0.210 HD
ENDBRANCH  25  29
BRANCH  24  31
ATOM     31  O   UNL     1       2.549   6.412  24.817  0.00  0.00    -0.386 OA
ATOM     32  H   UNL     1       1.770   5.857  24.635  0.00  0.00    +0.210 HD
ENDBRANCH  24  31
BRANCH  23  33
ATOM     33  C   UNL     1       3.234   3.755  23.965  0.00  0.00    +0.190 C 
BRANCH  33  34
ATOM     34  O   UNL     1       3.837   2.476  23.756  0.00  0.00    -0.392 OA
ATOM     35  H   UNL     1       4.769   2.527  24.025  0.00  0.00    +0.210 HD
ENDBRANCH  33  34
ENDBRANCH  23  33
ENDBRANCH  20  21
ENDBRANCH  16  20
ENDBRANCH  11  12
BRANCH  10  36
ATOM     36  O   UNL     1       8.885  -2.840  25.408  0.00  0.00    -0.506 OA
ATOM     37  H   UNL     1       9.748  -2.755  24.944  0.00  0.00    +0.292 HD
ENDBRANCH  10  36
BRANCH   7  38
ATOM     38  O   UNL     1       8.499   1.366  23.263  0.00  0.00    -0.461 OA
BRANCH  38  39
ATOM     39  C   UNL     1       9.494   2.134  23.985  0.00  0.00    +0.339 C 
ATOM     40  O   UNL     1       8.972   2.591  25.236  0.00  0.00    -0.331 OA
ATOM     41  C   UNL     1       7.913   3.553  25.074  0.00  0.00    +0.179 C 
ATOM     42  C   UNL     1       8.416   4.840  24.386  0.00  0.00    +0.177 C 
ATOM     43  C   UNL     1       9.077   4.502  23.037  0.00  0.00    +0.180 C 
ATOM     44  C   UNL     1      10.072   3.339  23.194  0.00  0.00    +0.214 C 
BRANCH  44  45
ATOM     45  O   UNL     1      10.612   2.946  21.927  0.00  0.00    -0.383 OA
ATOM     46  H   UNL     1      11.496   2.576  22.114  0.00  0.00    +0.210 HD
ENDBRANCH  44  45
BRANCH  43  47
ATOM     47  O   UNL     1       8.129   4.191  22.007  0.00  0.00    -0.386 OA
ATOM     48  H   UNL     1       8.575   4.122  21.145  0.00  0.00    +0.210 HD
ENDBRANCH  43  47
BRANCH  42  49
ATOM     49  O   UNL     1       9.354   5.510  25.233  0.00  0.00    -0.386 OA
ATOM     50  H   UNL     1       9.369   5.061  26.098  0.00  0.00    +0.210 HD
ENDBRANCH  42  49
BRANCH  41  51
ATOM     51  C   UNL     1       7.328   3.841  26.464  0.00  0.00    +0.190 C 
BRANCH  51  52
ATOM     52  O   UNL     1       6.930   5.210  26.596  0.00  0.00    -0.392 OA
ATOM     53  H   UNL     1       6.171   5.254  27.201  0.00  0.00    +0.210 HD
ENDBRANCH  51  52
ENDBRANCH  41  51
ENDBRANCH  38  39
ENDBRANCH   7  38
BRANCH   1  54
ATOM     54  O   UNL     1       4.489  -3.113  28.288  0.00  0.00    -0.453 OA
BRANCH  54  57
ATOM     55  C   UNL     1       2.250  -5.983  29.255  0.00  0.00    +0.179 C 
ATOM     56  O   UNL     1       2.763  -4.635  29.049  0.00  0.00    -0.331 OA
ATOM     57  C   UNL     1       3.895  -4.453  28.166  0.00  0.00    +0.340 C 
ATOM     58  C   UNL     1       5.025  -5.460  28.531  0.00  0.00    +0.214 C 
ATOM     59  C   UNL     1       4.477  -6.889  28.490  0.00  0.00    +0.180 C 
ATOM     60  C   UNL     1       3.372  -7.021  29.548  0.00  0.00    +0.177 C 
BRANCH  60  61
ATOM     61  O   UNL     1       2.886  -8.368  29.578  0.00  0.00    -0.386 OA
ATOM     62  H   UNL     1       2.575  -8.603  28.686  0.00  0.00    +0.210 HD
ENDBRANCH  60  61
BRANCH  59  63
ATOM     63  O   UNL     1       5.539  -7.826  28.726  0.00  0.00    -0.386 OA
ATOM     64  H   UNL     1       5.410  -8.173  29.628  0.00  0.00    +0.210 HD
ENDBRANCH  59  63
BRANCH  58  65
ATOM     65  O   UNL     1       5.576  -5.242  29.852  0.00  0.00    -0.383 OA
ATOM     66  H   UNL     1       5.133  -5.858  30.469  0.00  0.00    +0.210 HD
ENDBRANCH  58  65
BRANCH  55  67
ATOM     67  C   UNL     1       1.265  -6.515  28.167  0.00  0.00    +0.197 C 
BRANCH  67  68
ATOM     68  O   UNL     1       1.874  -7.170  27.063  0.00  0.00    -0.346 OA
BRANCH  68  72
ATOM     69  C   UNL     1       0.445  -4.591  23.986  0.00  0.00    +0.041 C 
ATOM     70  C   UNL     1       0.770  -6.066  23.804  0.00  0.00    +0.149 C 
ATOM     71  O   UNL     1       0.894  -6.729  25.061  0.00  0.00    -0.343 OA
ATOM     72  C   UNL     1       2.100  -6.491  25.830  0.00  0.00    +0.282 C 
ATOM     73  C   UNL     1       3.323  -6.920  24.969  0.00  0.00    +0.201 C 
ATOM     74  C   UNL     1       3.291  -6.109  23.649  0.00  0.00    +0.179 C 
ATOM     75  C   UNL     1       1.978  -6.295  22.899  0.00  0.00    +0.174 C 
BRANCH  75  76
ATOM     76  O   UNL     1       1.978  -7.630  22.355  0.00  0.00    -0.387 OA
ATOM     77  H   UNL     1       1.667  -7.546  21.427  0.00  0.00    +0.210 HD
ENDBRANCH  75  76
BRANCH  74  78
ATOM     78  O   UNL     1       4.351  -6.504  22.749  0.00  0.00    -0.386 OA
ATOM     79  H   UNL     1       5.146  -6.007  23.046  0.00  0.00    +0.210 HD
ENDBRANCH  74  78
BRANCH  73  80
ATOM     80  O   UNL     1       3.279  -8.331  24.672  0.00  0.00    -0.384 OA
ATOM     81  H   UNL     1       2.482  -8.675  25.115  0.00  0.00    +0.210 HD
ENDBRANCH  73  80
ENDBRANCH  68  72
ENDBRANCH  67  68
ENDBRANCH  55  67
ENDBRANCH  54  57
ENDBRANCH   1  54
TORSDOF 28
ENDMDL
MODEL 8
REMARK VINA RESULT:      -5.0      1.951      8.160
REMARK  Name = 
REMARK  29 active torsions:
REMARK  status: ('A' for Active; 'I' for Inactive)
REMARK    1  A    between atoms: C_1  and  C_2
REMARK    2  A    between atoms: C_3  and  O_76
REMARK    3  A    between atoms: C_5  and  O_75
REMARK    4  A    between atoms: C_7  and  O_74
REMARK    5  A    between atoms: C_8  and  O_11
REMARK    6  A    between atoms: O_11  and  C_12
REMARK    7  A    between atoms: C_12  and  C_13
REMARK    8  A    between atoms: C_14  and  O_73
REMARK    9  A    between atoms: C_16  and  O_72
REMARK   10  A    between atoms: C_17  and  O_71
REMARK   11  A    between atoms: C_18  and  O_21
REMARK   12  A    between atoms: O_21  and  C_22
REMARK   13  A    between atoms: C_23  and  C_49
REMARK   14  A    between atoms: C_27  and  O_34
REMARK   15  A    between atoms: C_29  and  O_33
REMARK   16  A    between atoms: O_34  and  C_35
REMARK   17  A    between atoms: C_37  and  O_48
REMARK   18  A    between atoms: C_38  and  O_47
REMARK   19  A    between atoms: C_40  and  O_46
REMARK   20  A    between atoms: C_42  and  C_44
REMARK   21  A    between atoms: C_44  and  O_45
REMARK   22  A    between atoms: C_51  and  O_56
REMARK   23  A    between atoms: C_52  and  O_55
REMARK   24  A    between atoms: O_56  and  C_57
REMARK   25  A    between atoms: C_59  and  O_70
REMARK   26  A    between atoms: C_60  and  O_69
REMARK   27  A    between atoms: C_62  and  O_68
REMARK   28  A    between atoms: C_64  and  C_66
REMARK   29  A    between atoms: C_66  and  O_67
REMARK                            x       y       z     vdW  Elec       q    Type
REMARK                         _______ _______ _______ _____ _____    ______ ____
ROOT
ATOM      1  C   UNL     1       4.724   1.588  25.245  0.00  0.00    +0.214 A 
ATOM      2  C   UNL     1       6.052   1.728  24.536  0.00  0.00    +0.238 A 
ATOM      3  O   UNL     1       6.408   2.779  24.007  0.00  0.00    -0.283 OA
ATOM      4  C   UNL     1       6.973   0.554  24.550  0.00  0.00    +0.109 A 
ATOM      5  C   UNL     1       6.873  -0.246  25.667  0.00  0.00    +0.147 A 
ATOM      6  C   UNL     1       7.664  -1.399  25.870  0.00  0.00    +0.093 A 
ATOM      7  C   UNL     1       8.635  -1.755  24.939  0.00  0.00    +0.131 A 
ATOM      8  C   UNL     1       8.781  -0.924  23.816  0.00  0.00    +0.092 A 
ATOM      9  O   UNL     1       5.988   0.105  26.641  0.00  0.00    -0.451 OA
ATOM     10  C   UNL     1       7.939   0.194  23.620  0.00  0.00    +0.135 A 
ATOM     11  C   UNL     1       4.756   0.650  26.236  0.00  0.00    +0.181 A 
ENDROOT
BRANCH  11  12
ATOM     12  C   UNL     1       3.704   0.024  27.111  0.00  0.00    +0.025 A 
ATOM     13  C   UNL     1       2.771   0.923  27.696  0.00  0.00    +0.015 A 
ATOM     14  C   UNL     1       1.801   0.544  28.607  0.00  0.00    +0.050 A 
ATOM     15  C   UNL     1       1.613  -0.801  28.839  0.00  0.00    +0.159 A 
ATOM     16  C   UNL     1       2.450  -1.755  28.229  0.00  0.00    +0.166 A 
ATOM     17  C   UNL     1       3.544  -1.327  27.430  0.00  0.00    +0.061 A 
BRANCH  15  18
ATOM     18  O   UNL     1       0.565  -1.176  29.639  0.00  0.00    -0.503 OA
ATOM     19  H   UNL     1       0.633  -2.129  29.824  0.00  0.00    +0.292 HD
ENDBRANCH  15  18
BRANCH  16  20
ATOM     20  O   UNL     1       2.057  -3.066  28.398  0.00  0.00    -0.457 OA
BRANCH  20  21
ATOM     21  C   UNL     1       3.024  -4.081  28.109  0.00  0.00    +0.339 C 
ATOM     22  O   UNL     1       2.929  -4.567  26.761  0.00  0.00    -0.331 OA
ATOM     23  C   UNL     1       1.747  -5.335  26.467  0.00  0.00    +0.179 C 
ATOM     24  C   UNL     1       1.614  -6.552  27.405  0.00  0.00    +0.177 C 
ATOM     25  C   UNL     1       1.649  -6.095  28.865  0.00  0.00    +0.180 C 
ATOM     26  C   UNL     1       2.903  -5.246  29.118  0.00  0.00    +0.214 C 
BRANCH  26  27
ATOM     27  O   UNL     1       2.961  -4.820  30.484  0.00  0.00    -0.383 OA
ATOM     28  H   UNL     1       2.087  -4.995  30.881  0.00  0.00    +0.210 HD
ENDBRANCH  26  27
BRANCH  25  29
ATOM     29  O   UNL     1       0.443  -5.415  29.232  0.00  0.00    -0.386 OA
ATOM     30  H   UNL     1      -0.321  -5.849  28.802  0.00  0.00    +0.210 HD
ENDBRANCH  25  29
BRANCH  24  31
ATOM     31  O   UNL     1       2.692  -7.467  27.167  0.00  0.00    -0.386 OA
ATOM     32  H   UNL     1       2.477  -8.003  26.383  0.00  0.00    +0.210 HD
ENDBRANCH  24  31
BRANCH  23  33
ATOM     33  C   UNL     1       1.827  -5.792  24.998  0.00  0.00    +0.190 C 
BRANCH  33  34
ATOM     34  O   UNL     1       3.152  -6.169  24.615  0.00  0.00    -0.392 OA
ATOM     35  H   UNL     1       3.193  -7.138  24.559  0.00  0.00    +0.210 HD
ENDBRANCH  33  34
ENDBRANCH  23  33
ENDBRANCH  20  21
ENDBRANCH  16  20
ENDBRANCH  11  12
BRANCH  10  36
ATOM     36  O   UNL     1       7.993   0.824  22.416  0.00  0.00    -0.506 OA
ATOM     37  H   UNL     1       7.597   1.721  22.492  0.00  0.00    +0.292 HD
ENDBRANCH  10  36
BRANCH   7  38
ATOM     38  O   UNL     1       9.452  -2.867  25.003  0.00  0.00    -0.461 OA
BRANCH  38  39
ATOM     39  C   UNL     1       9.065  -4.015  24.208  0.00  0.00    +0.339 C 
ATOM     40  O   UNL     1       7.809  -3.786  23.563  0.00  0.00    -0.331 OA
ATOM     41  C   UNL     1       6.718  -3.690  24.497  0.00  0.00    +0.179 C 
ATOM     42  C   UNL     1       6.509  -5.014  25.264  0.00  0.00    +0.177 C 
ATOM     43  C   UNL     1       7.812  -5.437  25.966  0.00  0.00    +0.180 C 
ATOM     44  C   UNL     1       9.005  -5.351  24.998  0.00  0.00    +0.214 C 
BRANCH  44  45
ATOM     45  O   UNL     1      10.237  -5.639  25.668  0.00  0.00    -0.383 OA
ATOM     46  H   UNL     1      10.514  -6.521  25.356  0.00  0.00    +0.210 HD
ENDBRANCH  44  45
BRANCH  43  47
ATOM     47  O   UNL     1       8.092  -4.671  27.145  0.00  0.00    -0.386 OA
ATOM     48  H   UNL     1       8.089  -3.720  26.941  0.00  0.00    +0.210 HD
ENDBRANCH  43  47
BRANCH  42  49
ATOM     49  O   UNL     1       6.088  -6.038  24.358  0.00  0.00    -0.386 OA
ATOM     50  H   UNL     1       5.789  -6.808  24.875  0.00  0.00    +0.210 HD
ENDBRANCH  42  49
BRANCH  41  51
ATOM     51  C   UNL     1       5.464  -3.282  23.711  0.00  0.00    +0.190 C 
BRANCH  51  52
ATOM     52  O   UNL     1       4.282  -3.379  24.513  0.00  0.00    -0.392 OA
ATOM     53  H   UNL     1       3.866  -4.240  24.347  0.00  0.00    +0.210 HD
ENDBRANCH  51  52
ENDBRANCH  41  51
ENDBRANCH  38  39
ENDBRANCH   7  38
BRANCH   1  54
ATOM     54  O   UNL     1       3.606   2.349  24.888  0.00  0.00    -0.453 OA
BRANCH  54  57
ATOM     55  C   UNL     1       2.766   5.929  24.074  0.00  0.00    +0.179 C 
ATOM     56  O   UNL     1       2.987   4.692  24.809  0.00  0.00    -0.331 OA
ATOM     57  C   UNL     1       3.721   3.625  24.164  0.00  0.00    +0.340 C 
ATOM     58  C   UNL     1       3.145   3.364  22.741  0.00  0.00    +0.214 C 
ATOM     59  C   UNL     1       3.168   4.662  21.929  0.00  0.00    +0.180 C 
ATOM     60  C   UNL     1       2.261   5.690  22.621  0.00  0.00    +0.177 C 
BRANCH  60  61
ATOM     61  O   UNL     1       2.210   6.894  21.847  0.00  0.00    -0.386 OA
ATOM     62  H   UNL     1       3.113   7.249  21.771  0.00  0.00    +0.210 HD
ENDBRANCH  60  61
BRANCH  59  63
ATOM     63  O   UNL     1       2.733   4.406  20.585  0.00  0.00    -0.386 OA
ATOM     64  H   UNL     1       3.387   3.803  20.188  0.00  0.00    +0.210 HD
ENDBRANCH  59  63
BRANCH  58  65
ATOM     65  O   UNL     1       1.779   2.886  22.759  0.00  0.00    -0.383 OA
ATOM     66  H   UNL     1       1.446   2.888  21.839  0.00  0.00    +0.210 HD
ENDBRANCH  58  65
BRANCH  55  67
ATOM     67  C   UNL     1       3.939   6.958  24.096  0.00  0.00    +0.197 C 
BRANCH  67  68
ATOM     68  O   UNL     1       5.151   6.513  23.502  0.00  0.00    -0.346 OA
BRANCH  68  72
ATOM     69  C   UNL     1       9.413   6.525  23.451  0.00  0.00    +0.041 C 
ATOM     70  C   UNL     1       8.552   5.406  24.019  0.00  0.00    +0.149 C 
ATOM     71  O   UNL     1       7.196   5.527  23.592  0.00  0.00    -0.343 OA
ATOM     72  C   UNL     1       6.386   6.555  24.214  0.00  0.00    +0.282 C 
ATOM     73  C   UNL     1       6.356   6.295  25.748  0.00  0.00    +0.201 C 
ATOM     74  C   UNL     1       7.817   6.297  26.265  0.00  0.00    +0.179 C 
ATOM     75  C   UNL     1       8.681   5.276  25.534  0.00  0.00    +0.174 C 
BRANCH  75  76
ATOM     76  O   UNL     1       8.274   3.968  25.984  0.00  0.00    -0.387 OA
ATOM     77  H   UNL     1       7.820   3.547  25.221  0.00  0.00    +0.210 HD
ENDBRANCH  75  76
BRANCH  74  78
ATOM     78  O   UNL     1       7.890   5.980  27.674  0.00  0.00    -0.386 OA
ATOM     79  H   UNL     1       8.753   5.523  27.796  0.00  0.00    +0.210 HD
ENDBRANCH  74  78
BRANCH  73  80
ATOM     80  O   UNL     1       5.738   5.026  26.047  0.00  0.00    -0.384 OA
ATOM     81  H   UNL     1       6.381   4.344  25.780  0.00  0.00    +0.210 HD
ENDBRANCH  73  80
ENDBRANCH  68  72
ENDBRANCH  67  68
ENDBRANCH  55  67
ENDBRANCH  54  57
ENDBRANCH   1  54
TORSDOF 28
ENDMDL
MODEL 9
REMARK VINA RESULT:      -4.9      2.342      9.320
REMARK  Name = 
REMARK  29 active torsions:
REMARK  status: ('A' for Active; 'I' for Inactive)
REMARK    1  A    between atoms: C_1  and  C_2
REMARK    2  A    between atoms: C_3  and  O_76
REMARK    3  A    between atoms: C_5  and  O_75
REMARK    4  A    between atoms: C_7  and  O_74
REMARK    5  A    between atoms: C_8  and  O_11
REMARK    6  A    between atoms: O_11  and  C_12
REMARK    7  A    between atoms: C_12  and  C_13
REMARK    8  A    between atoms: C_14  and  O_73
REMARK    9  A    between atoms: C_16  and  O_72
REMARK   10  A    between atoms: C_17  and  O_71
REMARK   11  A    between atoms: C_18  and  O_21
REMARK   12  A    between atoms: O_21  and  C_22
REMARK   13  A    between atoms: C_23  and  C_49
REMARK   14  A    between atoms: C_27  and  O_34
REMARK   15  A    between atoms: C_29  and  O_33
REMARK   16  A    between atoms: O_34  and  C_35
REMARK   17  A    between atoms: C_37  and  O_48
REMARK   18  A    between atoms: C_38  and  O_47
REMARK   19  A    between atoms: C_40  and  O_46
REMARK   20  A    between atoms: C_42  and  C_44
REMARK   21  A    between atoms: C_44  and  O_45
REMARK   22  A    between atoms: C_51  and  O_56
REMARK   23  A    between atoms: C_52  and  O_55
REMARK   24  A    between atoms: O_56  and  C_57
REMARK   25  A    between atoms: C_59  and  O_70
REMARK   26  A    between atoms: C_60  and  O_69
REMARK   27  A    between atoms: C_62  and  O_68
REMARK   28  A    between atoms: C_64  and  C_66
REMARK   29  A    between atoms: C_66  and  O_67
REMARK                            x       y       z     vdW  Elec       q    Type
REMARK                         _______ _______ _______ _____ _____    ______ ____
ROOT
ATOM      1  C   UNL     1       4.035  -1.291  28.231  0.00  0.00    +0.214 A 
ATOM      2  C   UNL     1       4.018  -0.311  29.382  0.00  0.00    +0.238 A 
ATOM      3  O   UNL     1       3.458  -0.557  30.449  0.00  0.00    -0.283 OA
ATOM      4  C   UNL     1       4.771   0.967  29.216  0.00  0.00    +0.109 A 
ATOM      5  C   UNL     1       5.879   0.883  28.402  0.00  0.00    +0.147 A 
ATOM      6  C   UNL     1       6.726   1.981  28.127  0.00  0.00    +0.093 A 
ATOM      7  C   UNL     1       6.487   3.216  28.722  0.00  0.00    +0.131 A 
ATOM      8  C   UNL     1       5.387   3.306  29.592  0.00  0.00    +0.092 A 
ATOM      9  O   UNL     1       6.195  -0.324  27.857  0.00  0.00    -0.451 OA
ATOM     10  C   UNL     1       4.532   2.201  29.805  0.00  0.00    +0.135 A 
ATOM     11  C   UNL     1       5.135  -1.147  27.436  0.00  0.00    +0.181 A 
ENDROOT
BRANCH  11  12
ATOM     12  C   UNL     1       5.550  -1.736  26.115  0.00  0.00    +0.025 A 
ATOM     13  C   UNL     1       4.564  -2.516  25.450  0.00  0.00    +0.015 A 
ATOM     14  C   UNL     1       4.797  -3.219  24.281  0.00  0.00    +0.050 A 
ATOM     15  C   UNL     1       5.994  -3.024  23.629  0.00  0.00    +0.159 A 
ATOM     16  C   UNL     1       6.987  -2.197  24.190  0.00  0.00    +0.166 A 
ATOM     17  C   UNL     1       6.785  -1.622  25.473  0.00  0.00    +0.061 A 
BRANCH  15  18
ATOM     18  O   UNL     1       6.165  -3.617  22.406  0.00  0.00    -0.503 OA
ATOM     19  H   UNL     1       6.685  -3.024  21.834  0.00  0.00    +0.292 HD
ENDBRANCH  15  18
BRANCH  16  20
ATOM     20  O   UNL     1       8.064  -1.941  23.367  0.00  0.00    -0.457 OA
BRANCH  20  21
ATOM     21  C   UNL     1       8.883  -0.814  23.694  0.00  0.00    +0.339 C 
ATOM     22  O   UNL     1       8.170   0.430  23.616  0.00  0.00    -0.331 OA
ATOM     23  C   UNL     1       7.794   0.840  22.288  0.00  0.00    +0.179 C 
ATOM     24  C   UNL     1       9.023   0.956  21.363  0.00  0.00    +0.177 C 
ATOM     25  C   UNL     1       9.800  -0.362  21.354  0.00  0.00    +0.180 C 
ATOM     26  C   UNL     1      10.139  -0.780  22.792  0.00  0.00    +0.214 C 
BRANCH  26  27
ATOM     27  O   UNL     1      10.879  -2.005  22.805  0.00  0.00    -0.383 OA
ATOM     28  H   UNL     1      11.339  -2.075  21.947  0.00  0.00    +0.210 HD
ENDBRANCH  26  27
BRANCH  25  29
ATOM     29  O   UNL     1       9.094  -1.382  20.639  0.00  0.00    -0.386 OA
ATOM     30  H   UNL     1       9.453  -2.260  20.880  0.00  0.00    +0.210 HD
ENDBRANCH  25  29
BRANCH  24  31
ATOM     31  O   UNL     1       9.879   2.010  21.824  0.00  0.00    -0.386 OA
ATOM     32  H   UNL     1       9.878   2.724  21.162  0.00  0.00    +0.210 HD
ENDBRANCH  24  31
BRANCH  23  33
ATOM     33  C   UNL     1       7.069   2.195  22.394  0.00  0.00    +0.190 C 
BRANCH  33  34
ATOM     34  O   UNL     1       7.735   3.105  23.274  0.00  0.00    -0.392 OA
ATOM     35  H   UNL     1       7.415   2.948  24.178  0.00  0.00    +0.210 HD
ENDBRANCH  33  34
ENDBRANCH  23  33
ENDBRANCH  20  21
ENDBRANCH  16  20
ENDBRANCH  11  12
BRANCH  10  36
ATOM     36  O   UNL     1       3.374   2.419  30.484  0.00  0.00    -0.506 OA
ATOM     37  H   UNL     1       3.232   3.386  30.599  0.00  0.00    +0.292 HD
ENDBRANCH  10  36
BRANCH   7  38
ATOM     38  O   UNL     1       7.217   4.370  28.518  0.00  0.00    -0.461 OA
BRANCH  38  39
ATOM     39  C   UNL     1       6.475   5.563  28.162  0.00  0.00    +0.339 C 
ATOM     40  O   UNL     1       5.472   5.266  27.187  0.00  0.00    -0.331 OA
ATOM     41  C   UNL     1       6.032   4.874  25.920  0.00  0.00    +0.179 C 
ATOM     42  C   UNL     1       6.846   6.020  25.281  0.00  0.00    +0.177 C 
ATOM     43  C   UNL     1       7.939   6.505  26.251  0.00  0.00    +0.180 C 
ATOM     44  C   UNL     1       7.356   6.738  27.656  0.00  0.00    +0.214 C 
BRANCH  44  45
ATOM     45  O   UNL     1       8.383   7.086  28.591  0.00  0.00    -0.383 OA
ATOM     46  H   UNL     1       9.201   7.187  28.068  0.00  0.00    +0.210 HD
ENDBRANCH  44  45
BRANCH  43  47
ATOM     47  O   UNL     1       9.056   5.611  26.334  0.00  0.00    -0.386 OA
ATOM     48  H   UNL     1       8.797   4.717  26.054  0.00  0.00    +0.210 HD
ENDBRANCH  43  47
BRANCH  42  49
ATOM     49  O   UNL     1       5.976   7.105  24.945  0.00  0.00    -0.386 OA
ATOM     50  H   UNL     1       5.058   6.842  25.142  0.00  0.00    +0.210 HD
ENDBRANCH  42  49
BRANCH  41  51
ATOM     51  C   UNL     1       4.875   4.424  25.017  0.00  0.00    +0.190 C 
BRANCH  51  52
ATOM     52  O   UNL     1       5.124   4.738  23.643  0.00  0.00    -0.392 OA
ATOM     53  H   UNL     1       6.061   4.567  23.452  0.00  0.00    +0.210 HD
ENDBRANCH  51  52
ENDBRANCH  41  51
ENDBRANCH  38  39
ENDBRANCH   7  38
BRANCH   1  54
ATOM     54  O   UNL     1       3.011  -2.222  28.032  0.00  0.00    -0.453 OA
BRANCH  54  57
ATOM     55  C   UNL     1       2.235  -5.686  29.292  0.00  0.00    +0.179 C 
ATOM     56  O   UNL     1       2.078  -4.323  28.802  0.00  0.00    -0.331 OA
ATOM     57  C   UNL     1       3.218  -3.670  28.199  0.00  0.00    +0.340 C 
ATOM     58  C   UNL     1       4.469  -3.821  29.114  0.00  0.00    +0.214 C 
ATOM     59  C   UNL     1       4.727  -5.305  29.394  0.00  0.00    +0.180 C 
ATOM     60  C   UNL     1       3.519  -5.878  30.150  0.00  0.00    +0.177 C 
BRANCH  60  61
ATOM     61  O   UNL     1       3.762  -7.250  30.485  0.00  0.00    -0.386 OA
ATOM     62  H   UNL     1       3.456  -7.805  29.746  0.00  0.00    +0.210 HD
ENDBRANCH  60  61
BRANCH  59  63
ATOM     63  O   UNL     1       5.935  -5.456  30.154  0.00  0.00    -0.386 OA
ATOM     64  H   UNL     1       5.672  -5.518  31.090  0.00  0.00    +0.210 HD
ENDBRANCH  59  63
BRANCH  58  65
ATOM     65  O   UNL     1       4.322  -3.156  30.392  0.00  0.00    -0.383 OA
ATOM     66  H   UNL     1       3.518  -2.602  30.353  0.00  0.00    +0.210 HD
ENDBRANCH  58  65
BRANCH  55  67
ATOM     67  C   UNL     1       2.098  -6.817  28.227  0.00  0.00    +0.197 C 
BRANCH  67  68
ATOM     68  O   UNL     1       0.846  -6.876  27.558  0.00  0.00    -0.346 OA
BRANCH  68  72
ATOM     69  C   UNL     1       0.443  -9.991  24.677  0.00  0.00    +0.041 C 
ATOM     70  C   UNL     1       1.679  -9.121  24.851  0.00  0.00    +0.149 C 
ATOM     71  O   UNL     1       1.646  -8.415  26.091  0.00  0.00    -0.343 OA
ATOM     72  C   UNL     1       0.752  -7.279  26.193  0.00  0.00    +0.282 C 
ATOM     73  C   UNL     1       1.143  -6.248  25.096  0.00  0.00    +0.201 C 
ATOM     74  C   UNL     1       1.051  -6.953  23.718  0.00  0.00    +0.179 C 
ATOM     75  C   UNL     1       1.924  -8.200  23.659  0.00  0.00    +0.174 C 
BRANCH  75  76
ATOM     76  O   UNL     1       3.297  -7.763  23.609  0.00  0.00    -0.387 OA
ATOM     77  H   UNL     1       3.641  -8.046  22.734  0.00  0.00    +0.210 HD
ENDBRANCH  75  76
BRANCH  74  78
ATOM     78  O   UNL     1       1.478  -6.087  22.641  0.00  0.00    -0.386 OA
ATOM     79  H   UNL     1       2.235  -5.573  23.003  0.00  0.00    +0.210 HD
ENDBRANCH  74  78
BRANCH  73  80
ATOM     80  O   UNL     1       2.483  -5.755  25.300  0.00  0.00    -0.384 OA
ATOM     81  H   UNL     1       3.011  -6.522  25.587  0.00  0.00    +0.210 HD
ENDBRANCH  73  80
ENDBRANCH  68  72
ENDBRANCH  67  68
ENDBRANCH  55  67
ENDBRANCH  54  57
ENDBRANCH   1  54
TORSDOF 28
ENDMDL
