MODEL 1
REMARK VINA RESULT:      -6.4      0.000      0.000
REMARK  Name = 
REMARK  23 active torsions:
REMARK  status: ('A' for Active; 'I' for Inactive)
REMARK    1  A    between atoms: C_1  and  C_2
REMARK    2  A    between atoms: C_4  and  O_69
REMARK    3  A    between atoms: C_6  and  O_68
REMARK    4  A    between atoms: C_8  and  O_67
REMARK    5  A    between atoms: C_10  and  O_13
REMARK    6  A    between atoms: O_13  and  C_14
REMARK    7  A    between atoms: C_16  and  O_66
REMARK    8  A    between atoms: C_21  and  C_58
REMARK    9  A    between atoms: C_22  and  O_25
REMARK   10  A    between atoms: O_25  and  C_26
REMARK   11  A    between atoms: C_28  and  O_41
REMARK   12  A    between atoms: C_30  and  O_40
REMARK   13  A    between atoms: C_32  and  O_39
REMARK   14  A    between atoms: C_34  and  C_37
REMARK   15  A    between atoms: C_37  and  O_38
REMARK   16  A    between atoms: O_41  and  C_42
REMARK   17  A    between atoms: C_44  and  O_57
REMARK   18  A    between atoms: C_46  and  O_56
REMARK   19  A    between atoms: C_48  and  O_55
REMARK   20  A    between atoms: C_50  and  C_53
REMARK   21  A    between atoms: C_53  and  O_54
REMARK   22  A    between atoms: C_60  and  O_65
REMARK   23  A    between atoms: C_61  and  O_64
REMARK                            x       y       z     vdW  Elec       q    Type
REMARK                         _______ _______ _______ _____ _____    ______ ____
ROOT
ATOM      1  C   UNL     1       3.615  -4.669  24.333  0.00  0.00    +0.131 A 
ATOM      2  C   UNL     1       4.011  -3.704  25.261  0.00  0.00    +0.093 A 
ATOM      3  C   UNL     1       4.964  -2.719  24.926  0.00  0.00    +0.147 A 
ATOM      4  O   UNL     1       5.332  -1.799  25.874  0.00  0.00    -0.451 OA
ATOM      5  C   UNL     1       6.125  -0.688  25.519  0.00  0.00    +0.181 A 
ATOM      6  C   UNL     1       6.708  -0.556  24.297  0.00  0.00    +0.214 A 
ATOM      7  C   UNL     1       6.634  -1.772  23.427  0.00  0.00    +0.238 A 
ATOM      8  O   UNL     1       7.509  -2.002  22.598  0.00  0.00    -0.283 OA
ATOM      9  C   UNL     1       5.534  -2.715  23.667  0.00  0.00    +0.109 A 
ATOM     10  C   UNL     1       5.116  -3.636  22.714  0.00  0.00    +0.135 A 
ATOM     11  C   UNL     1       4.181  -4.623  23.044  0.00  0.00    +0.092 A 
ENDROOT
BRANCH   5  12
ATOM     12  C   UNL     1       6.284   0.237  26.688  0.00  0.00    +0.025 A 
ATOM     13  C   UNL     1       5.317   1.261  26.867  0.00  0.00    +0.015 A 
ATOM     14  C   UNL     1       5.391   2.187  27.912  0.00  0.00    +0.050 A 
ATOM     15  C   UNL     1       6.430   2.091  28.815  0.00  0.00    +0.158 A 
ATOM     16  C   UNL     1       7.385   1.088  28.678  0.00  0.00    +0.159 A 
ATOM     17  C   UNL     1       7.333   0.174  27.619  0.00  0.00    +0.060 A 
BRANCH  16  18
ATOM     18  O   UNL     1       8.373   1.038  29.629  0.00  0.00    -0.503 OA
ATOM     19  H   UNL     1       9.227   0.888  29.184  0.00  0.00    +0.292 HD
ENDBRANCH  16  18
BRANCH  15  20
ATOM     20  O   UNL     1       6.498   2.982  29.847  0.00  0.00    -0.503 OA
ATOM     21  H   UNL     1       6.534   2.428  30.652  0.00  0.00    +0.292 HD
ENDBRANCH  15  20
ENDBRANCH   5  12
BRANCH  10  22
ATOM     22  O   UNL     1       5.572  -3.561  21.430  0.00  0.00    -0.506 OA
ATOM     23  H   UNL     1       6.511  -3.309  21.411  0.00  0.00    +0.292 HD
ENDBRANCH  10  22
BRANCH   6  24
ATOM     24  O   UNL     1       7.497   0.526  23.881  0.00  0.00    -0.453 OA
BRANCH  24  25
ATOM     25  C   UNL     1       6.874   1.432  22.916  0.00  0.00    +0.340 C 
ATOM     26  O   UNL     1       7.748   1.914  21.900  0.00  0.00    -0.331 OA
ATOM     27  C   UNL     1       8.690   2.934  22.206  0.00  0.00    +0.179 C 
ATOM     28  C   UNL     1       8.119   4.125  22.998  0.00  0.00    +0.177 C 
ATOM     29  C   UNL     1       7.024   3.754  24.013  0.00  0.00    +0.180 C 
ATOM     30  C   UNL     1       6.116   2.559  23.648  0.00  0.00    +0.221 C 
BRANCH  29  31
ATOM     31  O   UNL     1       7.634   3.460  25.292  0.00  0.00    -0.386 OA
ATOM     32  H   UNL     1       8.609   3.509  25.182  0.00  0.00    +0.210 HD
ENDBRANCH  29  31
BRANCH  28  33
ATOM     33  O   UNL     1       7.587   5.127  22.120  0.00  0.00    -0.386 OA
ATOM     34  H   UNL     1       7.422   5.947  22.617  0.00  0.00    +0.210 HD
ENDBRANCH  28  33
BRANCH  30  35
ATOM     35  O   UNL     1       4.895   2.969  22.967  0.00  0.00    -0.337 OA
BRANCH  35  36
ATOM     36  C   UNL     1       4.081   3.967  23.653  0.00  0.00    +0.282 C 
ATOM     37  O   UNL     1       2.810   3.358  23.918  0.00  0.00    -0.341 OA
ATOM     38  C   UNL     1       1.556   3.987  23.567  0.00  0.00    +0.178 C 
ATOM     39  C   UNL     1       1.564   5.103  22.505  0.00  0.00    +0.177 C 
ATOM     40  C   UNL     1       2.914   5.183  21.805  0.00  0.00    +0.179 C 
ATOM     41  C   UNL     1       4.013   5.289  22.856  0.00  0.00    +0.201 C 
BRANCH  41  42
ATOM     42  O   UNL     1       3.819   6.423  23.712  0.00  0.00    -0.384 OA
ATOM     43  H   UNL     1       4.523   7.069  23.519  0.00  0.00    +0.210 HD
ENDBRANCH  41  42
BRANCH  40  44
ATOM     44  O   UNL     1       3.112   4.064  20.930  0.00  0.00    -0.386 OA
ATOM     45  H   UNL     1       3.595   3.356  21.402  0.00  0.00    +0.210 HD
ENDBRANCH  40  44
BRANCH  39  46
ATOM     46  O   UNL     1       1.200   6.347  23.127  0.00  0.00    -0.386 OA
ATOM     47  H   UNL     1       0.591   6.161  23.868  0.00  0.00    +0.210 HD
ENDBRANCH  39  46
BRANCH  38  48
ATOM     48  C   UNL     1       0.673   2.828  23.058  0.00  0.00    +0.190 C 
BRANCH  48  49
ATOM     49  O   UNL     1       1.304   2.153  21.969  0.00  0.00    -0.392 OA
ATOM     50  H   UNL     1       2.260   2.324  22.060  0.00  0.00    +0.210 HD
ENDBRANCH  48  49
ENDBRANCH  38  48
ENDBRANCH  35  36
ENDBRANCH  30  35
BRANCH  27  51
ATOM     51  C   UNL     1       9.952   2.348  22.846  0.00  0.00    +0.190 C 
BRANCH  51  52
ATOM     52  O   UNL     1       9.806   2.257  24.259  0.00  0.00    -0.392 OA
ATOM     53  H   UNL     1       9.406   1.374  24.414  0.00  0.00    +0.210 HD
ENDBRANCH  51  52
ENDBRANCH  27  51
ENDBRANCH  24  25
ENDBRANCH   6  24
BRANCH   1  54
ATOM     54  O   UNL     1       2.688  -5.599  24.739  0.00  0.00    -0.461 OA
BRANCH  54  58
ATOM     55  C   UNL     1       0.443  -5.338  26.835  0.00  0.00    +0.041 C 
ATOM     56  C   UNL     1       1.284  -6.527  27.293  0.00  0.00    +0.150 C 
ATOM     57  O   UNL     1       2.687  -6.354  27.017  0.00  0.00    -0.334 OA
ATOM     58  C   UNL     1       3.116  -6.619  25.673  0.00  0.00    +0.339 C 
ATOM     59  C   UNL     1       2.677  -8.022  25.206  0.00  0.00    +0.214 C 
ATOM     60  C   UNL     1       1.169  -8.215  25.368  0.00  0.00    +0.180 C 
ATOM     61  C   UNL     1       0.757  -7.894  26.812  0.00  0.00    +0.174 C 
BRANCH  61  62
ATOM     62  O   UNL     1       1.284  -8.919  27.675  0.00  0.00    -0.387 OA
ATOM     63  H   UNL     1       2.039  -8.553  28.171  0.00  0.00    +0.210 HD
ENDBRANCH  61  62
BRANCH  60  64
ATOM     64  O   UNL     1       0.447  -7.437  24.406  0.00  0.00    -0.386 OA
ATOM     65  H   UNL     1       0.279  -7.979  23.614  0.00  0.00    +0.210 HD
ENDBRANCH  60  64
BRANCH  59  66
ATOM     66  O   UNL     1       3.090  -8.271  23.858  0.00  0.00    -0.383 OA
ATOM     67  H   UNL     1       2.317  -8.625  23.382  0.00  0.00    +0.210 HD
ENDBRANCH  59  66
ENDBRANCH  54  58
ENDBRANCH   1  54
TORSDOF 22
ENDMDL
MODEL 2
REMARK VINA RESULT:      -6.3      2.812     10.243
REMARK  Name = 
REMARK  23 active torsions:
REMARK  status: ('A' for Active; 'I' for Inactive)
REMARK    1  A    between atoms: C_1  and  C_2
REMARK    2  A    between atoms: C_4  and  O_69
REMARK    3  A    between atoms: C_6  and  O_68
REMARK    4  A    between atoms: C_8  and  O_67
REMARK    5  A    between atoms: C_10  and  O_13
REMARK    6  A    between atoms: O_13  and  C_14
REMARK    7  A    between atoms: C_16  and  O_66
REMARK    8  A    between atoms: C_21  and  C_58
REMARK    9  A    between atoms: C_22  and  O_25
REMARK   10  A    between atoms: O_25  and  C_26
REMARK   11  A    between atoms: C_28  and  O_41
REMARK   12  A    between atoms: C_30  and  O_40
REMARK   13  A    between atoms: C_32  and  O_39
REMARK   14  A    between atoms: C_34  and  C_37
REMARK   15  A    between atoms: C_37  and  O_38
REMARK   16  A    between atoms: O_41  and  C_42
REMARK   17  A    between atoms: C_44  and  O_57
REMARK   18  A    between atoms: C_46  and  O_56
REMARK   19  A    between atoms: C_48  and  O_55
REMARK   20  A    between atoms: C_50  and  C_53
REMARK   21  A    between atoms: C_53  and  O_54
REMARK   22  A    between atoms: C_60  and  O_65
REMARK   23  A    between atoms: C_61  and  O_64
REMARK                            x       y       z     vdW  Elec       q    Type
REMARK                         _______ _______ _______ _____ _____    ______ ____
ROOT
ATOM      1  C   UNL     1       6.633   3.470  25.677  0.00  0.00    +0.131 A 
ATOM      2  C   UNL     1       7.198   2.195  25.603  0.00  0.00    +0.093 A 
ATOM      3  C   UNL     1       6.658   1.116  26.332  0.00  0.00    +0.147 A 
ATOM      4  O   UNL     1       7.254  -0.116  26.238  0.00  0.00    -0.451 OA
ATOM      5  C   UNL     1       6.630  -1.254  26.790  0.00  0.00    +0.181 A 
ATOM      6  C   UNL     1       5.526  -1.181  27.581  0.00  0.00    +0.214 A 
ATOM      7  C   UNL     1       5.144   0.202  28.008  0.00  0.00    +0.238 A 
ATOM      8  O   UNL     1       4.569   0.391  29.075  0.00  0.00    -0.283 OA
ATOM      9  C   UNL     1       5.562   1.319  27.151  0.00  0.00    +0.109 A 
ATOM     10  C   UNL     1       4.955   2.567  27.198  0.00  0.00    +0.135 A 
ATOM     11  C   UNL     1       5.495   3.646  26.488  0.00  0.00    +0.092 A 
ENDROOT
BRANCH   5  12
ATOM     12  C   UNL     1       7.404  -2.492  26.449  0.00  0.00    +0.025 A 
ATOM     13  C   UNL     1       8.279  -2.447  25.332  0.00  0.00    +0.015 A 
ATOM     14  C   UNL     1       9.025  -3.556  24.920  0.00  0.00    +0.050 A 
ATOM     15  C   UNL     1       8.923  -4.731  25.635  0.00  0.00    +0.158 A 
ATOM     16  C   UNL     1       8.086  -4.803  26.745  0.00  0.00    +0.159 A 
ATOM     17  C   UNL     1       7.316  -3.706  27.148  0.00  0.00    +0.060 A 
BRANCH  16  18
ATOM     18  O   UNL     1       8.057  -5.996  27.423  0.00  0.00    -0.503 OA
ATOM     19  H   UNL     1       7.947  -6.719  26.779  0.00  0.00    +0.292 HD
ENDBRANCH  16  18
BRANCH  15  20
ATOM     20  O   UNL     1       9.661  -5.812  25.247  0.00  0.00    -0.503 OA
ATOM     21  H   UNL     1      10.587  -5.563  25.441  0.00  0.00    +0.292 HD
ENDBRANCH  15  20
ENDBRANCH   5  12
BRANCH  10  22
ATOM     22  O   UNL     1       3.798   2.750  27.898  0.00  0.00    -0.506 OA
ATOM     23  H   UNL     1       3.937   3.356  28.645  0.00  0.00    +0.292 HD
ENDBRANCH  10  22
BRANCH   6  24
ATOM     24  O   UNL     1       4.855  -2.274  28.149  0.00  0.00    -0.453 OA
BRANCH  24  25
ATOM     25  C   UNL     1       3.802  -2.871  27.328  0.00  0.00    +0.340 C 
ATOM     26  O   UNL     1       2.475  -2.537  27.723  0.00  0.00    -0.331 OA
ATOM     27  C   UNL     1       1.901  -3.164  28.863  0.00  0.00    +0.179 C 
ATOM     28  C   UNL     1       2.085  -4.693  28.921  0.00  0.00    +0.177 C 
ATOM     29  C   UNL     1       3.420  -5.200  28.349  0.00  0.00    +0.180 C 
ATOM     30  C   UNL     1       4.028  -4.389  27.183  0.00  0.00    +0.221 C 
BRANCH  29  31
ATOM     31  O   UNL     1       4.408  -5.246  29.406  0.00  0.00    -0.386 OA
ATOM     32  H   UNL     1       5.297  -5.264  28.989  0.00  0.00    +0.210 HD
ENDBRANCH  29  31
BRANCH  28  33
ATOM     33  O   UNL     1       1.024  -5.371  28.234  0.00  0.00    -0.386 OA
ATOM     34  H   UNL     1       1.085  -6.328  28.395  0.00  0.00    +0.210 HD
ENDBRANCH  28  33
BRANCH  30  35
ATOM     35  O   UNL     1       3.642  -4.908  25.878  0.00  0.00    -0.337 OA
BRANCH  35  36
ATOM     36  C   UNL     1       4.693  -5.566  25.111  0.00  0.00    +0.282 C 
ATOM     37  O   UNL     1       5.472  -4.531  24.495  0.00  0.00    -0.341 OA
ATOM     38  C   UNL     1       5.784  -4.524  23.083  0.00  0.00    +0.178 C 
ATOM     39  C   UNL     1       4.918  -5.375  22.135  0.00  0.00    +0.177 C 
ATOM     40  C   UNL     1       3.683  -5.905  22.848  0.00  0.00    +0.179 C 
ATOM     41  C   UNL     1       4.112  -6.609  24.130  0.00  0.00    +0.201 C 
BRANCH  41  42
ATOM     42  O   UNL     1       5.038  -7.672  23.866  0.00  0.00    -0.384 OA
ATOM     43  H   UNL     1       4.568  -8.517  23.985  0.00  0.00    +0.210 HD
ENDBRANCH  41  42
BRANCH  40  44
ATOM     44  O   UNL     1       2.739  -4.856  23.101  0.00  0.00    -0.386 OA
ATOM     45  H   UNL     1       1.861  -5.240  23.297  0.00  0.00    +0.210 HD
ENDBRANCH  40  44
BRANCH  39  46
ATOM     46  O   UNL     1       5.723  -6.433  21.585  0.00  0.00    -0.386 OA
ATOM     47  H   UNL     1       6.458  -6.621  22.202  0.00  0.00    +0.210 HD
ENDBRANCH  39  46
BRANCH  38  48
ATOM     48  C   UNL     1       5.660  -3.043  22.668  0.00  0.00    +0.190 C 
BRANCH  48  49
ATOM     49  O   UNL     1       5.138  -2.260  23.741  0.00  0.00    -0.392 OA
ATOM     50  H   UNL     1       4.196  -2.500  23.822  0.00  0.00    +0.210 HD
ENDBRANCH  48  49
ENDBRANCH  38  48
ENDBRANCH  35  36
ENDBRANCH  30  35
BRANCH  27  51
ATOM     51  C   UNL     1       2.334  -2.467  30.156  0.00  0.00    +0.190 C 
BRANCH  51  52
ATOM     52  O   UNL     1       2.462  -1.064  29.955  0.00  0.00    -0.392 OA
ATOM     53  H   UNL     1       2.989  -0.747  30.719  0.00  0.00    +0.210 HD
ENDBRANCH  51  52
ENDBRANCH  27  51
ENDBRANCH  24  25
ENDBRANCH   6  24
BRANCH   1  54
ATOM     54  O   UNL     1       7.222   4.471  24.942  0.00  0.00    -0.461 OA
BRANCH  54  58
ATOM     55  C   UNL     1       5.298   6.829  24.458  0.00  0.00    +0.041 C 
ATOM     56  C   UNL     1       5.696   6.343  23.067  0.00  0.00    +0.150 C 
ATOM     57  O   UNL     1       5.874   4.916  23.007  0.00  0.00    -0.334 OA
ATOM     58  C   UNL     1       7.120   4.401  23.500  0.00  0.00    +0.339 C 
ATOM     59  C   UNL     1       8.323   5.091  22.823  0.00  0.00    +0.214 C 
ATOM     60  C   UNL     1       8.243   6.611  22.961  0.00  0.00    +0.180 C 
ATOM     61  C   UNL     1       6.883   7.107  22.448  0.00  0.00    +0.174 C 
BRANCH  61  62
ATOM     62  O   UNL     1       6.845   6.936  21.019  0.00  0.00    -0.387 OA
ATOM     63  H   UNL     1       6.464   7.738  20.617  0.00  0.00    +0.210 HD
ENDBRANCH  61  62
BRANCH  60  64
ATOM     64  O   UNL     1       8.499   7.016  24.311  0.00  0.00    -0.386 OA
ATOM     65  H   UNL     1       9.462   7.073  24.453  0.00  0.00    +0.210 HD
ENDBRANCH  60  64
BRANCH  59  66
ATOM     66  O   UNL     1       9.562   4.588  23.334  0.00  0.00    -0.383 OA
ATOM     67  H   UNL     1      10.166   5.349  23.420  0.00  0.00    +0.210 HD
ENDBRANCH  59  66
ENDBRANCH  54  58
ENDBRANCH   1  54
TORSDOF 22
ENDMDL
MODEL 3
REMARK VINA RESULT:      -6.1      2.304      5.818
REMARK  Name = 
REMARK  23 active torsions:
REMARK  status: ('A' for Active; 'I' for Inactive)
REMARK    1  A    between atoms: C_1  and  C_2
REMARK    2  A    between atoms: C_4  and  O_69
REMARK    3  A    between atoms: C_6  and  O_68
REMARK    4  A    between atoms: C_8  and  O_67
REMARK    5  A    between atoms: C_10  and  O_13
REMARK    6  A    between atoms: O_13  and  C_14
REMARK    7  A    between atoms: C_16  and  O_66
REMARK    8  A    between atoms: C_21  and  C_58
REMARK    9  A    between atoms: C_22  and  O_25
REMARK   10  A    between atoms: O_25  and  C_26
REMARK   11  A    between atoms: C_28  and  O_41
REMARK   12  A    between atoms: C_30  and  O_40
REMARK   13  A    between atoms: C_32  and  O_39
REMARK   14  A    between atoms: C_34  and  C_37
REMARK   15  A    between atoms: C_37  and  O_38
REMARK   16  A    between atoms: O_41  and  C_42
REMARK   17  A    between atoms: C_44  and  O_57
REMARK   18  A    between atoms: C_46  and  O_56
REMARK   19  A    between atoms: C_48  and  O_55
REMARK   20  A    between atoms: C_50  and  C_53
REMARK   21  A    between atoms: C_53  and  O_54
REMARK   22  A    between atoms: C_60  and  O_65
REMARK   23  A    between atoms: C_61  and  O_64
REMARK                            x       y       z     vdW  Elec       q    Type
REMARK                         _______ _______ _______ _____ _____    ______ ____
ROOT
ATOM      1  C   UNL     1       5.209  -2.467  26.168  0.00  0.00    +0.131 A 
ATOM      2  C   UNL     1       4.390  -1.349  25.997  0.00  0.00    +0.093 A 
ATOM      3  C   UNL     1       4.823  -0.064  26.381  0.00  0.00    +0.147 A 
ATOM      4  O   UNL     1       3.979   1.003  26.205  0.00  0.00    -0.451 OA
ATOM      5  C   UNL     1       4.447   2.320  26.390  0.00  0.00    +0.181 A 
ATOM      6  C   UNL     1       5.670   2.603  26.912  0.00  0.00    +0.214 A 
ATOM      7  C   UNL     1       6.402   1.428  27.482  0.00  0.00    +0.238 A 
ATOM      8  O   UNL     1       7.193   1.573  28.409  0.00  0.00    -0.283 OA
ATOM      9  C   UNL     1       6.070   0.099  26.955  0.00  0.00    +0.109 A 
ATOM     10  C   UNL     1       6.919  -0.993  27.087  0.00  0.00    +0.135 A 
ATOM     11  C   UNL     1       6.490  -2.273  26.720  0.00  0.00    +0.092 A 
ENDROOT
BRANCH   5  12
ATOM     12  C   UNL     1       3.385   3.311  26.016  0.00  0.00    +0.025 A 
ATOM     13  C   UNL     1       2.889   3.288  24.686  0.00  0.00    +0.015 A 
ATOM     14  C   UNL     1       1.917   4.186  24.234  0.00  0.00    +0.050 A 
ATOM     15  C   UNL     1       1.405   5.114  25.117  0.00  0.00    +0.158 A 
ATOM     16  C   UNL     1       1.858   5.152  26.433  0.00  0.00    +0.159 A 
ATOM     17  C   UNL     1       2.851   4.275  26.885  0.00  0.00    +0.060 A 
BRANCH  16  18
ATOM     18  O   UNL     1       1.284   6.084  27.260  0.00  0.00    -0.503 OA
ATOM     19  H   UNL     1       1.071   6.877  26.736  0.00  0.00    +0.292 HD
ENDBRANCH  16  18
BRANCH  15  20
ATOM     20  O   UNL     1       0.444   5.983  24.686  0.00  0.00    -0.503 OA
ATOM     21  H   UNL     1       0.200   6.499  25.481  0.00  0.00    +0.292 HD
ENDBRANCH  15  20
ENDBRANCH   5  12
BRANCH  10  22
ATOM     22  O   UNL     1       8.199  -0.826  27.529  0.00  0.00    -0.506 OA
ATOM     23  H   UNL     1       8.213  -0.627  28.481  0.00  0.00    +0.292 HD
ENDBRANCH  10  22
BRANCH   6  24
ATOM     24  O   UNL     1       6.196   3.888  27.111  0.00  0.00    -0.453 OA
BRANCH  24  25
ATOM     25  C   UNL     1       7.531   4.121  26.560  0.00  0.00    +0.340 C 
ATOM     26  O   UNL     1       8.106   5.380  26.899  0.00  0.00    -0.331 OA
ATOM     27  C   UNL     1       7.660   6.558  26.239  0.00  0.00    +0.179 C 
ATOM     28  C   UNL     1       7.550   6.440  24.707  0.00  0.00    +0.177 C 
ATOM     29  C   UNL     1       7.109   5.056  24.202  0.00  0.00    +0.180 C 
ATOM     30  C   UNL     1       7.545   3.837  25.045  0.00  0.00    +0.221 C 
BRANCH  29  31
ATOM     31  O   UNL     1       5.665   5.019  24.102  0.00  0.00    -0.386 OA
ATOM     32  H   UNL     1       5.331   4.377  24.766  0.00  0.00    +0.210 HD
ENDBRANCH  29  31
BRANCH  28  33
ATOM     33  O   UNL     1       8.794   6.767  24.070  0.00  0.00    -0.386 OA
ATOM     34  H   UNL     1       9.135   5.990  23.596  0.00  0.00    +0.210 HD
ENDBRANCH  28  33
BRANCH  30  35
ATOM     35  O   UNL     1       8.794   3.251  24.579  0.00  0.00    -0.337 OA
BRANCH  35  36
ATOM     36  C   UNL     1       8.813   2.795  23.193  0.00  0.00    +0.282 C 
ATOM     37  O   UNL     1       7.678   1.936  23.020  0.00  0.00    -0.341 OA
ATOM     38  C   UNL     1       7.781   0.615  22.441  0.00  0.00    +0.178 C 
ATOM     39  C   UNL     1       9.160  -0.071  22.413  0.00  0.00    +0.177 C 
ATOM     40  C   UNL     1      10.169   0.695  23.256  0.00  0.00    +0.179 C 
ATOM     41  C   UNL     1      10.172   2.156  22.825  0.00  0.00    +0.201 C 
BRANCH  41  42
ATOM     42  O   UNL     1      10.470   2.296  21.429  0.00  0.00    -0.384 OA
ATOM     43  H   UNL     1      11.046   3.074  21.321  0.00  0.00    +0.210 HD
ENDBRANCH  41  42
BRANCH  40  44
ATOM     44  O   UNL     1       9.894   0.547  24.656  0.00  0.00    -0.386 OA
ATOM     45  H   UNL     1      10.675   0.166  25.108  0.00  0.00    +0.210 HD
ENDBRANCH  40  44
BRANCH  39  46
ATOM     46  O   UNL     1       9.588  -0.212  21.047  0.00  0.00    -0.386 OA
ATOM     47  H   UNL     1       9.934  -1.117  20.919  0.00  0.00    +0.210 HD
ENDBRANCH  39  46
BRANCH  38  48
ATOM     48  C   UNL     1       6.816  -0.250  23.280  0.00  0.00    +0.190 C 
BRANCH  48  49
ATOM     49  O   UNL     1       7.349  -1.561  23.468  0.00  0.00    -0.392 OA
ATOM     50  H   UNL     1       7.444  -1.681  24.431  0.00  0.00    +0.210 HD
ENDBRANCH  48  49
ENDBRANCH  38  48
ENDBRANCH  35  36
ENDBRANCH  30  35
BRANCH  27  51
ATOM     51  C   UNL     1       6.382   7.103  26.883  0.00  0.00    +0.190 C 
BRANCH  51  52
ATOM     52  O   UNL     1       5.297   7.067  25.961  0.00  0.00    -0.392 OA
ATOM     53  H   UNL     1       5.714   6.898  25.089  0.00  0.00    +0.210 HD
ENDBRANCH  51  52
ENDBRANCH  27  51
ENDBRANCH  24  25
ENDBRANCH   6  24
BRANCH   1  54
ATOM     54  O   UNL     1       4.712  -3.687  25.775  0.00  0.00    -0.461 OA
BRANCH  54  58
ATOM     55  C   UNL     1       7.240  -4.934  24.529  0.00  0.00    +0.041 C 
ATOM     56  C   UNL     1       6.201  -4.931  23.411  0.00  0.00    +0.150 C 
ATOM     57  O   UNL     1       5.336  -3.781  23.460  0.00  0.00    -0.334 OA
ATOM     58  C   UNL     1       4.259  -3.825  24.407  0.00  0.00    +0.339 C 
ATOM     59  C   UNL     1       3.402  -5.095  24.230  0.00  0.00    +0.214 C 
ATOM     60  C   UNL     1       4.261  -6.358  24.289  0.00  0.00    +0.180 C 
ATOM     61  C   UNL     1       5.413  -6.250  23.279  0.00  0.00    +0.174 C 
BRANCH  61  62
ATOM     62  O   UNL     1       4.863  -6.326  21.951  0.00  0.00    -0.387 OA
ATOM     63  H   UNL     1       5.253  -7.094  21.494  0.00  0.00    +0.210 HD
ENDBRANCH  61  62
BRANCH  60  64
ATOM     64  O   UNL     1       4.724  -6.600  25.623  0.00  0.00    -0.386 OA
ATOM     65  H   UNL     1       4.859  -5.748  26.076  0.00  0.00    +0.210 HD
ENDBRANCH  60  64
BRANCH  59  66
ATOM     66  O   UNL     1       2.343  -5.143  25.191  0.00  0.00    -0.383 OA
ATOM     67  H   UNL     1       1.539  -5.428  24.718  0.00  0.00    +0.210 HD
ENDBRANCH  59  66
ENDBRANCH  54  58
ENDBRANCH   1  54
TORSDOF 22
ENDMDL
MODEL 4
REMARK VINA RESULT:      -6.1      1.451      2.127
REMARK  Name = 
REMARK  23 active torsions:
REMARK  status: ('A' for Active; 'I' for Inactive)
REMARK    1  A    between atoms: C_1  and  C_2
REMARK    2  A    between atoms: C_4  and  O_69
REMARK    3  A    between atoms: C_6  and  O_68
REMARK    4  A    between atoms: C_8  and  O_67
REMARK    5  A    between atoms: C_10  and  O_13
REMARK    6  A    between atoms: O_13  and  C_14
REMARK    7  A    between atoms: C_16  and  O_66
REMARK    8  A    between atoms: C_21  and  C_58
REMARK    9  A    between atoms: C_22  and  O_25
REMARK   10  A    between atoms: O_25  and  C_26
REMARK   11  A    between atoms: C_28  and  O_41
REMARK   12  A    between atoms: C_30  and  O_40
REMARK   13  A    between atoms: C_32  and  O_39
REMARK   14  A    between atoms: C_34  and  C_37
REMARK   15  A    between atoms: C_37  and  O_38
REMARK   16  A    between atoms: O_41  and  C_42
REMARK   17  A    between atoms: C_44  and  O_57
REMARK   18  A    between atoms: C_46  and  O_56
REMARK   19  A    between atoms: C_48  and  O_55
REMARK   20  A    between atoms: C_50  and  C_53
REMARK   21  A    between atoms: C_53  and  O_54
REMARK   22  A    between atoms: C_60  and  O_65
REMARK   23  A    between atoms: C_61  and  O_64
REMARK                            x       y       z     vdW  Elec       q    Type
REMARK                         _______ _______ _______ _____ _____    ______ ____
ROOT
ATOM      1  C   UNL     1       3.822  -4.499  23.703  0.00  0.00    +0.131 A 
ATOM      2  C   UNL     1       3.986  -3.603  24.762  0.00  0.00    +0.093 A 
ATOM      3  C   UNL     1       5.026  -2.651  24.755  0.00  0.00    +0.147 A 
ATOM      4  O   UNL     1       5.156  -1.800  25.823  0.00  0.00    -0.451 OA
ATOM      5  C   UNL     1       6.052  -0.713  25.762  0.00  0.00    +0.181 A 
ATOM      6  C   UNL     1       6.946  -0.546  24.751  0.00  0.00    +0.214 A 
ATOM      7  C   UNL     1       7.068  -1.710  23.817  0.00  0.00    +0.238 A 
ATOM      8  O   UNL     1       8.125  -1.940  23.238  0.00  0.00    -0.283 OA
ATOM      9  C   UNL     1       5.913  -2.609  23.696  0.00  0.00    +0.109 A 
ATOM     10  C   UNL     1       5.735  -3.457  22.610  0.00  0.00    +0.135 A 
ATOM     11  C   UNL     1       4.714  -4.414  22.617  0.00  0.00    +0.092 A 
ENDROOT
BRANCH   5  12
ATOM     12  C   UNL     1       5.923   0.141  26.988  0.00  0.00    +0.025 A 
ATOM     13  C   UNL     1       7.107   0.486  27.691  0.00  0.00    +0.015 A 
ATOM     14  C   UNL     1       7.088   1.258  28.857  0.00  0.00    +0.050 A 
ATOM     15  C   UNL     1       5.878   1.718  29.332  0.00  0.00    +0.158 A 
ATOM     16  C   UNL     1       4.700   1.412  28.656  0.00  0.00    +0.159 A 
ATOM     17  C   UNL     1       4.707   0.618  27.504  0.00  0.00    +0.060 A 
BRANCH  16  18
ATOM     18  O   UNL     1       3.537   1.928  29.172  0.00  0.00    -0.503 OA
ATOM     19  H   UNL     1       3.758   2.503  29.927  0.00  0.00    +0.292 HD
ENDBRANCH  16  18
BRANCH  15  20
ATOM     20  O   UNL     1       5.855   2.486  30.461  0.00  0.00    -0.503 OA
ATOM     21  H   UNL     1       5.629   3.384  30.146  0.00  0.00    +0.292 HD
ENDBRANCH  15  20
ENDBRANCH   5  12
BRANCH  10  22
ATOM     22  O   UNL     1       6.522  -3.339  21.501  0.00  0.00    -0.506 OA
ATOM     23  H   UNL     1       7.046  -4.146  21.361  0.00  0.00    +0.292 HD
ENDBRANCH  10  22
BRANCH   6  24
ATOM     24  O   UNL     1       7.853   0.516  24.629  0.00  0.00    -0.453 OA
BRANCH  24  25
ATOM     25  C   UNL     1       7.593   1.451  23.534  0.00  0.00    +0.340 C 
ATOM     26  O   UNL     1       8.723   1.740  22.716  0.00  0.00    -0.331 OA
ATOM     27  C   UNL     1       9.730   2.624  23.192  0.00  0.00    +0.179 C 
ATOM     28  C   UNL     1       9.203   3.928  23.819  0.00  0.00    +0.177 C 
ATOM     29  C   UNL     1       7.878   3.781  24.586  0.00  0.00    +0.180 C 
ATOM     30  C   UNL     1       6.888   2.716  24.063  0.00  0.00    +0.221 C 
BRANCH  29  31
ATOM     31  O   UNL     1       8.157   3.469  25.972  0.00  0.00    -0.386 OA
ATOM     32  H   UNL     1       9.114   3.265  26.049  0.00  0.00    +0.210 HD
ENDBRANCH  29  31
BRANCH  28  33
ATOM     33  O   UNL     1       9.028   4.949  22.826  0.00  0.00    -0.386 OA
ATOM     34  H   UNL     1       8.492   4.605  22.090  0.00  0.00    +0.210 HD
ENDBRANCH  28  33
BRANCH  30  35
ATOM     35  O   UNL     1       5.914   3.267  23.130  0.00  0.00    -0.337 OA
BRANCH  35  36
ATOM     36  C   UNL     1       4.519   2.922  23.380  0.00  0.00    +0.282 C 
ATOM     37  O   UNL     1       3.739   3.572  22.366  0.00  0.00    -0.341 OA
ATOM     38  C   UNL     1       2.585   4.386  22.673  0.00  0.00    +0.178 C 
ATOM     39  C   UNL     1       2.433   4.940  24.102  0.00  0.00    +0.177 C 
ATOM     40  C   UNL     1       3.705   4.725  24.910  0.00  0.00    +0.179 C 
ATOM     41  C   UNL     1       4.102   3.256  24.830  0.00  0.00    +0.201 C 
BRANCH  41  42
ATOM     42  O   UNL     1       3.054   2.396  25.299  0.00  0.00    -0.384 OA
ATOM     43  H   UNL     1       3.322   2.040  26.165  0.00  0.00    +0.210 HD
ENDBRANCH  41  42
BRANCH  40  44
ATOM     44  O   UNL     1       4.755   5.592  24.465  0.00  0.00    -0.386 OA
ATOM     45  H   UNL     1       5.168   6.035  25.234  0.00  0.00    +0.210 HD
ENDBRANCH  40  44
BRANCH  39  46
ATOM     46  O   UNL     1       1.286   4.333  24.722  0.00  0.00    -0.386 OA
ATOM     47  H   UNL     1       0.877   3.713  24.087  0.00  0.00    +0.210 HD
ENDBRANCH  39  46
BRANCH  38  48
ATOM     48  C   UNL     1       2.679   5.574  21.691  0.00  0.00    +0.190 C 
BRANCH  48  49
ATOM     49  O   UNL     1       3.997   6.123  21.689  0.00  0.00    -0.392 OA
ATOM     50  H   UNL     1       3.962   6.917  21.123  0.00  0.00    +0.210 HD
ENDBRANCH  48  49
ENDBRANCH  38  48
ENDBRANCH  35  36
ENDBRANCH  30  35
BRANCH  27  51
ATOM     51  C   UNL     1      10.725   1.892  24.098  0.00  0.00    +0.190 C 
BRANCH  51  52
ATOM     52  O   UNL     1      10.772   0.505  23.780  0.00  0.00    -0.392 OA
ATOM     53  H   UNL     1      10.102   0.091  24.364  0.00  0.00    +0.210 HD
ENDBRANCH  51  52
ENDBRANCH  27  51
ENDBRANCH  24  25
ENDBRANCH   6  24
BRANCH   1  54
ATOM     54  O   UNL     1       2.789  -5.402  23.788  0.00  0.00    -0.461 OA
BRANCH  54  58
ATOM     55  C   UNL     1       3.232  -6.556  26.611  0.00  0.00    +0.041 C 
ATOM     56  C   UNL     1       3.298  -7.757  25.671  0.00  0.00    +0.150 C 
ATOM     57  O   UNL     1       3.901  -7.437  24.403  0.00  0.00    -0.334 OA
ATOM     58  C   UNL     1       3.065  -6.780  23.440  0.00  0.00    +0.339 C 
ATOM     59  C   UNL     1       1.759  -7.565  23.196  0.00  0.00    +0.214 C 
ATOM     60  C   UNL     1       1.016  -7.828  24.506  0.00  0.00    +0.180 C 
ATOM     61  C   UNL     1       1.960  -8.506  25.510  0.00  0.00    +0.174 C 
BRANCH  61  62
ATOM     62  O   UNL     1       2.234  -9.842  25.049  0.00  0.00    -0.387 OA
ATOM     63  H   UNL     1       1.826  -9.960  24.172  0.00  0.00    +0.210 HD
ENDBRANCH  61  62
BRANCH  60  64
ATOM     64  O   UNL     1       0.444  -6.620  25.022  0.00  0.00    -0.386 OA
ATOM     65  H   UNL     1       1.005  -5.865  24.769  0.00  0.00    +0.210 HD
ENDBRANCH  60  64
BRANCH  59  66
ATOM     66  O   UNL     1       0.921  -6.893  22.251  0.00  0.00    -0.383 OA
ATOM     67  H   UNL     1       1.462  -6.724  21.457  0.00  0.00    +0.210 HD
ENDBRANCH  59  66
ENDBRANCH  54  58
ENDBRANCH   1  54
TORSDOF 22
ENDMDL
MODEL 5
REMARK VINA RESULT:      -5.9      3.204     10.007
REMARK  Name = 
REMARK  23 active torsions:
REMARK  status: ('A' for Active; 'I' for Inactive)
REMARK    1  A    between atoms: C_1  and  C_2
REMARK    2  A    between atoms: C_4  and  O_69
REMARK    3  A    between atoms: C_6  and  O_68
REMARK    4  A    between atoms: C_8  and  O_67
REMARK    5  A    between atoms: C_10  and  O_13
REMARK    6  A    between atoms: O_13  and  C_14
REMARK    7  A    between atoms: C_16  and  O_66
REMARK    8  A    between atoms: C_21  and  C_58
REMARK    9  A    between atoms: C_22  and  O_25
REMARK   10  A    between atoms: O_25  and  C_26
REMARK   11  A    between atoms: C_28  and  O_41
REMARK   12  A    between atoms: C_30  and  O_40
REMARK   13  A    between atoms: C_32  and  O_39
REMARK   14  A    between atoms: C_34  and  C_37
REMARK   15  A    between atoms: C_37  and  O_38
REMARK   16  A    between atoms: O_41  and  C_42
REMARK   17  A    between atoms: C_44  and  O_57
REMARK   18  A    between atoms: C_46  and  O_56
REMARK   19  A    between atoms: C_48  and  O_55
REMARK   20  A    between atoms: C_50  and  C_53
REMARK   21  A    between atoms: C_53  and  O_54
REMARK   22  A    between atoms: C_60  and  O_65
REMARK   23  A    between atoms: C_61  and  O_64
REMARK                            x       y       z     vdW  Elec       q    Type
REMARK                         _______ _______ _______ _____ _____    ______ ____
ROOT
ATOM      1  C   UNL     1       8.587   2.313  25.077  0.00  0.00    +0.131 A 
ATOM      2  C   UNL     1       7.374   2.124  25.743  0.00  0.00    +0.093 A 
ATOM      3  C   UNL     1       6.969   0.840  26.165  0.00  0.00    +0.147 A 
ATOM      4  O   UNL     1       5.764   0.701  26.805  0.00  0.00    -0.451 OA
ATOM      5  C   UNL     1       5.418  -0.524  27.413  0.00  0.00    +0.181 A 
ATOM      6  C   UNL     1       6.149  -1.660  27.256  0.00  0.00    +0.214 A 
ATOM      7  C   UNL     1       7.223  -1.581  26.216  0.00  0.00    +0.238 A 
ATOM      8  O   UNL     1       7.574  -2.584  25.602  0.00  0.00    -0.283 OA
ATOM      9  C   UNL     1       7.769  -0.255  25.901  0.00  0.00    +0.109 A 
ATOM     10  C   UNL     1       9.002  -0.080  25.284  0.00  0.00    +0.135 A 
ATOM     11  C   UNL     1       9.404   1.189  24.851  0.00  0.00    +0.092 A 
ENDROOT
BRANCH   5  12
ATOM     12  C   UNL     1       4.122  -0.392  28.156  0.00  0.00    +0.025 A 
ATOM     13  C   UNL     1       4.174  -0.113  29.547  0.00  0.00    +0.015 A 
ATOM     14  C   UNL     1       3.021   0.004  30.331  0.00  0.00    +0.050 A 
ATOM     15  C   UNL     1       1.789  -0.136  29.728  0.00  0.00    +0.158 A 
ATOM     16  C   UNL     1       1.703  -0.393  28.362  0.00  0.00    +0.159 A 
ATOM     17  C   UNL     1       2.852  -0.539  27.576  0.00  0.00    +0.060 A 
BRANCH  16  18
ATOM     18  O   UNL     1       0.443  -0.492  27.828  0.00  0.00    -0.503 OA
ATOM     19  H   UNL     1       0.027  -1.310  28.158  0.00  0.00    +0.292 HD
ENDBRANCH  16  18
BRANCH  15  20
ATOM     20  O   UNL     1       0.660  -0.006  30.485  0.00  0.00    -0.503 OA
ATOM     21  H   UNL     1       0.965  -0.114  31.408  0.00  0.00    +0.292 HD
ENDBRANCH  15  20
ENDBRANCH   5  12
BRANCH  10  22
ATOM     22  O   UNL     1       9.858  -1.131  25.135  0.00  0.00    -0.506 OA
ATOM     23  H   UNL     1      10.753  -0.894  25.432  0.00  0.00    +0.292 HD
ENDBRANCH  10  22
BRANCH   6  24
ATOM     24  O   UNL     1       5.864  -2.902  27.841  0.00  0.00    -0.453 OA
BRANCH  24  25
ATOM     25  C   UNL     1       4.766  -3.655  27.231  0.00  0.00    +0.340 C 
ATOM     26  O   UNL     1       3.799  -4.151  28.152  0.00  0.00    -0.331 OA
ATOM     27  C   UNL     1       4.102  -5.291  28.945  0.00  0.00    +0.179 C 
ATOM     28  C   UNL     1       4.727  -6.469  28.173  0.00  0.00    +0.177 C 
ATOM     29  C   UNL     1       5.661  -6.057  27.022  0.00  0.00    +0.180 C 
ATOM     30  C   UNL     1       5.318  -4.742  26.287  0.00  0.00    +0.221 C 
BRANCH  29  31
ATOM     31  O   UNL     1       7.014  -5.934  27.522  0.00  0.00    -0.386 OA
ATOM     32  H   UNL     1       7.203  -6.719  28.081  0.00  0.00    +0.210 HD
ENDBRANCH  29  31
BRANCH  28  33
ATOM     33  O   UNL     1       3.716  -7.333  27.634  0.00  0.00    -0.386 OA
ATOM     34  H   UNL     1       3.279  -6.899  26.881  0.00  0.00    +0.210 HD
ENDBRANCH  28  33
BRANCH  30  35
ATOM     35  O   UNL     1       4.490  -4.957  25.109  0.00  0.00    -0.337 OA
BRANCH  35  36
ATOM     36  C   UNL     1       5.060  -5.807  24.069  0.00  0.00    +0.282 C 
ATOM     37  O   UNL     1       6.461  -5.930  24.350  0.00  0.00    -0.341 OA
ATOM     38  C   UNL     1       7.480  -5.684  23.355  0.00  0.00    +0.178 C 
ATOM     39  C   UNL     1       7.110  -4.855  22.111  0.00  0.00    +0.177 C 
ATOM     40  C   UNL     1       5.742  -4.207  22.272  0.00  0.00    +0.179 C 
ATOM     41  C   UNL     1       4.727  -5.276  22.656  0.00  0.00    +0.201 C 
BRANCH  41  42
ATOM     42  O   UNL     1       4.675  -6.331  21.685  0.00  0.00    -0.384 OA
ATOM     43  H   UNL     1       5.051  -5.991  20.853  0.00  0.00    +0.210 HD
ENDBRANCH  41  42
BRANCH  40  44
ATOM     44  O   UNL     1       5.784  -3.137  23.226  0.00  0.00    -0.386 OA
ATOM     45  H   UNL     1       5.866  -2.280  22.760  0.00  0.00    +0.210 HD
ENDBRANCH  40  44
BRANCH  39  46
ATOM     46  O   UNL     1       7.177  -5.697  20.947  0.00  0.00    -0.386 OA
ATOM     47  H   UNL     1       7.200  -6.631  21.236  0.00  0.00    +0.210 HD
ENDBRANCH  39  46
BRANCH  38  48
ATOM     48  C   UNL     1       8.599  -4.948  24.122  0.00  0.00    +0.190 C 
BRANCH  48  49
ATOM     49  O   UNL     1       8.875  -3.683  23.521  0.00  0.00    -0.392 OA
ATOM     50  H   UNL     1       8.036  -3.186  23.531  0.00  0.00    +0.210 HD
ENDBRANCH  48  49
ENDBRANCH  38  48
ENDBRANCH  35  36
ENDBRANCH  30  35
BRANCH  27  51
ATOM     51  C   UNL     1       4.910  -4.904  30.187  0.00  0.00    +0.190 C 
BRANCH  51  52
ATOM     52  O   UNL     1       6.132  -5.633  30.242  0.00  0.00    -0.392 OA
ATOM     53  H   UNL     1       6.110  -6.219  29.456  0.00  0.00    +0.210 HD
ENDBRANCH  51  52
ENDBRANCH  27  51
ENDBRANCH  24  25
ENDBRANCH   6  24
BRANCH   1  54
ATOM     54  O   UNL     1       8.907   3.593  24.691  0.00  0.00    -0.461 OA
BRANCH  54  58
ATOM     55  C   UNL     1       6.041   4.578  24.134  0.00  0.00    +0.041 C 
ATOM     56  C   UNL     1       6.794   4.771  22.821  0.00  0.00    +0.150 C 
ATOM     57  O   UNL     1       7.769   3.738  22.584  0.00  0.00    -0.334 OA
ATOM     58  C   UNL     1       9.021   3.865  23.274  0.00  0.00    +0.339 C 
ATOM     59  C   UNL     1       9.670   5.242  23.021  0.00  0.00    +0.214 C 
ATOM     60  C   UNL     1       8.711   6.380  23.371  0.00  0.00    +0.180 C 
ATOM     61  C   UNL     1       7.380   6.184  22.631  0.00  0.00    +0.174 C 
BRANCH  61  62
ATOM     62  O   UNL     1       7.603   6.404  21.226  0.00  0.00    -0.387 OA
ATOM     63  H   UNL     1       8.335   7.039  21.121  0.00  0.00    +0.210 HD
ENDBRANCH  61  62
BRANCH  60  64
ATOM     64  O   UNL     1       8.539   6.485  24.790  0.00  0.00    -0.386 OA
ATOM     65  H   UNL     1       9.222   5.953  25.237  0.00  0.00    +0.210 HD
ENDBRANCH  60  64
BRANCH  59  66
ATOM     66  O   UNL     1      10.907   5.369  23.729  0.00  0.00    -0.383 OA
ATOM     67  H   UNL     1      10.700   5.754  24.600  0.00  0.00    +0.210 HD
ENDBRANCH  59  66
ENDBRANCH  54  58
ENDBRANCH   1  54
TORSDOF 22
ENDMDL
MODEL 6
REMARK VINA RESULT:      -5.9      2.248      5.512
REMARK  Name = 
REMARK  23 active torsions:
REMARK  status: ('A' for Active; 'I' for Inactive)
REMARK    1  A    between atoms: C_1  and  C_2
REMARK    2  A    between atoms: C_4  and  O_69
REMARK    3  A    between atoms: C_6  and  O_68
REMARK    4  A    between atoms: C_8  and  O_67
REMARK    5  A    between atoms: C_10  and  O_13
REMARK    6  A    between atoms: O_13  and  C_14
REMARK    7  A    between atoms: C_16  and  O_66
REMARK    8  A    between atoms: C_21  and  C_58
REMARK    9  A    between atoms: C_22  and  O_25
REMARK   10  A    between atoms: O_25  and  C_26
REMARK   11  A    between atoms: C_28  and  O_41
REMARK   12  A    between atoms: C_30  and  O_40
REMARK   13  A    between atoms: C_32  and  O_39
REMARK   14  A    between atoms: C_34  and  C_37
REMARK   15  A    between atoms: C_37  and  O_38
REMARK   16  A    between atoms: O_41  and  C_42
REMARK   17  A    between atoms: C_44  and  O_57
REMARK   18  A    between atoms: C_46  and  O_56
REMARK   19  A    between atoms: C_48  and  O_55
REMARK   20  A    between atoms: C_50  and  C_53
REMARK   21  A    between atoms: C_53  and  O_54
REMARK   22  A    between atoms: C_60  and  O_65
REMARK   23  A    between atoms: C_61  and  O_64
REMARK                            x       y       z     vdW  Elec       q    Type
REMARK                         _______ _______ _______ _____ _____    ______ ____
ROOT
ATOM      1  C   UNL     1       5.401  -2.886  25.885  0.00  0.00    +0.131 A 
ATOM      2  C   UNL     1       4.556  -1.779  25.783  0.00  0.00    +0.093 A 
ATOM      3  C   UNL     1       4.986  -0.496  26.179  0.00  0.00    +0.147 A 
ATOM      4  O   UNL     1       4.117   0.560  26.072  0.00  0.00    -0.451 OA
ATOM      5  C   UNL     1       4.573   1.880  26.269  0.00  0.00    +0.181 A 
ATOM      6  C   UNL     1       5.815   2.171  26.739  0.00  0.00    +0.214 A 
ATOM      7  C   UNL     1       6.593   0.995  27.242  0.00  0.00    +0.238 A 
ATOM      8  O   UNL     1       7.425   1.130  28.134  0.00  0.00    -0.283 OA
ATOM      9  C   UNL     1       6.257  -0.327  26.696  0.00  0.00    +0.109 A 
ATOM     10  C   UNL     1       7.129  -1.406  26.759  0.00  0.00    +0.135 A 
ATOM     11  C   UNL     1       6.704  -2.684  26.380  0.00  0.00    +0.092 A 
ENDROOT
BRANCH   5  12
ATOM     12  C   UNL     1       3.478   2.861  25.972  0.00  0.00    +0.025 A 
ATOM     13  C   UNL     1       3.007   2.952  24.636  0.00  0.00    +0.015 A 
ATOM     14  C   UNL     1       2.007   3.853  24.255  0.00  0.00    +0.050 A 
ATOM     15  C   UNL     1       1.443   4.668  25.214  0.00  0.00    +0.158 A 
ATOM     16  C   UNL     1       1.871   4.591  26.536  0.00  0.00    +0.159 A 
ATOM     17  C   UNL     1       2.890   3.712  26.921  0.00  0.00    +0.060 A 
BRANCH  16  18
ATOM     18  O   UNL     1       1.245   5.413  27.440  0.00  0.00    -0.503 OA
ATOM     19  H   UNL     1       1.155   6.299  27.045  0.00  0.00    +0.292 HD
ENDBRANCH  16  18
BRANCH  15  20
ATOM     20  O   UNL     1       0.454   5.537  24.851  0.00  0.00    -0.503 OA
ATOM     21  H   UNL     1       0.839   6.425  24.993  0.00  0.00    +0.292 HD
ENDBRANCH  15  20
ENDBRANCH   5  12
BRANCH  10  22
ATOM     22  O   UNL     1       8.426  -1.229  27.144  0.00  0.00    -0.506 OA
ATOM     23  H   UNL     1       8.509  -1.269  28.112  0.00  0.00    +0.292 HD
ENDBRANCH  10  22
BRANCH   6  24
ATOM     24  O   UNL     1       6.329   3.460  26.946  0.00  0.00    -0.453 OA
BRANCH  24  25
ATOM     25  C   UNL     1       7.539   3.790  26.192  0.00  0.00    +0.340 C 
ATOM     26  O   UNL     1       8.288   4.882  26.716  0.00  0.00    -0.331 OA
ATOM     27  C   UNL     1       7.832   6.213  26.508  0.00  0.00    +0.179 C 
ATOM     28  C   UNL     1       7.400   6.531  25.064  0.00  0.00    +0.177 C 
ATOM     29  C   UNL     1       6.734   5.360  24.322  0.00  0.00    +0.180 C 
ATOM     30  C   UNL     1       7.215   3.940  24.692  0.00  0.00    +0.221 C 
BRANCH  29  31
ATOM     31  O   UNL     1       5.304   5.404  24.541  0.00  0.00    -0.386 OA
ATOM     32  H   UNL     1       5.148   5.627  25.484  0.00  0.00    +0.210 HD
ENDBRANCH  29  31
BRANCH  28  33
ATOM     33  O   UNL     1       8.512   6.979  24.276  0.00  0.00    -0.386 OA
ATOM     34  H   UNL     1       8.415   6.665  23.361  0.00  0.00    +0.210 HD
ENDBRANCH  28  33
BRANCH  30  35
ATOM     35  O   UNL     1       8.281   3.464  23.821  0.00  0.00    -0.337 OA
BRANCH  35  36
ATOM     36  C   UNL     1       7.998   2.251  23.062  0.00  0.00    +0.282 C 
ATOM     37  O   UNL     1       8.378   1.142  23.888  0.00  0.00    -0.341 OA
ATOM     38  C   UNL     1       9.235   0.077  23.416  0.00  0.00    +0.178 C 
ATOM     39  C   UNL     1      10.116   0.334  22.180  0.00  0.00    +0.177 C 
ATOM     40  C   UNL     1      10.112   1.808  21.801  0.00  0.00    +0.179 C 
ATOM     41  C   UNL     1       8.670   2.283  21.670  0.00  0.00    +0.201 C 
BRANCH  41  42
ATOM     42  O   UNL     1       7.942   1.510  20.705  0.00  0.00    -0.384 OA
ATOM     43  H   UNL     1       7.182   2.042  20.407  0.00  0.00    +0.210 HD
ENDBRANCH  41  42
BRANCH  40  44
ATOM     44  O   UNL     1      10.853   2.589  22.747  0.00  0.00    -0.386 OA
ATOM     45  H   UNL     1      10.759   3.541  22.537  0.00  0.00    +0.210 HD
ENDBRANCH  40  44
BRANCH  39  46
ATOM     46  O   UNL     1       9.670  -0.506  21.101  0.00  0.00    -0.386 OA
ATOM     47  H   UNL     1       9.058   0.006  20.537  0.00  0.00    +0.210 HD
ENDBRANCH  39  46
BRANCH  38  48
ATOM     48  C   UNL     1      10.151  -0.241  24.618  0.00  0.00    +0.190 C 
BRANCH  48  49
ATOM     49  O   UNL     1       9.905   0.665  25.693  0.00  0.00    -0.392 OA
ATOM     50  H   UNL     1       8.941   0.657  25.843  0.00  0.00    +0.210 HD
ENDBRANCH  48  49
ENDBRANCH  38  48
ENDBRANCH  35  36
ENDBRANCH  30  35
BRANCH  27  51
ATOM     51  C   UNL     1       6.770   6.602  27.542  0.00  0.00    +0.190 C 
BRANCH  51  52
ATOM     52  O   UNL     1       5.472   6.215  27.102  0.00  0.00    -0.392 OA
ATOM     53  H   UNL     1       5.419   5.254  27.292  0.00  0.00    +0.210 HD
ENDBRANCH  51  52
ENDBRANCH  27  51
ENDBRANCH  24  25
ENDBRANCH   6  24
BRANCH   1  54
ATOM     54  O   UNL     1       4.905  -4.104  25.485  0.00  0.00    -0.461 OA
BRANCH  54  58
ATOM     55  C   UNL     1       2.236  -4.875  24.150  0.00  0.00    +0.041 C 
ATOM     56  C   UNL     1       2.309  -5.720  25.419  0.00  0.00    +0.150 C 
ATOM     57  O   UNL     1       2.942  -5.027  26.512  0.00  0.00    -0.334 OA
ATOM     58  C   UNL     1       4.376  -4.987  26.504  0.00  0.00    +0.339 C 
ATOM     59  C   UNL     1       4.981  -6.401  26.383  0.00  0.00    +0.214 C 
ATOM     60  C   UNL     1       4.427  -7.140  25.164  0.00  0.00    +0.180 C 
ATOM     61  C   UNL     1       2.892  -7.131  25.205  0.00  0.00    +0.174 C 
BRANCH  61  62
ATOM     62  O   UNL     1       2.460  -7.976  26.287  0.00  0.00    -0.387 OA
ATOM     63  H   UNL     1       2.905  -8.840  26.207  0.00  0.00    +0.210 HD
ENDBRANCH  61  62
BRANCH  60  64
ATOM     64  O   UNL     1       4.946  -6.584  23.949  0.00  0.00    -0.386 OA
ATOM     65  H   UNL     1       4.279  -6.673  23.244  0.00  0.00    +0.210 HD
ENDBRANCH  60  64
BRANCH  59  66
ATOM     66  O   UNL     1       6.411  -6.352  26.354  0.00  0.00    -0.383 OA
ATOM     67  H   UNL     1       6.660  -5.637  25.740  0.00  0.00    +0.210 HD
ENDBRANCH  59  66
ENDBRANCH  54  58
ENDBRANCH   1  54
TORSDOF 22
ENDMDL
MODEL 7
REMARK VINA RESULT:      -5.8      2.181      5.316
REMARK  Name = 
REMARK  23 active torsions:
REMARK  status: ('A' for Active; 'I' for Inactive)
REMARK    1  A    between atoms: C_1  and  C_2
REMARK    2  A    between atoms: C_4  and  O_69
REMARK    3  A    between atoms: C_6  and  O_68
REMARK    4  A    between atoms: C_8  and  O_67
REMARK    5  A    between atoms: C_10  and  O_13
REMARK    6  A    between atoms: O_13  and  C_14
REMARK    7  A    between atoms: C_16  and  O_66
REMARK    8  A    between atoms: C_21  and  C_58
REMARK    9  A    between atoms: C_22  and  O_25
REMARK   10  A    between atoms: O_25  and  C_26
REMARK   11  A    between atoms: C_28  and  O_41
REMARK   12  A    between atoms: C_30  and  O_40
REMARK   13  A    between atoms: C_32  and  O_39
REMARK   14  A    between atoms: C_34  and  C_37
REMARK   15  A    between atoms: C_37  and  O_38
REMARK   16  A    between atoms: O_41  and  C_42
REMARK   17  A    between atoms: C_44  and  O_57
REMARK   18  A    between atoms: C_46  and  O_56
REMARK   19  A    between atoms: C_48  and  O_55
REMARK   20  A    between atoms: C_50  and  C_53
REMARK   21  A    between atoms: C_53  and  O_54
REMARK   22  A    between atoms: C_60  and  O_65
REMARK   23  A    between atoms: C_61  and  O_64
REMARK                            x       y       z     vdW  Elec       q    Type
REMARK                         _______ _______ _______ _____ _____    ______ ____
ROOT
ATOM      1  C   UNL     1       4.183  -3.746  26.003  0.00  0.00    +0.131 A 
ATOM      2  C   UNL     1       3.557  -2.521  26.243  0.00  0.00    +0.093 A 
ATOM      3  C   UNL     1       4.308  -1.336  26.390  0.00  0.00    +0.147 A 
ATOM      4  O   UNL     1       3.650  -0.158  26.637  0.00  0.00    -0.451 OA
ATOM      5  C   UNL     1       4.345   1.068  26.592  0.00  0.00    +0.181 A 
ATOM      6  C   UNL     1       5.698   1.148  26.484  0.00  0.00    +0.214 A 
ATOM      7  C   UNL     1       6.423  -0.153  26.637  0.00  0.00    +0.238 A 
ATOM      8  O   UNL     1       7.563  -0.185  27.089  0.00  0.00    -0.283 OA
ATOM      9  C   UNL     1       5.687  -1.383  26.316  0.00  0.00    +0.109 A 
ATOM     10  C   UNL     1       6.325  -2.583  26.028  0.00  0.00    +0.135 A 
ATOM     11  C   UNL     1       5.587  -3.764  25.894  0.00  0.00    +0.092 A 
ENDROOT
BRANCH   5  12
ATOM     12  C   UNL     1       3.394   2.215  26.764  0.00  0.00    +0.025 A 
ATOM     13  C   UNL     1       3.503   3.002  27.942  0.00  0.00    +0.015 A 
ATOM     14  C   UNL     1       2.648   4.077  28.205  0.00  0.00    +0.050 A 
ATOM     15  C   UNL     1       1.677   4.399  27.280  0.00  0.00    +0.158 A 
ATOM     16  C   UNL     1       1.555   3.657  26.108  0.00  0.00    +0.159 A 
ATOM     17  C   UNL     1       2.389   2.563  25.849  0.00  0.00    +0.060 A 
BRANCH  16  18
ATOM     18  O   UNL     1       0.584   4.052  25.222  0.00  0.00    -0.503 OA
ATOM     19  H   UNL     1       0.976   4.103  24.331  0.00  0.00    +0.292 HD
ENDBRANCH  16  18
BRANCH  15  20
ATOM     20  O   UNL     1       0.850   5.457  27.524  0.00  0.00    -0.503 OA
ATOM     21  H   UNL     1       0.854   5.556  28.498  0.00  0.00    +0.292 HD
ENDBRANCH  15  20
ENDBRANCH   5  12
BRANCH  10  22
ATOM     22  O   UNL     1       7.674  -2.620  25.822  0.00  0.00    -0.506 OA
ATOM     23  H   UNL     1       7.914  -3.354  25.232  0.00  0.00    +0.292 HD
ENDBRANCH  10  22
BRANCH   6  24
ATOM     24  O   UNL     1       6.444   2.334  26.424  0.00  0.00    -0.453 OA
BRANCH  24  25
ATOM     25  C   UNL     1       7.413   2.421  25.331  0.00  0.00    +0.340 C 
ATOM     26  O   UNL     1       8.338   3.499  25.437  0.00  0.00    -0.331 OA
ATOM     27  C   UNL     1       7.916   4.822  25.130  0.00  0.00    +0.179 C 
ATOM     28  C   UNL     1       7.118   4.958  23.820  0.00  0.00    +0.177 C 
ATOM     29  C   UNL     1       6.207   3.762  23.497  0.00  0.00    +0.180 C 
ATOM     30  C   UNL     1       6.692   2.373  23.968  0.00  0.00    +0.221 C 
BRANCH  29  31
ATOM     31  O   UNL     1       4.899   3.983  24.077  0.00  0.00    -0.386 OA
ATOM     32  H   UNL     1       4.788   3.356  24.824  0.00  0.00    +0.210 HD
ENDBRANCH  29  31
BRANCH  28  33
ATOM     33  O   UNL     1       7.989   5.166  22.699  0.00  0.00    -0.386 OA
ATOM     34  H   UNL     1       8.625   4.433  22.635  0.00  0.00    +0.210 HD
ENDBRANCH  28  33
BRANCH  30  35
ATOM     35  O   UNL     1       7.444   1.664  22.942  0.00  0.00    -0.337 OA
BRANCH  35  36
ATOM     36  C   UNL     1       7.837   0.296  23.262  0.00  0.00    +0.282 C 
ATOM     37  O   UNL     1       8.887   0.379  24.236  0.00  0.00    -0.341 OA
ATOM     38  C   UNL     1      10.142  -0.323  24.091  0.00  0.00    +0.178 C 
ATOM     39  C   UNL     1      10.557  -0.808  22.689  0.00  0.00    +0.177 C 
ATOM     40  C   UNL     1       9.647  -0.224  21.617  0.00  0.00    +0.179 C 
ATOM     41  C   UNL     1       8.196  -0.504  21.989  0.00  0.00    +0.201 C 
BRANCH  41  42
ATOM     42  O   UNL     1       7.951  -1.908  22.151  0.00  0.00    -0.384 OA
ATOM     43  H   UNL     1       7.997  -2.113  23.102  0.00  0.00    +0.210 HD
ENDBRANCH  41  42
BRANCH  40  44
ATOM     44  O   UNL     1       9.896   1.175  21.431  0.00  0.00    -0.386 OA
ATOM     45  H   UNL     1      10.259   1.559  22.255  0.00  0.00    +0.210 HD
ENDBRANCH  40  44
BRANCH  39  46
ATOM     46  O   UNL     1      10.564  -2.246  22.672  0.00  0.00    -0.386 OA
ATOM     47  H   UNL     1      11.318  -2.549  22.129  0.00  0.00    +0.210 HD
ENDBRANCH  39  46
BRANCH  38  48
ATOM     48  C   UNL     1      11.204   0.676  24.600  0.00  0.00    +0.190 C 
BRANCH  48  49
ATOM     49  O   UNL     1      10.878   2.007  24.198  0.00  0.00    -0.392 OA
ATOM     50  H   UNL     1      10.399   2.408  24.946  0.00  0.00    +0.210 HD
ENDBRANCH  48  49
ENDBRANCH  38  48
ENDBRANCH  35  36
ENDBRANCH  30  35
BRANCH  27  51
ATOM     51  C   UNL     1       7.209   5.469  26.324  0.00  0.00    +0.190 C 
BRANCH  51  52
ATOM     52  O   UNL     1       7.638   4.878  27.546  0.00  0.00    -0.392 OA
ATOM     53  H   UNL     1       8.390   4.300  27.295  0.00  0.00    +0.210 HD
ENDBRANCH  51  52
ENDBRANCH  27  51
ENDBRANCH  24  25
ENDBRANCH   6  24
BRANCH   1  54
ATOM     54  O   UNL     1       3.382  -4.856  25.879  0.00  0.00    -0.461 OA
BRANCH  54  58
ATOM     55  C   UNL     1       1.381  -7.032  26.753  0.00  0.00    +0.041 C 
ATOM     56  C   UNL     1       2.234  -7.683  25.668  0.00  0.00    +0.150 C 
ATOM     57  O   UNL     1       3.604  -7.239  25.696  0.00  0.00    -0.334 OA
ATOM     58  C   UNL     1       3.881  -5.966  25.094  0.00  0.00    +0.339 C 
ATOM     59  C   UNL     1       3.358  -5.901  23.644  0.00  0.00    +0.214 C 
ATOM     60  C   UNL     1       1.871  -6.251  23.573  0.00  0.00    +0.180 C 
ATOM     61  C   UNL     1       1.624  -7.605  24.254  0.00  0.00    +0.174 C 
BRANCH  61  62
ATOM     62  O   UNL     1       2.212  -8.638  23.442  0.00  0.00    -0.387 OA
ATOM     63  H   UNL     1       3.103  -8.353  23.170  0.00  0.00    +0.210 HD
ENDBRANCH  61  62
BRANCH  60  64
ATOM     64  O   UNL     1       1.071  -5.202  24.133  0.00  0.00    -0.386 OA
ATOM     65  H   UNL     1       1.573  -4.758  24.841  0.00  0.00    +0.210 HD
ENDBRANCH  60  64
BRANCH  59  66
ATOM     66  O   UNL     1       3.618  -4.623  23.057  0.00  0.00    -0.383 OA
ATOM     67  H   UNL     1       4.007  -4.785  22.178  0.00  0.00    +0.210 HD
ENDBRANCH  59  66
ENDBRANCH  54  58
ENDBRANCH   1  54
TORSDOF 22
ENDMDL
MODEL 8
REMARK VINA RESULT:      -5.7      2.558     10.415
REMARK  Name = 
REMARK  23 active torsions:
REMARK  status: ('A' for Active; 'I' for Inactive)
REMARK    1  A    between atoms: C_1  and  C_2
REMARK    2  A    between atoms: C_4  and  O_69
REMARK    3  A    between atoms: C_6  and  O_68
REMARK    4  A    between atoms: C_8  and  O_67
REMARK    5  A    between atoms: C_10  and  O_13
REMARK    6  A    between atoms: O_13  and  C_14
REMARK    7  A    between atoms: C_16  and  O_66
REMARK    8  A    between atoms: C_21  and  C_58
REMARK    9  A    between atoms: C_22  and  O_25
REMARK   10  A    between atoms: O_25  and  C_26
REMARK   11  A    between atoms: C_28  and  O_41
REMARK   12  A    between atoms: C_30  and  O_40
REMARK   13  A    between atoms: C_32  and  O_39
REMARK   14  A    between atoms: C_34  and  C_37
REMARK   15  A    between atoms: C_37  and  O_38
REMARK   16  A    between atoms: O_41  and  C_42
REMARK   17  A    between atoms: C_44  and  O_57
REMARK   18  A    between atoms: C_46  and  O_56
REMARK   19  A    between atoms: C_48  and  O_55
REMARK   20  A    between atoms: C_50  and  C_53
REMARK   21  A    between atoms: C_53  and  O_54
REMARK   22  A    between atoms: C_60  and  O_65
REMARK   23  A    between atoms: C_61  and  O_64
REMARK                            x       y       z     vdW  Elec       q    Type
REMARK                         _______ _______ _______ _____ _____    ______ ____
ROOT
ATOM      1  C   UNL     1       5.227   2.883  25.799  0.00  0.00    +0.131 A 
ATOM      2  C   UNL     1       5.950   1.717  25.537  0.00  0.00    +0.093 A 
ATOM      3  C   UNL     1       5.751   0.550  26.303  0.00  0.00    +0.147 A 
ATOM      4  O   UNL     1       6.493  -0.568  26.017  0.00  0.00    -0.451 OA
ATOM      5  C   UNL     1       6.184  -1.802  26.626  0.00  0.00    +0.181 A 
ATOM      6  C   UNL     1       5.281  -1.924  27.635  0.00  0.00    +0.214 A 
ATOM      7  C   UNL     1       4.796  -0.629  28.209  0.00  0.00    +0.238 A 
ATOM      8  O   UNL     1       4.446  -0.557  29.383  0.00  0.00    -0.283 OA
ATOM      9  C   UNL     1       4.843   0.558  27.345  0.00  0.00    +0.109 A 
ATOM     10  C   UNL     1       4.078   1.692  27.589  0.00  0.00    +0.135 A 
ATOM     11  C   UNL     1       4.280   2.857  26.841  0.00  0.00    +0.092 A 
ENDROOT
BRANCH   5  12
ATOM     12  C   UNL     1       7.044  -2.893  26.061  0.00  0.00    +0.025 A 
ATOM     13  C   UNL     1       6.710  -3.412  24.782  0.00  0.00    +0.015 A 
ATOM     14  C   UNL     1       7.435  -4.447  24.181  0.00  0.00    +0.050 A 
ATOM     15  C   UNL     1       8.526  -4.968  24.844  0.00  0.00    +0.158 A 
ATOM     16  C   UNL     1       8.890  -4.470  26.092  0.00  0.00    +0.159 A 
ATOM     17  C   UNL     1       8.154  -3.454  26.712  0.00  0.00    +0.060 A 
BRANCH  16  18
ATOM     18  O   UNL     1      10.002  -5.018  26.678  0.00  0.00    -0.503 OA
ATOM     19  H   UNL     1      10.311  -4.420  27.383  0.00  0.00    +0.292 HD
ENDBRANCH  16  18
BRANCH  15  20
ATOM     20  O   UNL     1       9.247  -5.966  24.255  0.00  0.00    -0.503 OA
ATOM     21  H   UNL     1       8.798  -6.128  23.401  0.00  0.00    +0.292 HD
ENDBRANCH  15  20
ENDBRANCH   5  12
BRANCH  10  22
ATOM     22  O   UNL     1       3.087   1.672  28.527  0.00  0.00    -0.506 OA
ATOM     23  H   UNL     1       2.234   1.921  28.134  0.00  0.00    +0.292 HD
ENDBRANCH  10  22
BRANCH   6  24
ATOM     24  O   UNL     1       4.925  -3.121  28.272  0.00  0.00    -0.453 OA
BRANCH  24  25
ATOM     25  C   UNL     1       4.003  -3.984  27.533  0.00  0.00    +0.340 C 
ATOM     26  O   UNL     1       2.676  -4.020  28.048  0.00  0.00    -0.331 OA
ATOM     27  C   UNL     1       2.395  -4.774  29.220  0.00  0.00    +0.179 C 
ATOM     28  C   UNL     1       2.989  -6.196  29.233  0.00  0.00    +0.177 C 
ATOM     29  C   UNL     1       4.355  -6.325  28.538  0.00  0.00    +0.180 C 
ATOM     30  C   UNL     1       4.616  -5.386  27.340  0.00  0.00    +0.221 C 
BRANCH  29  31
ATOM     31  O   UNL     1       5.409  -6.099  29.504  0.00  0.00    -0.386 OA
ATOM     32  H   UNL     1       5.542  -5.129  29.586  0.00  0.00    +0.210 HD
ENDBRANCH  29  31
BRANCH  28  33
ATOM     33  O   UNL     1       2.093  -7.139  28.627  0.00  0.00    -0.386 OA
ATOM     34  H   UNL     1       2.601  -7.861  28.219  0.00  0.00    +0.210 HD
ENDBRANCH  28  33
BRANCH  30  35
ATOM     35  O   UNL     1       4.271  -5.996  26.063  0.00  0.00    -0.337 OA
BRANCH  35  36
ATOM     36  C   UNL     1       2.969  -5.638  25.511  0.00  0.00    +0.282 C 
ATOM     37  O   UNL     1       2.034  -6.624  25.970  0.00  0.00    -0.341 OA
ATOM     38  C   UNL     1       1.139  -7.326  25.077  0.00  0.00    +0.178 C 
ATOM     39  C   UNL     1       1.477  -7.362  23.575  0.00  0.00    +0.177 C 
ATOM     40  C   UNL     1       2.882  -6.836  23.317  0.00  0.00    +0.179 C 
ATOM     41  C   UNL     1       3.031  -5.470  23.975  0.00  0.00    +0.201 C 
BRANCH  41  42
ATOM     42  O   UNL     1       2.048  -4.541  23.497  0.00  0.00    -0.384 OA
ATOM     43  H   UNL     1       2.501  -3.703  23.293  0.00  0.00    +0.210 HD
ENDBRANCH  41  42
BRANCH  40  44
ATOM     44  O   UNL     1       3.875  -7.765  23.773  0.00  0.00    -0.386 OA
ATOM     45  H   UNL     1       3.798  -8.603  23.273  0.00  0.00    +0.210 HD
ENDBRANCH  40  44
BRANCH  39  46
ATOM     46  O   UNL     1       0.479  -6.622  22.850  0.00  0.00    -0.386 OA
ATOM     47  H   UNL     1       0.501  -6.900  21.913  0.00  0.00    +0.210 HD
ENDBRANCH  39  46
BRANCH  38  48
ATOM     48  C   UNL     1       1.118  -8.774  25.612  0.00  0.00    +0.190 C 
BRANCH  48  49
ATOM     49  O   UNL     1       2.308  -9.467  25.238  0.00  0.00    -0.392 OA
ATOM     50  H   UNL     1       2.179 -10.396  25.508  0.00  0.00    +0.210 HD
ENDBRANCH  48  49
ENDBRANCH  38  48
ENDBRANCH  35  36
ENDBRANCH  30  35
BRANCH  27  51
ATOM     51  C   UNL     1       2.737  -3.980  30.485  0.00  0.00    +0.190 C 
BRANCH  51  52
ATOM     52  O   UNL     1       2.544  -2.586  30.273  0.00  0.00    -0.392 OA
ATOM     53  H   UNL     1       2.812  -2.434  29.341  0.00  0.00    +0.210 HD
ENDBRANCH  51  52
ENDBRANCH  27  51
ENDBRANCH  24  25
ENDBRANCH   6  24
BRANCH   1  54
ATOM     54  O   UNL     1       5.483   3.981  25.012  0.00  0.00    -0.461 OA
BRANCH  54  58
ATOM     55  C   UNL     1       4.219   6.053  23.112  0.00  0.00    +0.041 C 
ATOM     56  C   UNL     1       5.446   5.526  22.373  0.00  0.00    +0.150 C 
ATOM     57  O   UNL     1       5.689   4.129  22.625  0.00  0.00    -0.334 OA
ATOM     58  C   UNL     1       6.343   3.802  23.861  0.00  0.00    +0.339 C 
ATOM     59  C   UNL     1       7.663   4.584  24.026  0.00  0.00    +0.214 C 
ATOM     60  C   UNL     1       7.439   6.089  23.884  0.00  0.00    +0.180 C 
ATOM     61  C   UNL     1       6.713   6.383  22.562  0.00  0.00    +0.174 C 
BRANCH  61  62
ATOM     62  O   UNL     1       7.618   6.113  21.476  0.00  0.00    -0.387 OA
ATOM     63  H   UNL     1       7.249   6.494  20.658  0.00  0.00    +0.210 HD
ENDBRANCH  61  62
BRANCH  60  64
ATOM     64  O   UNL     1       6.740   6.612  25.020  0.00  0.00    -0.386 OA
ATOM     65  H   UNL     1       6.565   5.890  25.651  0.00  0.00    +0.210 HD
ENDBRANCH  60  64
BRANCH  59  66
ATOM     66  O   UNL     1       8.298   4.269  25.269  0.00  0.00    -0.383 OA
ATOM     67  H   UNL     1       7.942   3.410  25.563  0.00  0.00    +0.210 HD
ENDBRANCH  59  66
ENDBRANCH  54  58
ENDBRANCH   1  54
TORSDOF 22
ENDMDL
MODEL 9
REMARK VINA RESULT:      -5.7      1.761      2.347
REMARK  Name = 
REMARK  23 active torsions:
REMARK  status: ('A' for Active; 'I' for Inactive)
REMARK    1  A    between atoms: C_1  and  C_2
REMARK    2  A    between atoms: C_4  and  O_69
REMARK    3  A    between atoms: C_6  and  O_68
REMARK    4  A    between atoms: C_8  and  O_67
REMARK    5  A    between atoms: C_10  and  O_13
REMARK    6  A    between atoms: O_13  and  C_14
REMARK    7  A    between atoms: C_16  and  O_66
REMARK    8  A    between atoms: C_21  and  C_58
REMARK    9  A    between atoms: C_22  and  O_25
REMARK   10  A    between atoms: O_25  and  C_26
REMARK   11  A    between atoms: C_28  and  O_41
REMARK   12  A    between atoms: C_30  and  O_40
REMARK   13  A    between atoms: C_32  and  O_39
REMARK   14  A    between atoms: C_34  and  C_37
REMARK   15  A    between atoms: C_37  and  O_38
REMARK   16  A    between atoms: O_41  and  C_42
REMARK   17  A    between atoms: C_44  and  O_57
REMARK   18  A    between atoms: C_46  and  O_56
REMARK   19  A    between atoms: C_48  and  O_55
REMARK   20  A    between atoms: C_50  and  C_53
REMARK   21  A    between atoms: C_53  and  O_54
REMARK   22  A    between atoms: C_60  and  O_65
REMARK   23  A    between atoms: C_61  and  O_64
REMARK                            x       y       z     vdW  Elec       q    Type
REMARK                         _______ _______ _______ _____ _____    ______ ____
ROOT
ATOM      1  C   UNL     1       5.682  -4.131  25.044  0.00  0.00    +0.131 A 
ATOM      2  C   UNL     1       5.389  -2.979  25.777  0.00  0.00    +0.093 A 
ATOM      3  C   UNL     1       6.189  -1.823  25.665  0.00  0.00    +0.147 A 
ATOM      4  O   UNL     1       5.870  -0.718  26.413  0.00  0.00    -0.451 OA
ATOM      5  C   UNL     1       6.521   0.511  26.182  0.00  0.00    +0.181 A 
ATOM      6  C   UNL     1       7.595   0.635  25.358  0.00  0.00    +0.214 A 
ATOM      7  C   UNL     1       8.179  -0.658  24.881  0.00  0.00    +0.238 A 
ATOM      8  O   UNL     1       9.374  -0.745  24.615  0.00  0.00    -0.283 OA
ATOM      9  C   UNL     1       7.293  -1.829  24.834  0.00  0.00    +0.109 A 
ATOM     10  C   UNL     1       7.572  -2.948  24.060  0.00  0.00    +0.135 A 
ATOM     11  C   UNL     1       6.790  -4.103  24.176  0.00  0.00    +0.092 A 
ENDROOT
BRANCH   5  12
ATOM     12  C   UNL     1       5.915   1.592  27.027  0.00  0.00    +0.025 A 
ATOM     13  C   UNL     1       4.521   1.833  26.903  0.00  0.00    +0.015 A 
ATOM     14  C   UNL     1       3.867   2.834  27.629  0.00  0.00    +0.050 A 
ATOM     15  C   UNL     1       4.598   3.601  28.513  0.00  0.00    +0.158 A 
ATOM     16  C   UNL     1       5.963   3.378  28.670  0.00  0.00    +0.159 A 
ATOM     17  C   UNL     1       6.629   2.397  27.927  0.00  0.00    +0.060 A 
BRANCH  16  18
ATOM     18  O   UNL     1       6.618   4.161  29.587  0.00  0.00    -0.503 OA
ATOM     19  H   UNL     1       6.428   3.822  30.480  0.00  0.00    +0.292 HD
ENDBRANCH  16  18
BRANCH  15  20
ATOM     20  O   UNL     1       3.962   4.569  29.237  0.00  0.00    -0.503 OA
ATOM     21  H   UNL     1       3.823   4.169  30.119  0.00  0.00    +0.292 HD
ENDBRANCH  15  20
ENDBRANCH   5  12
BRANCH  10  22
ATOM     22  O   UNL     1       8.580  -2.922  23.140  0.00  0.00    -0.506 OA
ATOM     23  H   UNL     1       8.993  -3.798  23.054  0.00  0.00    +0.292 HD
ENDBRANCH  10  22
BRANCH   6  24
ATOM     24  O   UNL     1       8.278   1.828  25.079  0.00  0.00    -0.453 OA
BRANCH  24  25
ATOM     25  C   UNL     1       7.749   2.618  23.967  0.00  0.00    +0.340 C 
ATOM     26  O   UNL     1       8.679   2.865  22.916  0.00  0.00    -0.331 OA
ATOM     27  C   UNL     1       9.695   3.844  23.090  0.00  0.00    +0.179 C 
ATOM     28  C   UNL     1       9.208   5.186  23.671  0.00  0.00    +0.177 C 
ATOM     29  C   UNL     1       8.068   5.064  24.695  0.00  0.00    +0.180 C 
ATOM     30  C   UNL     1       7.072   3.901  24.491  0.00  0.00    +0.221 C 
BRANCH  29  31
ATOM     31  O   UNL     1       8.628   4.927  26.023  0.00  0.00    -0.386 OA
ATOM     32  H   UNL     1       8.281   5.661  26.576  0.00  0.00    +0.210 HD
ENDBRANCH  29  31
BRANCH  28  33
ATOM     33  O   UNL     1       8.776   6.076  22.632  0.00  0.00    -0.386 OA
ATOM     34  H   UNL     1       8.154   6.729  22.995  0.00  0.00    +0.210 HD
ENDBRANCH  28  33
BRANCH  30  35
ATOM     35  O   UNL     1       5.902   4.293  23.718  0.00  0.00    -0.337 OA
BRANCH  35  36
ATOM     36  C   UNL     1       4.756   4.771  24.483  0.00  0.00    +0.282 C 
ATOM     37  O   UNL     1       3.675   3.863  24.227  0.00  0.00    -0.341 OA
ATOM     38  C   UNL     1       2.362   4.310  23.820  0.00  0.00    +0.178 C 
ATOM     39  C   UNL     1       2.218   5.721  23.218  0.00  0.00    +0.177 C 
ATOM     40  C   UNL     1       3.581   6.331  22.921  0.00  0.00    +0.179 C 
ATOM     41  C   UNL     1       4.445   6.253  24.173  0.00  0.00    +0.201 C 
BRANCH  41  42
ATOM     42  O   UNL     1       3.826   6.915  25.286  0.00  0.00    -0.384 OA
ATOM     43  H   UNL     1       2.936   6.538  25.402  0.00  0.00    +0.210 HD
ENDBRANCH  41  42
BRANCH  40  44
ATOM     44  O   UNL     1       4.201   5.691  21.798  0.00  0.00    -0.386 OA
ATOM     45  H   UNL     1       4.279   6.325  21.056  0.00  0.00    +0.210 HD
ENDBRANCH  40  44
BRANCH  39  46
ATOM     46  O   UNL     1       1.441   6.537  24.112  0.00  0.00    -0.386 OA
ATOM     47  H   UNL     1       1.261   6.027  24.926  0.00  0.00    +0.210 HD
ENDBRANCH  39  46
BRANCH  38  48
ATOM     48  C   UNL     1       1.912   3.276  22.765  0.00  0.00    +0.190 C 
BRANCH  48  49
ATOM     49  O   UNL     1       3.012   2.883  21.944  0.00  0.00    -0.392 OA
ATOM     50  H   UNL     1       2.868   1.943  21.727  0.00  0.00    +0.210 HD
ENDBRANCH  48  49
ENDBRANCH  38  48
ENDBRANCH  35  36
ENDBRANCH  30  35
BRANCH  27  51
ATOM     51  C   UNL     1      10.893   3.270  23.852  0.00  0.00    +0.190 C 
BRANCH  51  52
ATOM     52  O   UNL     1      10.843   1.847  23.872  0.00  0.00    -0.392 OA
ATOM     53  H   UNL     1      11.763   1.567  24.068  0.00  0.00    +0.210 HD
ENDBRANCH  51  52
ENDBRANCH  27  51
ENDBRANCH  24  25
ENDBRANCH   6  24
BRANCH   1  54
ATOM     54  O   UNL     1       4.859  -5.219  25.214  0.00  0.00    -0.461 OA
BRANCH  54  58
ATOM     55  C   UNL     1       2.831  -7.188  26.444  0.00  0.00    +0.041 C 
ATOM     56  C   UNL     1       3.092  -7.709  25.033  0.00  0.00    +0.150 C 
ATOM     57  O   UNL     1       4.453  -7.506  24.609  0.00  0.00    -0.334 OA
ATOM     58  C   UNL     1       4.793  -6.192  24.143  0.00  0.00    +0.339 C 
ATOM     59  C   UNL     1       3.839  -5.724  23.025  0.00  0.00    +0.214 C 
ATOM     60  C   UNL     1       2.379  -5.808  23.469  0.00  0.00    +0.180 C 
ATOM     61  C   UNL     1       2.074  -7.223  23.983  0.00  0.00    +0.174 C 
BRANCH  61  62
ATOM     62  O   UNL     1       2.098  -8.130  22.865  0.00  0.00    -0.387 OA
ATOM     63  H   UNL     1       1.238  -8.585  22.812  0.00  0.00    +0.210 HD
ENDBRANCH  61  62
BRANCH  60  64
ATOM     64  O   UNL     1       2.079  -4.797  24.438  0.00  0.00    -0.386 OA
ATOM     65  H   UNL     1       1.217  -4.990  24.849  0.00  0.00    +0.210 HD
ENDBRANCH  60  64
BRANCH  59  66
ATOM     66  O   UNL     1       4.171  -4.405  22.580  0.00  0.00    -0.383 OA
ATOM     67  H   UNL     1       5.118  -4.410  22.348  0.00  0.00    +0.210 HD
ENDBRANCH  59  66
ENDBRANCH  54  58
ENDBRANCH   1  54
TORSDOF 22
ENDMDL
