MODEL 1
REMARK VINA RESULT:      -8.2      0.000      0.000
REMARK  Name = 
REMARK  10 active torsions:
REMARK  status: ('A' for Active; 'I' for Inactive)
REMARK    1  A    between atoms: C_3  and  O_22
REMARK    2  A    between atoms: C_4  and  O_21
REMARK    3  A    between atoms: C_6  and  C_7
REMARK    4  A    between atoms: C_12  and  O_19
REMARK    5  A    between atoms: C_14  and  O_18
REMARK    6  A    between atoms: O_22  and  C_23
REMARK    7  A    between atoms: C_25  and  O_39
REMARK    8  A    between atoms: C_27  and  O_38
REMARK    9  A    between atoms: C_29  and  O_37
REMARK   10  A    between atoms: C_31  and  C_34
REMARK                            x       y       z     vdW  Elec       q    Type
REMARK                         _______ _______ _______ _____ _____    ______ ____
ROOT
ATOM      1  C   UNL     1       9.693  -0.349  23.739  0.00  0.00    +0.015 A 
ATOM      2  C   UNL     1       8.647   0.578  23.579  0.00  0.00    +0.020 A 
ATOM      3  C   UNL     1       7.393   0.067  23.200  0.00  0.00    +0.060 A 
ATOM      4  C   UNL     1       7.226  -1.300  22.929  0.00  0.00    +0.159 A 
ATOM      5  C   UNL     1       8.292  -2.198  23.037  0.00  0.00    +0.165 A 
ATOM      6  C   UNL     1       9.515  -1.712  23.491  0.00  0.00    +0.050 A 
ENDROOT
BRANCH   2   7
ATOM      7  C   UNL     1       8.953   2.031  23.833  0.00  0.00    +0.132 A 
ATOM      8  O   UNL     1      10.293   2.301  23.561  0.00  0.00    -0.455 OA
ATOM      9  C   UNL     1      10.764   3.576  23.638  0.00  0.00    +0.146 A 
ATOM     10  C   UNL     1       9.961   4.641  23.988  0.00  0.00    +0.105 A 
ATOM     11  C   UNL     1      10.513   5.932  24.059  0.00  0.00    +0.135 A 
ATOM     12  C   UNL     1      11.861   6.149  23.785  0.00  0.00    +0.091 A 
ATOM     13  C   UNL     1      12.656   5.066  23.426  0.00  0.00    +0.124 A 
ATOM     14  C   UNL     1       8.545   4.389  24.272  0.00  0.00    +0.189 A 
ATOM     15  O   UNL     1       7.865   5.386  24.542  0.00  0.00    -0.288 OA
ATOM     16  C   UNL     1      12.119   3.783  23.345  0.00  0.00    +0.092 A 
ATOM     17  C   UNL     1       8.020   2.955  24.197  0.00  0.00    -0.015 A 
ATOM     18  O   UNL     1       6.780   2.839  24.446  0.00  0.00    -0.869 OA
BRANCH  11  19
ATOM     19  O   UNL     1       9.773   7.038  24.396  0.00  0.00    -0.506 OA
ATOM     20  H   UNL     1      10.086   7.302  25.299  0.00  0.00    +0.292 HD
ENDBRANCH  11  19
BRANCH  13  21
ATOM     21  O   UNL     1      13.982   5.232  23.144  0.00  0.00    -0.507 OA
ATOM     22  H   UNL     1      14.089   6.096  22.713  0.00  0.00    +0.292 HD
ENDBRANCH  13  21
ENDBRANCH   2   7
BRANCH   4  23
ATOM     23  O   UNL     1       5.996  -1.744  22.515  0.00  0.00    -0.503 OA
ATOM     24  H   UNL     1       5.952  -2.678  22.804  0.00  0.00    +0.292 HD
ENDBRANCH   4  23
BRANCH   5  25
ATOM     25  O   UNL     1       8.071  -3.518  22.693  0.00  0.00    -0.457 OA
BRANCH  25  26
ATOM     26  C   UNL     1       7.847  -4.391  23.825  0.00  0.00    +0.340 C 
ATOM     27  O   UNL     1       7.022  -5.512  23.499  0.00  0.00    -0.328 OA
ATOM     28  C   UNL     1       5.713  -5.631  24.079  0.00  0.00    +0.199 C 
ATOM     29  C   UNL     1       5.599  -5.145  25.519  0.00  0.00    +0.180 C 
ATOM     30  C   UNL     1       6.116  -3.712  25.684  0.00  0.00    +0.180 C 
ATOM     31  C   UNL     1       7.538  -3.601  25.136  0.00  0.00    +0.214 C 
BRANCH  28  32
ATOM     32  C   UNL     1       4.616  -4.898  23.281  0.00  0.00    +0.073 C 
ATOM     33  O   UNL     1       4.943  -4.544  22.111  0.00  0.00    -0.547 OA
ATOM     34  O   UNL     1       3.476  -4.853  23.834  0.00  0.00    -0.547 OA
ENDBRANCH  28  32
BRANCH  29  35
ATOM     35  O   UNL     1       6.399  -6.012  26.366  0.00  0.00    -0.386 OA
ATOM     36  H   UNL     1       5.794  -6.697  26.699  0.00  0.00    +0.210 HD
ENDBRANCH  29  35
BRANCH  30  37
ATOM     37  O   UNL     1       5.246  -2.698  25.192  0.00  0.00    -0.386 OA
ATOM     38  H   UNL     1       5.184  -1.984  25.881  0.00  0.00    +0.210 HD
ENDBRANCH  30  37
BRANCH  31  39
ATOM     39  O   UNL     1       8.413  -4.126  26.185  0.00  0.00    -0.383 OA
ATOM     40  H   UNL     1       9.206  -4.445  25.703  0.00  0.00    +0.210 HD
ENDBRANCH  31  39
ENDBRANCH  25  26
ENDBRANCH   5  25
TORSDOF 10
ENDMDL
MODEL 2
REMARK VINA RESULT:      -8.1      1.115      1.849
REMARK  Name = 
REMARK  10 active torsions:
REMARK  status: ('A' for Active; 'I' for Inactive)
REMARK    1  A    between atoms: C_3  and  O_22
REMARK    2  A    between atoms: C_4  and  O_21
REMARK    3  A    between atoms: C_6  and  C_7
REMARK    4  A    between atoms: C_12  and  O_19
REMARK    5  A    between atoms: C_14  and  O_18
REMARK    6  A    between atoms: O_22  and  C_23
REMARK    7  A    between atoms: C_25  and  O_39
REMARK    8  A    between atoms: C_27  and  O_38
REMARK    9  A    between atoms: C_29  and  O_37
REMARK   10  A    between atoms: C_31  and  C_34
REMARK                            x       y       z     vdW  Elec       q    Type
REMARK                         _______ _______ _______ _____ _____    ______ ____
ROOT
ATOM      1  C   UNL     1       8.650  -0.314  25.338  0.00  0.00    +0.015 A 
ATOM      2  C   UNL     1       8.721   0.363  24.107  0.00  0.00    +0.020 A 
ATOM      3  C   UNL     1       8.547  -0.406  22.944  0.00  0.00    +0.060 A 
ATOM      4  C   UNL     1       8.381  -1.798  23.020  0.00  0.00    +0.159 A 
ATOM      5  C   UNL     1       8.371  -2.463  24.251  0.00  0.00    +0.165 A 
ATOM      6  C   UNL     1       8.460  -1.697  25.410  0.00  0.00    +0.050 A 
ENDROOT
BRANCH   2   7
ATOM      7  C   UNL     1       8.968   1.848  24.138  0.00  0.00    +0.132 A 
ATOM      8  O   UNL     1      10.305   2.126  23.859  0.00  0.00    -0.455 OA
ATOM      9  C   UNL     1      10.729   3.415  23.747  0.00  0.00    +0.146 A 
ATOM     10  C   UNL     1       9.878   4.489  23.907  0.00  0.00    +0.105 A 
ATOM     11  C   UNL     1      10.382   5.796  23.788  0.00  0.00    +0.135 A 
ATOM     12  C   UNL     1      11.729   6.021  23.516  0.00  0.00    +0.091 A 
ATOM     13  C   UNL     1      12.572   4.927  23.350  0.00  0.00    +0.124 A 
ATOM     14  C   UNL     1       8.464   4.228  24.192  0.00  0.00    +0.189 A 
ATOM     15  O   UNL     1       7.742   5.227  24.286  0.00  0.00    -0.288 OA
ATOM     16  C   UNL     1      12.083   3.627  23.458  0.00  0.00    +0.092 A 
ATOM     17  C   UNL     1       7.992   2.781  24.330  0.00  0.00    -0.015 A 
ATOM     18  O   UNL     1       6.751   2.656  24.564  0.00  0.00    -0.869 OA
BRANCH  11  19
ATOM     19  O   UNL     1       9.594   6.911  23.929  0.00  0.00    -0.506 OA
ATOM     20  H   UNL     1       9.168   6.824  24.820  0.00  0.00    +0.292 HD
ENDBRANCH  11  19
BRANCH  13  21
ATOM     21  O   UNL     1      13.900   5.100  23.077  0.00  0.00    -0.507 OA
ATOM     22  H   UNL     1      14.237   5.795  23.666  0.00  0.00    +0.292 HD
ENDBRANCH  13  21
ENDBRANCH   2   7
BRANCH   4  23
ATOM     23  O   UNL     1       8.264  -2.513  21.856  0.00  0.00    -0.503 OA
ATOM     24  H   UNL     1       8.288  -3.452  22.129  0.00  0.00    +0.292 HD
ENDBRANCH   4  23
BRANCH   5  25
ATOM     25  O   UNL     1       8.267  -3.840  24.247  0.00  0.00    -0.457 OA
BRANCH  25  26
ATOM     26  C   UNL     1       6.940  -4.331  24.557  0.00  0.00    +0.340 C 
ATOM     27  O   UNL     1       6.744  -5.682  24.134  0.00  0.00    -0.328 OA
ATOM     28  C   UNL     1       5.811  -5.974  23.080  0.00  0.00    +0.199 C 
ATOM     29  C   UNL     1       4.559  -5.106  23.069  0.00  0.00    +0.180 C 
ATOM     30  C   UNL     1       4.895  -3.611  23.069  0.00  0.00    +0.180 C 
ATOM     31  C   UNL     1       5.827  -3.284  24.235  0.00  0.00    +0.214 C 
BRANCH  28  32
ATOM     32  C   UNL     1       6.425  -5.876  21.670  0.00  0.00    +0.073 C 
ATOM     33  O   UNL     1       5.608  -6.007  20.713  0.00  0.00    -0.547 OA
ATOM     34  O   UNL     1       7.648  -5.544  21.629  0.00  0.00    -0.547 OA
ENDBRANCH  28  32
BRANCH  29  35
ATOM     35  O   UNL     1       3.784  -5.393  24.264  0.00  0.00    -0.386 OA
ATOM     36  H   UNL     1       3.032  -4.775  24.252  0.00  0.00    +0.210 HD
ENDBRANCH  29  35
BRANCH  30  37
ATOM     37  O   UNL     1       5.357  -3.098  21.824  0.00  0.00    -0.386 OA
ATOM     38  H   UNL     1       5.397  -2.106  21.896  0.00  0.00    +0.210 HD
ENDBRANCH  30  37
BRANCH  31  39
ATOM     39  O   UNL     1       4.969  -3.175  25.415  0.00  0.00    -0.383 OA
ATOM     40  H   UNL     1       5.536  -3.478  26.157  0.00  0.00    +0.210 HD
ENDBRANCH  31  39
ENDBRANCH  25  26
ENDBRANCH   5  25
TORSDOF 10
ENDMDL
MODEL 3
REMARK VINA RESULT:      -7.8      1.065      2.364
REMARK  Name = 
REMARK  10 active torsions:
REMARK  status: ('A' for Active; 'I' for Inactive)
REMARK    1  A    between atoms: C_3  and  O_22
REMARK    2  A    between atoms: C_4  and  O_21
REMARK    3  A    between atoms: C_6  and  C_7
REMARK    4  A    between atoms: C_12  and  O_19
REMARK    5  A    between atoms: C_14  and  O_18
REMARK    6  A    between atoms: O_22  and  C_23
REMARK    7  A    between atoms: C_25  and  O_39
REMARK    8  A    between atoms: C_27  and  O_38
REMARK    9  A    between atoms: C_29  and  O_37
REMARK   10  A    between atoms: C_31  and  C_34
REMARK                            x       y       z     vdW  Elec       q    Type
REMARK                         _______ _______ _______ _____ _____    ______ ____
ROOT
ATOM      1  C   UNL     1       8.292  -0.256  22.591  0.00  0.00    +0.015 A 
ATOM      2  C   UNL     1       8.683   0.282  23.830  0.00  0.00    +0.020 A 
ATOM      3  C   UNL     1       8.830  -0.618  24.900  0.00  0.00    +0.060 A 
ATOM      4  C   UNL     1       8.526  -1.979  24.740  0.00  0.00    +0.159 A 
ATOM      5  C   UNL     1       8.081  -2.487  23.515  0.00  0.00    +0.165 A 
ATOM      6  C   UNL     1       8.013  -1.616  22.432  0.00  0.00    +0.050 A 
ENDROOT
BRANCH   2   7
ATOM      7  C   UNL     1       8.921   1.767  23.905  0.00  0.00    +0.132 A 
ATOM      8  O   UNL     1      10.267   2.056  23.689  0.00  0.00    -0.455 OA
ATOM      9  C   UNL     1      10.689   3.350  23.623  0.00  0.00    +0.146 A 
ATOM     10  C   UNL     1       9.826   4.416  23.772  0.00  0.00    +0.105 A 
ATOM     11  C   UNL     1      10.328   5.728  23.704  0.00  0.00    +0.135 A 
ATOM     12  C   UNL     1      11.684   5.964  23.494  0.00  0.00    +0.091 A 
ATOM     13  C   UNL     1      12.539   4.879  23.339  0.00  0.00    +0.124 A 
ATOM     14  C   UNL     1       8.403   4.143  23.992  0.00  0.00    +0.189 A 
ATOM     15  O   UNL     1       7.672   5.137  24.078  0.00  0.00    -0.288 OA
ATOM     16  C   UNL     1      12.053   3.574  23.397  0.00  0.00    +0.092 A 
ATOM     17  C   UNL     1       7.933   2.691  24.077  0.00  0.00    -0.015 A 
ATOM     18  O   UNL     1       6.684   2.556  24.256  0.00  0.00    -0.869 OA
BRANCH  11  19
ATOM     19  O   UNL     1       9.529   6.836  23.837  0.00  0.00    -0.506 OA
ATOM     20  H   UNL     1       9.693   7.173  24.755  0.00  0.00    +0.292 HD
ENDBRANCH  11  19
BRANCH  13  21
ATOM     21  O   UNL     1      13.876   5.063  23.126  0.00  0.00    -0.507 OA
ATOM     22  H   UNL     1      13.998   5.951  22.753  0.00  0.00    +0.292 HD
ENDBRANCH  13  21
ENDBRANCH   2   7
BRANCH   4  23
ATOM     23  O   UNL     1       8.636  -2.811  25.826  0.00  0.00    -0.503 OA
ATOM     24  H   UNL     1       9.465  -3.311  25.681  0.00  0.00    +0.292 HD
ENDBRANCH   4  23
BRANCH   5  25
ATOM     25  O   UNL     1       7.740  -3.824  23.448  0.00  0.00    -0.457 OA
BRANCH  25  26
ATOM     26  C   UNL     1       6.394  -4.065  22.972  0.00  0.00    +0.340 C 
ATOM     27  O   UNL     1       5.453  -3.121  23.488  0.00  0.00    -0.328 OA
ATOM     28  C   UNL     1       4.426  -3.556  24.394  0.00  0.00    +0.199 C 
ATOM     29  C   UNL     1       3.860  -4.941  24.111  0.00  0.00    +0.180 C 
ATOM     30  C   UNL     1       4.959  -6.004  24.018  0.00  0.00    +0.180 C 
ATOM     31  C   UNL     1       6.014  -5.579  22.997  0.00  0.00    +0.214 C 
BRANCH  28  32
ATOM     32  C   UNL     1       4.869  -3.557  25.871  0.00  0.00    +0.073 C 
ATOM     33  O   UNL     1       5.784  -2.734  26.163  0.00  0.00    -0.547 OA
ATOM     34  O   UNL     1       4.177  -4.282  26.648  0.00  0.00    -0.547 OA
ENDBRANCH  28  32
BRANCH  29  35
ATOM     35  O   UNL     1       3.161  -4.905  22.837  0.00  0.00    -0.386 OA
ATOM     36  H   UNL     1       2.356  -5.438  22.957  0.00  0.00    +0.210 HD
ENDBRANCH  29  35
BRANCH  30  37
ATOM     37  O   UNL     1       5.517  -6.403  25.266  0.00  0.00    -0.386 OA
ATOM     38  H   UNL     1       6.466  -6.660  25.111  0.00  0.00    +0.210 HD
ENDBRANCH  30  37
BRANCH  31  39
ATOM     39  O   UNL     1       5.462  -5.919  21.686  0.00  0.00    -0.383 OA
ATOM     40  H   UNL     1       6.092  -5.523  21.046  0.00  0.00    +0.210 HD
ENDBRANCH  31  39
ENDBRANCH  25  26
ENDBRANCH   5  25
TORSDOF 10
ENDMDL
MODEL 4
REMARK VINA RESULT:      -7.6      1.772      3.589
REMARK  Name = 
REMARK  10 active torsions:
REMARK  status: ('A' for Active; 'I' for Inactive)
REMARK    1  A    between atoms: C_3  and  O_22
REMARK    2  A    between atoms: C_4  and  O_21
REMARK    3  A    between atoms: C_6  and  C_7
REMARK    4  A    between atoms: C_12  and  O_19
REMARK    5  A    between atoms: C_14  and  O_18
REMARK    6  A    between atoms: O_22  and  C_23
REMARK    7  A    between atoms: C_25  and  O_39
REMARK    8  A    between atoms: C_27  and  O_38
REMARK    9  A    between atoms: C_29  and  O_37
REMARK   10  A    between atoms: C_31  and  C_34
REMARK                            x       y       z     vdW  Elec       q    Type
REMARK                         _______ _______ _______ _____ _____    ______ ____
ROOT
ATOM      1  C   UNL     1       8.225  -0.936  22.551  0.00  0.00    +0.015 A 
ATOM      2  C   UNL     1       8.446  -0.154  23.698  0.00  0.00    +0.020 A 
ATOM      3  C   UNL     1       8.338  -0.798  24.943  0.00  0.00    +0.060 A 
ATOM      4  C   UNL     1       7.956  -2.147  25.023  0.00  0.00    +0.159 A 
ATOM      5  C   UNL     1       7.682  -2.895  23.873  0.00  0.00    +0.165 A 
ATOM      6  C   UNL     1       7.868  -2.285  22.635  0.00  0.00    +0.050 A 
ENDROOT
BRANCH   2   7
ATOM      7  C   UNL     1       8.788   1.300  23.499  0.00  0.00    +0.132 A 
ATOM      8  O   UNL     1       7.653   2.020  23.130  0.00  0.00    -0.455 OA
ATOM      9  C   UNL     1       7.717   3.373  22.987  0.00  0.00    +0.146 A 
ATOM     10  C   UNL     1       8.882   4.083  23.187  0.00  0.00    +0.105 A 
ATOM     11  C   UNL     1       8.882   5.478  23.013  0.00  0.00    +0.135 A 
ATOM     12  C   UNL     1       7.724   6.152  22.634  0.00  0.00    +0.091 A 
ATOM     13  C   UNL     1       6.555   5.422  22.443  0.00  0.00    +0.124 A 
ATOM     14  C   UNL     1      10.090   3.354  23.585  0.00  0.00    +0.189 A 
ATOM     15  O   UNL     1      11.094   4.046  23.789  0.00  0.00    -0.288 OA
ATOM     16  C   UNL     1       6.541   4.040  22.621  0.00  0.00    +0.092 A 
ATOM     17  C   UNL     1      10.020   1.834  23.734  0.00  0.00    -0.015 A 
ATOM     18  O   UNL     1      11.111   1.293  24.094  0.00  0.00    -0.869 OA
BRANCH  11  19
ATOM     19  O   UNL     1      10.002   6.250  23.200  0.00  0.00    -0.506 OA
ATOM     20  H   UNL     1      10.707   5.836  22.639  0.00  0.00    +0.292 HD
ENDBRANCH  11  19
BRANCH  13  21
ATOM     21  O   UNL     1       5.394   6.041  22.077  0.00  0.00    -0.507 OA
ATOM     22  H   UNL     1       5.600   6.661  21.359  0.00  0.00    +0.292 HD
ENDBRANCH  13  21
ENDBRANCH   2   7
BRANCH   4  23
ATOM     23  O   UNL     1       7.815  -2.720  26.261  0.00  0.00    -0.503 OA
ATOM     24  H   UNL     1       7.940  -3.679  26.114  0.00  0.00    +0.292 HD
ENDBRANCH   4  23
BRANCH   5  25
ATOM     25  O   UNL     1       7.250  -4.197  24.030  0.00  0.00    -0.457 OA
BRANCH  25  26
ATOM     26  C   UNL     1       5.995  -4.485  23.366  0.00  0.00    +0.340 C 
ATOM     27  O   UNL     1       4.951  -3.592  23.759  0.00  0.00    -0.328 OA
ATOM     28  C   UNL     1       3.828  -4.089  24.506  0.00  0.00    +0.199 C 
ATOM     29  C   UNL     1       3.369  -5.490  24.126  0.00  0.00    +0.180 C 
ATOM     30  C   UNL     1       4.517  -6.504  24.173  0.00  0.00    +0.180 C 
ATOM     31  C   UNL     1       5.684  -6.014  23.316  0.00  0.00    +0.214 C 
BRANCH  28  32
ATOM     32  C   UNL     1       4.061  -4.101  26.030  0.00  0.00    +0.073 C 
ATOM     33  O   UNL     1       5.003  -3.364  26.441  0.00  0.00    -0.547 OA
ATOM     34  O   UNL     1       3.200  -4.740  26.709  0.00  0.00    -0.547 OA
ENDBRANCH  28  32
BRANCH  29  35
ATOM     35  O   UNL     1       2.853  -5.458  22.768  0.00  0.00    -0.386 OA
ATOM     36  H   UNL     1       1.943  -5.797  22.818  0.00  0.00    +0.210 HD
ENDBRANCH  29  35
BRANCH  30  37
ATOM     37  O   UNL     1       4.913  -6.904  25.481  0.00  0.00    -0.386 OA
ATOM     38  H   UNL     1       5.281  -7.827  25.422  0.00  0.00    +0.210 HD
ENDBRANCH  30  37
BRANCH  31  39
ATOM     39  O   UNL     1       5.335  -6.349  21.936  0.00  0.00    -0.383 OA
ATOM     40  H   UNL     1       5.714  -5.617  21.404  0.00  0.00    +0.210 HD
ENDBRANCH  31  39
ENDBRANCH  25  26
ENDBRANCH   5  25
TORSDOF 10
ENDMDL
MODEL 5
REMARK VINA RESULT:      -7.5      1.628      3.340
REMARK  Name = 
REMARK  10 active torsions:
REMARK  status: ('A' for Active; 'I' for Inactive)
REMARK    1  A    between atoms: C_3  and  O_22
REMARK    2  A    between atoms: C_4  and  O_21
REMARK    3  A    between atoms: C_6  and  C_7
REMARK    4  A    between atoms: C_12  and  O_19
REMARK    5  A    between atoms: C_14  and  O_18
REMARK    6  A    between atoms: O_22  and  C_23
REMARK    7  A    between atoms: C_25  and  O_39
REMARK    8  A    between atoms: C_27  and  O_38
REMARK    9  A    between atoms: C_29  and  O_37
REMARK   10  A    between atoms: C_31  and  C_34
REMARK                            x       y       z     vdW  Elec       q    Type
REMARK                         _______ _______ _______ _____ _____    ______ ____
ROOT
ATOM      1  C   UNL     1       8.020  -0.381  25.211  0.00  0.00    +0.015 A 
ATOM      2  C   UNL     1       8.349   0.007  23.900  0.00  0.00    +0.020 A 
ATOM      3  C   UNL     1       8.369  -1.001  22.921  0.00  0.00    +0.060 A 
ATOM      4  C   UNL     1       8.138  -2.342  23.266  0.00  0.00    +0.159 A 
ATOM      5  C   UNL     1       7.871  -2.718  24.587  0.00  0.00    +0.165 A 
ATOM      6  C   UNL     1       7.768  -1.714  25.545  0.00  0.00    +0.050 A 
ENDROOT
BRANCH   2   7
ATOM      7  C   UNL     1       8.641   1.464  23.653  0.00  0.00    +0.132 A 
ATOM      8  O   UNL     1       7.477   2.139  23.291  0.00  0.00    -0.455 OA
ATOM      9  C   UNL     1       7.496   3.489  23.109  0.00  0.00    +0.146 A 
ATOM     10  C   UNL     1       8.644   4.239  23.263  0.00  0.00    +0.105 A 
ATOM     11  C   UNL     1       8.597   5.628  23.050  0.00  0.00    +0.135 A 
ATOM     12  C   UNL     1       7.410   6.255  22.680  0.00  0.00    +0.091 A 
ATOM     13  C   UNL     1       6.261   5.486  22.536  0.00  0.00    +0.124 A 
ATOM     14  C   UNL     1       9.882   3.557  23.653  0.00  0.00    +0.189 A 
ATOM     15  O   UNL     1      10.868   4.285  23.814  0.00  0.00    -0.288 OA
ATOM     16  C   UNL     1       6.292   4.110  22.752  0.00  0.00    +0.092 A 
ATOM     17  C   UNL     1       9.861   2.041  23.845  0.00  0.00    -0.015 A 
ATOM     18  O   UNL     1      10.976   1.544  24.193  0.00  0.00    -0.869 OA
BRANCH  11  19
ATOM     19  O   UNL     1       9.697   6.438  23.190  0.00  0.00    -0.506 OA
ATOM     20  H   UNL     1      10.111   6.481  22.290  0.00  0.00    +0.292 HD
ENDBRANCH  11  19
BRANCH  13  21
ATOM     21  O   UNL     1       5.073   6.059  22.181  0.00  0.00    -0.507 OA
ATOM     22  H   UNL     1       5.040   6.099  21.211  0.00  0.00    +0.292 HD
ENDBRANCH  13  21
ENDBRANCH   2   7
BRANCH   4  23
ATOM     23  O   UNL     1       8.217  -3.298  22.286  0.00  0.00    -0.503 OA
ATOM     24  H   UNL     1       8.729  -4.031  22.684  0.00  0.00    +0.292 HD
ENDBRANCH   4  23
BRANCH   5  25
ATOM     25  O   UNL     1       7.717  -4.063  24.864  0.00  0.00    -0.457 OA
BRANCH  25  26
ATOM     26  C   UNL     1       6.337  -4.491  24.954  0.00  0.00    +0.340 C 
ATOM     27  O   UNL     1       6.158  -5.850  24.550  0.00  0.00    -0.328 OA
ATOM     28  C   UNL     1       5.409  -6.151  23.361  0.00  0.00    +0.199 C 
ATOM     29  C   UNL     1       4.217  -5.238  23.102  0.00  0.00    +0.180 C 
ATOM     30  C   UNL     1       4.613  -3.759  23.110  0.00  0.00    +0.180 C 
ATOM     31  C   UNL     1       5.343  -3.418  24.408  0.00  0.00    +0.214 C 
BRANCH  28  32
ATOM     32  C   UNL     1       6.261  -6.135  22.076  0.00  0.00    +0.073 C 
ATOM     33  O   UNL     1       5.612  -6.013  20.997  0.00  0.00    -0.547 OA
ATOM     34  O   UNL     1       7.516  -6.109  22.254  0.00  0.00    -0.547 OA
ENDBRANCH  28  32
BRANCH  29  35
ATOM     35  O   UNL     1       3.235  -5.447  24.153  0.00  0.00    -0.386 OA
ATOM     36  H   UNL     1       3.161  -6.411  24.264  0.00  0.00    +0.210 HD
ENDBRANCH  29  35
BRANCH  30  37
ATOM     37  O   UNL     1       5.304  -3.315  21.947  0.00  0.00    -0.386 OA
ATOM     38  H   UNL     1       6.038  -2.710  22.237  0.00  0.00    +0.210 HD
ENDBRANCH  30  37
BRANCH  31  39
ATOM     39  O   UNL     1       4.299  -3.229  25.416  0.00  0.00    -0.383 OA
ATOM     40  H   UNL     1       3.472  -3.505  24.965  0.00  0.00    +0.210 HD
ENDBRANCH  31  39
ENDBRANCH  25  26
ENDBRANCH   5  25
TORSDOF 10
ENDMDL
MODEL 6
REMARK VINA RESULT:      -7.5      1.763      2.979
REMARK  Name = 
REMARK  10 active torsions:
REMARK  status: ('A' for Active; 'I' for Inactive)
REMARK    1  A    between atoms: C_3  and  O_22
REMARK    2  A    between atoms: C_4  and  O_21
REMARK    3  A    between atoms: C_6  and  C_7
REMARK    4  A    between atoms: C_12  and  O_19
REMARK    5  A    between atoms: C_14  and  O_18
REMARK    6  A    between atoms: O_22  and  C_23
REMARK    7  A    between atoms: C_25  and  O_39
REMARK    8  A    between atoms: C_27  and  O_38
REMARK    9  A    between atoms: C_29  and  O_37
REMARK   10  A    between atoms: C_31  and  C_34
REMARK                            x       y       z     vdW  Elec       q    Type
REMARK                         _______ _______ _______ _____ _____    ______ ____
ROOT
ATOM      1  C   UNL     1       9.016  -0.298  22.453  0.00  0.00    +0.015 A 
ATOM      2  C   UNL     1       8.083   0.565  23.056  0.00  0.00    +0.020 A 
ATOM      3  C   UNL     1       6.908  -0.018  23.562  0.00  0.00    +0.060 A 
ATOM      4  C   UNL     1       6.660  -1.390  23.401  0.00  0.00    +0.159 A 
ATOM      5  C   UNL     1       7.573  -2.223  22.746  0.00  0.00    +0.165 A 
ATOM      6  C   UNL     1       8.775  -1.667  22.317  0.00  0.00    +0.050 A 
ENDROOT
BRANCH   2   7
ATOM      7  C   UNL     1       8.422   2.031  23.118  0.00  0.00    +0.132 A 
ATOM      8  O   UNL     1       7.345   2.798  22.677  0.00  0.00    -0.455 OA
ATOM      9  C   UNL     1       7.403   4.158  22.735  0.00  0.00    +0.146 A 
ATOM     10  C   UNL     1       8.508   4.831  23.215  0.00  0.00    +0.105 A 
ATOM     11  C   UNL     1       8.507   6.236  23.238  0.00  0.00    +0.135 A 
ATOM     12  C   UNL     1       7.409   6.958  22.779  0.00  0.00    +0.091 A 
ATOM     13  C   UNL     1       6.300   6.265  22.305  0.00  0.00    +0.124 A 
ATOM     14  C   UNL     1       9.653   4.050  23.694  0.00  0.00    +0.189 A 
ATOM     15  O   UNL     1      10.598   4.704  24.149  0.00  0.00    -0.288 OA
ATOM     16  C   UNL     1       6.286   4.872  22.284  0.00  0.00    +0.092 A 
ATOM     17  C   UNL     1       9.591   2.524  23.617  0.00  0.00    -0.015 A 
ATOM     18  O   UNL     1      10.622   1.936  24.066  0.00  0.00    -0.869 OA
BRANCH  11  19
ATOM     19  O   UNL     1       9.568   6.971  23.706  0.00  0.00    -0.506 OA
ATOM     20  H   UNL     1       9.733   7.667  23.019  0.00  0.00    +0.292 HD
ENDBRANCH  11  19
BRANCH  13  21
ATOM     21  O   UNL     1       5.198   6.932  21.849  0.00  0.00    -0.507 OA
ATOM     22  H   UNL     1       5.374   7.206  20.934  0.00  0.00    +0.292 HD
ENDBRANCH  13  21
ENDBRANCH   2   7
BRANCH   4  23
ATOM     23  O   UNL     1       5.477  -1.905  23.867  0.00  0.00    -0.503 OA
ATOM     24  H   UNL     1       5.563  -2.875  23.766  0.00  0.00    +0.292 HD
ENDBRANCH   4  23
BRANCH   5  25
ATOM     25  O   UNL     1       7.234  -3.551  22.568  0.00  0.00    -0.457 OA
BRANCH  25  26
ATOM     26  C   UNL     1       7.851  -4.448  23.522  0.00  0.00    +0.340 C 
ATOM     27  O   UNL     1       6.967  -5.487  23.948  0.00  0.00    -0.328 OA
ATOM     28  C   UNL     1       6.513  -5.527  25.311  0.00  0.00    +0.199 C 
ATOM     29  C   UNL     1       7.542  -5.091  26.346  0.00  0.00    +0.180 C 
ATOM     30  C   UNL     1       8.127  -3.711  26.030  0.00  0.00    +0.180 C 
ATOM     31  C   UNL     1       8.680  -3.689  24.606  0.00  0.00    +0.214 C 
BRANCH  28  32
ATOM     32  C   UNL     1       5.250  -4.679  25.563  0.00  0.00    +0.073 C 
ATOM     33  O   UNL     1       4.574  -4.395  24.533  0.00  0.00    -0.547 OA
ATOM     34  O   UNL     1       4.962  -4.479  26.782  0.00  0.00    -0.547 OA
ENDBRANCH  28  32
BRANCH  29  35
ATOM     35  O   UNL     1       8.632  -6.051  26.350  0.00  0.00    -0.386 OA
ATOM     36  H   UNL     1       9.446  -5.535  26.487  0.00  0.00    +0.210 HD
ENDBRANCH  29  35
BRANCH  30  37
ATOM     37  O   UNL     1       7.264  -2.613  26.312  0.00  0.00    -0.386 OA
ATOM     38  H   UNL     1       7.081  -2.608  27.290  0.00  0.00    +0.210 HD
ENDBRANCH  30  37
BRANCH  31  39
ATOM     39  O   UNL     1       9.997  -4.321  24.679  0.00  0.00    -0.383 OA
ATOM     40  H   UNL     1      10.193  -4.366  25.639  0.00  0.00    +0.210 HD
ENDBRANCH  31  39
ENDBRANCH  25  26
ENDBRANCH   5  25
TORSDOF 10
ENDMDL
MODEL 7
REMARK VINA RESULT:      -7.5      2.065      9.522
REMARK  Name = 
REMARK  10 active torsions:
REMARK  status: ('A' for Active; 'I' for Inactive)
REMARK    1  A    between atoms: C_3  and  O_22
REMARK    2  A    between atoms: C_4  and  O_21
REMARK    3  A    between atoms: C_6  and  C_7
REMARK    4  A    between atoms: C_12  and  O_19
REMARK    5  A    between atoms: C_14  and  O_18
REMARK    6  A    between atoms: O_22  and  C_23
REMARK    7  A    between atoms: C_25  and  O_39
REMARK    8  A    between atoms: C_27  and  O_38
REMARK    9  A    between atoms: C_29  and  O_37
REMARK   10  A    between atoms: C_31  and  C_34
REMARK                            x       y       z     vdW  Elec       q    Type
REMARK                         _______ _______ _______ _____ _____    ______ ____
ROOT
ATOM      1  C   UNL     1       8.335  -1.528  23.608  0.00  0.00    +0.015 A 
ATOM      2  C   UNL     1       7.195  -1.751  24.401  0.00  0.00    +0.020 A 
ATOM      3  C   UNL     1       6.805  -0.714  25.266  0.00  0.00    +0.060 A 
ATOM      4  C   UNL     1       7.570   0.458  25.374  0.00  0.00    +0.159 A 
ATOM      5  C   UNL     1       8.735   0.638  24.620  0.00  0.00    +0.165 A 
ATOM      6  C   UNL     1       9.080  -0.349  23.702  0.00  0.00    +0.050 A 
ENDROOT
BRANCH   2   7
ATOM      7  C   UNL     1       6.486  -3.071  24.251  0.00  0.00    +0.132 A 
ATOM      8  O   UNL     1       6.481  -3.761  25.462  0.00  0.00    -0.455 OA
ATOM      9  C   UNL     1       5.812  -4.942  25.576  0.00  0.00    +0.146 A 
ATOM     10  C   UNL     1       5.126  -5.507  24.521  0.00  0.00    +0.105 A 
ATOM     11  C   UNL     1       4.464  -6.734  24.703  0.00  0.00    +0.135 A 
ATOM     12  C   UNL     1       4.496  -7.388  25.932  0.00  0.00    +0.091 A 
ATOM     13  C   UNL     1       5.185  -6.802  26.987  0.00  0.00    +0.124 A 
ATOM     14  C   UNL     1       5.106  -4.800  23.237  0.00  0.00    +0.189 A 
ATOM     15  O   UNL     1       4.444  -5.334  22.340  0.00  0.00    -0.288 OA
ATOM     16  C   UNL     1       5.839  -5.583  26.822  0.00  0.00    +0.092 A 
ATOM     17  C   UNL     1       5.868  -3.481  23.107  0.00  0.00    -0.015 A 
ATOM     18  O   UNL     1       5.781  -2.938  21.963  0.00  0.00    -0.869 OA
BRANCH  11  19
ATOM     19  O   UNL     1       3.758  -7.352  23.701  0.00  0.00    -0.506 OA
ATOM     20  H   UNL     1       3.683  -6.680  22.976  0.00  0.00    +0.292 HD
ENDBRANCH  11  19
BRANCH  13  21
ATOM     21  O   UNL     1       5.239  -7.405  28.212  0.00  0.00    -0.507 OA
ATOM     22  H   UNL     1       5.627  -8.287  28.093  0.00  0.00    +0.292 HD
ENDBRANCH  13  21
ENDBRANCH   2   7
BRANCH   4  23
ATOM     23  O   UNL     1       7.178   1.421  26.267  0.00  0.00    -0.503 OA
ATOM     24  H   UNL     1       7.318   2.271  25.804  0.00  0.00    +0.292 HD
ENDBRANCH   4  23
BRANCH   5  25
ATOM     25  O   UNL     1       9.472   1.789  24.825  0.00  0.00    -0.457 OA
BRANCH  25  26
ATOM     26  C   UNL     1       9.290   2.795  23.800  0.00  0.00    +0.340 C 
ATOM     27  O   UNL     1       9.393   4.125  24.313  0.00  0.00    -0.328 OA
ATOM     28  C   UNL     1       8.236   4.978  24.327  0.00  0.00    +0.199 C 
ATOM     29  C   UNL     1       7.302   4.817  23.135  0.00  0.00    +0.180 C 
ATOM     30  C   UNL     1       6.873   3.361  22.932  0.00  0.00    +0.180 C 
ATOM     31  C   UNL     1       8.104   2.460  22.840  0.00  0.00    +0.214 C 
BRANCH  28  32
ATOM     32  C   UNL     1       7.368   4.816  25.591  0.00  0.00    +0.073 C 
ATOM     33  O   UNL     1       7.935   4.248  26.568  0.00  0.00    -0.547 OA
ATOM     34  O   UNL     1       6.237   5.388  25.552  0.00  0.00    -0.547 OA
ENDBRANCH  28  32
BRANCH  29  35
ATOM     35  O   UNL     1       7.998   5.252  21.937  0.00  0.00    -0.386 OA
ATOM     36  H   UNL     1       8.478   4.472  21.606  0.00  0.00    +0.210 HD
ENDBRANCH  29  35
BRANCH  30  37
ATOM     37  O   UNL     1       5.901   2.885  23.858  0.00  0.00    -0.386 OA
ATOM     38  H   UNL     1       5.750   1.919  23.676  0.00  0.00    +0.210 HD
ENDBRANCH  30  37
BRANCH  31  39
ATOM     39  O   UNL     1       8.595   2.593  21.468  0.00  0.00    -0.383 OA
ATOM     40  H   UNL     1       8.868   3.533  21.397  0.00  0.00    +0.210 HD
ENDBRANCH  31  39
ENDBRANCH  25  26
ENDBRANCH   5  25
TORSDOF 10
ENDMDL
MODEL 8
REMARK VINA RESULT:      -7.4      2.113      3.644
REMARK  Name = 
REMARK  10 active torsions:
REMARK  status: ('A' for Active; 'I' for Inactive)
REMARK    1  A    between atoms: C_3  and  O_22
REMARK    2  A    between atoms: C_4  and  O_21
REMARK    3  A    between atoms: C_6  and  C_7
REMARK    4  A    between atoms: C_12  and  O_19
REMARK    5  A    between atoms: C_14  and  O_18
REMARK    6  A    between atoms: O_22  and  C_23
REMARK    7  A    between atoms: C_25  and  O_39
REMARK    8  A    between atoms: C_27  and  O_38
REMARK    9  A    between atoms: C_29  and  O_37
REMARK   10  A    between atoms: C_31  and  C_34
REMARK                            x       y       z     vdW  Elec       q    Type
REMARK                         _______ _______ _______ _____ _____    ______ ____
ROOT
ATOM      1  C   UNL     1       8.247  -3.007  23.578  0.00  0.00    +0.015 A 
ATOM      2  C   UNL     1       7.396  -1.959  23.183  0.00  0.00    +0.020 A 
ATOM      3  C   UNL     1       6.073  -2.300  22.853  0.00  0.00    +0.060 A 
ATOM      4  C   UNL     1       5.655  -3.640  22.852  0.00  0.00    +0.159 A 
ATOM      5  C   UNL     1       6.532  -4.676  23.190  0.00  0.00    +0.165 A 
ATOM      6  C   UNL     1       7.819  -4.337  23.598  0.00  0.00    +0.050 A 
ENDROOT
BRANCH   2   7
ATOM      7  C   UNL     1       7.967  -0.565  23.157  0.00  0.00    +0.132 A 
ATOM      8  O   UNL     1       7.457   0.189  24.212  0.00  0.00    -0.455 OA
ATOM      9  C   UNL     1       7.910   1.455  24.432  0.00  0.00    +0.146 A 
ATOM     10  C   UNL     1       8.868   2.045  23.634  0.00  0.00    +0.105 A 
ATOM     11  C   UNL     1       9.284   3.360  23.909  0.00  0.00    +0.135 A 
ATOM     12  C   UNL     1       8.738   4.075  24.971  0.00  0.00    +0.091 A 
ATOM     13  C   UNL     1       7.778   3.463  25.770  0.00  0.00    +0.124 A 
ATOM     14  C   UNL     1       9.430   1.273  22.522  0.00  0.00    +0.189 A 
ATOM     15  O   UNL     1      10.312   1.838  21.866  0.00  0.00    -0.288 OA
ATOM     16  C   UNL     1       7.363   2.159  25.512  0.00  0.00    +0.092 A 
ATOM     17  C   UNL     1       8.912  -0.143  22.270  0.00  0.00    -0.015 A 
ATOM     18  O   UNL     1       9.466  -0.736  21.294  0.00  0.00    -0.869 OA
BRANCH  11  19
ATOM     19  O   UNL     1      10.237   4.008  23.162  0.00  0.00    -0.506 OA
ATOM     20  H   UNL     1       9.864   4.908  22.981  0.00  0.00    +0.292 HD
ENDBRANCH  11  19
BRANCH  13  21
ATOM     21  O   UNL     1       7.219   4.125  26.826  0.00  0.00    -0.507 OA
ATOM     22  H   UNL     1       6.420   3.640  27.092  0.00  0.00    +0.292 HD
ENDBRANCH  13  21
ENDBRANCH   2   7
BRANCH   4  23
ATOM     23  O   UNL     1       4.369  -3.929  22.475  0.00  0.00    -0.503 OA
ATOM     24  H   UNL     1       4.102  -4.686  23.035  0.00  0.00    +0.292 HD
ENDBRANCH   4  23
BRANCH   5  25
ATOM     25  O   UNL     1       6.071  -5.975  23.107  0.00  0.00    -0.457 OA
BRANCH  25  26
ATOM     26  C   UNL     1       5.688  -6.547  24.381  0.00  0.00    +0.340 C 
ATOM     27  O   UNL     1       4.609  -7.477  24.262  0.00  0.00    -0.328 OA
ATOM     28  C   UNL     1       3.332  -7.169  24.845  0.00  0.00    +0.199 C 
ATOM     29  C   UNL     1       3.390  -6.415  26.167  0.00  0.00    +0.180 C 
ATOM     30  C   UNL     1       4.238  -5.143  26.066  0.00  0.00    +0.180 C 
ATOM     31  C   UNL     1       5.624  -5.479  25.519  0.00  0.00    +0.214 C 
BRANCH  28  32
ATOM     32  C   UNL     1       2.412  -6.354  23.915  0.00  0.00    +0.073 C 
ATOM     33  O   UNL     1       1.410  -5.821  24.474  0.00  0.00    -0.547 OA
ATOM     34  O   UNL     1       2.834  -6.197  22.729  0.00  0.00    -0.547 OA
ENDBRANCH  28  32
BRANCH  29  35
ATOM     35  O   UNL     1       3.992  -7.279  27.168  0.00  0.00    -0.386 OA
ATOM     36  H   UNL     1       4.937  -7.338  26.940  0.00  0.00    +0.210 HD
ENDBRANCH  29  35
BRANCH  30  37
ATOM     37  O   UNL     1       3.616  -4.058  25.386  0.00  0.00    -0.386 OA
ATOM     38  H   UNL     1       2.773  -3.837  25.865  0.00  0.00    +0.210 HD
ENDBRANCH  30  37
BRANCH  31  39
ATOM     39  O   UNL     1       6.388  -5.997  26.654  0.00  0.00    -0.383 OA
ATOM     40  H   UNL     1       6.427  -6.965  26.500  0.00  0.00    +0.210 HD
ENDBRANCH  31  39
ENDBRANCH  25  26
ENDBRANCH   5  25
TORSDOF 10
ENDMDL
MODEL 9
REMARK VINA RESULT:      -7.2      1.299      2.680
REMARK  Name = 
REMARK  10 active torsions:
REMARK  status: ('A' for Active; 'I' for Inactive)
REMARK    1  A    between atoms: C_3  and  O_22
REMARK    2  A    between atoms: C_4  and  O_21
REMARK    3  A    between atoms: C_6  and  C_7
REMARK    4  A    between atoms: C_12  and  O_19
REMARK    5  A    between atoms: C_14  and  O_18
REMARK    6  A    between atoms: O_22  and  C_23
REMARK    7  A    between atoms: C_25  and  O_39
REMARK    8  A    between atoms: C_27  and  O_38
REMARK    9  A    between atoms: C_29  and  O_37
REMARK   10  A    between atoms: C_31  and  C_34
REMARK                            x       y       z     vdW  Elec       q    Type
REMARK                         _______ _______ _______ _____ _____    ______ ____
ROOT
ATOM      1  C   UNL     1       9.540  -0.419  23.820  0.00  0.00    +0.015 A 
ATOM      2  C   UNL     1       8.483   0.492  23.642  0.00  0.00    +0.020 A 
ATOM      3  C   UNL     1       7.247  -0.036  23.228  0.00  0.00    +0.060 A 
ATOM      4  C   UNL     1       7.110  -1.403  22.940  0.00  0.00    +0.159 A 
ATOM      5  C   UNL     1       8.189  -2.285  23.066  0.00  0.00    +0.165 A 
ATOM      6  C   UNL     1       9.392  -1.782  23.554  0.00  0.00    +0.050 A 
ENDROOT
BRANCH   2   7
ATOM      7  C   UNL     1       8.758   1.947  23.918  0.00  0.00    +0.132 A 
ATOM      8  O   UNL     1       7.936   2.412  24.943  0.00  0.00    -0.455 OA
ATOM      9  C   UNL     1       8.081   3.681  25.416  0.00  0.00    +0.146 A 
ATOM     10  C   UNL     1       9.022   4.554  24.912  0.00  0.00    +0.105 A 
ATOM     11  C   UNL     1       9.113   5.854  25.439  0.00  0.00    +0.135 A 
ATOM     12  C   UNL     1       8.262   6.274  26.458  0.00  0.00    +0.091 A 
ATOM     13  C   UNL     1       7.323   5.379  26.960  0.00  0.00    +0.124 A 
ATOM     14  C   UNL     1       9.907   4.090  23.840  0.00  0.00    +0.189 A 
ATOM     15  O   UNL     1      10.757   4.902  23.454  0.00  0.00    -0.288 OA
ATOM     16  C   UNL     1       7.229   4.086  26.452  0.00  0.00    +0.092 A 
ATOM     17  C   UNL     1       9.735   2.670  23.301  0.00  0.00    -0.015 A 
ATOM     18  O   UNL     1      10.554   2.356  22.384  0.00  0.00    -0.869 OA
BRANCH  11  19
ATOM     19  O   UNL     1      10.028   6.774  24.990  0.00  0.00    -0.506 OA
ATOM     20  H   UNL     1       9.618   7.187  24.187  0.00  0.00    +0.292 HD
ENDBRANCH  11  19
BRANCH  13  21
ATOM     21  O   UNL     1       6.472   5.745  27.963  0.00  0.00    -0.507 OA
ATOM     22  H   UNL     1       6.607   6.691  28.138  0.00  0.00    +0.292 HD
ENDBRANCH  13  21
ENDBRANCH   2   7
BRANCH   4  23
ATOM     23  O   UNL     1       5.899  -1.864  22.491  0.00  0.00    -0.503 OA
ATOM     24  H   UNL     1       5.772  -2.725  22.938  0.00  0.00    +0.292 HD
ENDBRANCH   4  23
BRANCH   5  25
ATOM     25  O   UNL     1       7.998  -3.604  22.704  0.00  0.00    -0.457 OA
BRANCH  25  26
ATOM     26  C   UNL     1       7.752  -4.491  23.822  0.00  0.00    +0.340 C 
ATOM     27  O   UNL     1       6.958  -5.623  23.459  0.00  0.00    -0.328 OA
ATOM     28  C   UNL     1       5.633  -5.769  23.995  0.00  0.00    +0.199 C 
ATOM     29  C   UNL     1       5.463  -5.297  25.434  0.00  0.00    +0.180 C 
ATOM     30  C   UNL     1       5.949  -3.857  25.627  0.00  0.00    +0.180 C 
ATOM     31  C   UNL     1       7.386  -3.717  25.128  0.00  0.00    +0.214 C 
BRANCH  28  32
ATOM     32  C   UNL     1       4.551  -5.048  23.167  0.00  0.00    +0.073 C 
ATOM     33  O   UNL     1       3.432  -4.909  23.740  0.00  0.00    -0.547 OA
ATOM     34  O   UNL     1       4.943  -4.561  22.063  0.00  0.00    -0.547 OA
ENDBRANCH  28  32
BRANCH  29  35
ATOM     35  O   UNL     1       6.250  -6.157  26.301  0.00  0.00    -0.386 OA
ATOM     36  H   UNL     1       6.912  -5.582  26.722  0.00  0.00    +0.210 HD
ENDBRANCH  29  35
BRANCH  30  37
ATOM     37  O   UNL     1       5.078  -2.854  25.114  0.00  0.00    -0.386 OA
ATOM     38  H   UNL     1       5.443  -1.966  25.377  0.00  0.00    +0.210 HD
ENDBRANCH  30  37
BRANCH  31  39
ATOM     39  O   UNL     1       8.235  -4.235  26.201  0.00  0.00    -0.383 OA
ATOM     40  H   UNL     1       9.150  -4.049  25.899  0.00  0.00    +0.210 HD
ENDBRANCH  31  39
ENDBRANCH  25  26
ENDBRANCH   5  25
TORSDOF 10
ENDMDL
