MODEL 1
REMARK VINA RESULT:      -7.4      0.000      0.000
REMARK  Name = 
REMARK  24 active torsions:
REMARK  status: ('A' for Active; 'I' for Inactive)
REMARK    1  A    between atoms: C_1  and  O_2
REMARK    2  A    between atoms: O_2  and  C_3
REMARK    3  A    between atoms: C_4  and  O_57
REMARK    4  A    between atoms: C_7  and  C_9
REMARK    5  A    between atoms: C_10  and  C_11
REMARK    6  A    between atoms: C_11  and  O_13
REMARK    7  A    between atoms: O_13  and  C_14
REMARK    8  A    between atoms: C_14  and  C_15
REMARK    9  A    between atoms: C_16  and  O_56
REMARK   10  A    between atoms: C_17  and  O_55
REMARK   11  A    between atoms: C_18  and  O_54
REMARK   12  A    between atoms: C_19  and  O_21
REMARK   13  A    between atoms: O_21  and  C_22
REMARK   14  A    between atoms: C_23  and  O_53
REMARK   15  A    between atoms: C_24  and  O_52
REMARK   16  A    between atoms: C_25  and  C_50
REMARK   17  A    between atoms: C_27  and  O_28
REMARK   18  A    between atoms: O_28  and  C_29
REMARK   19  A    between atoms: C_30  and  C_42
REMARK   20  A    between atoms: C_34  and  O_41
REMARK   21  A    between atoms: C_36  and  O_40
REMARK   22  A    between atoms: C_44  and  O_49
REMARK   23  A    between atoms: C_45  and  O_48
REMARK   24  A    between atoms: C_50  and  O_51
REMARK                            x       y       z     vdW  Elec       q    Type
REMARK                         _______ _______ _______ _____ _____    ______ ____
ROOT
ATOM      1  C   UNL     1       7.581  -0.366  24.312  0.00  0.00    +0.221 C 
ATOM      2  C   UNL     1       6.880   1.054  24.356  0.00  0.00    +0.340 C 
ATOM      3  O   UNL     1       6.450   1.434  23.043  0.00  0.00    -0.331 OA
ATOM      4  C   UNL     1       7.441   1.532  22.020  0.00  0.00    +0.179 C 
ATOM      5  C   UNL     1       8.286   0.255  21.929  0.00  0.00    +0.177 C 
ATOM      6  C   UNL     1       8.766  -0.192  23.321  0.00  0.00    +0.180 C 
ENDROOT
BRANCH   6   7
ATOM      7  O   UNL     1       9.533  -1.390  23.168  0.00  0.00    -0.386 OA
ATOM      8  H   UNL     1      10.162  -1.418  23.913  0.00  0.00    +0.210 HD
ENDBRANCH   6   7
BRANCH   5   9
ATOM      9  O   UNL     1       9.411   0.466  21.071  0.00  0.00    -0.386 OA
ATOM     10  H   UNL     1       9.043   0.518  20.156  0.00  0.00    +0.210 HD
ENDBRANCH   5   9
BRANCH   4  11
ATOM     11  C   UNL     1       8.293   2.797  22.167  0.00  0.00    +0.190 C 
BRANCH  11  12
ATOM     12  O   UNL     1       9.565   2.591  22.761  0.00  0.00    -0.392 OA
ATOM     13  H   UNL     1       9.430   1.904  23.449  0.00  0.00    +0.210 HD
ENDBRANCH  11  12
ENDBRANCH   4  11
BRANCH   2  14
ATOM     14  O   UNL     1       7.754   1.999  25.014  0.00  0.00    -0.453 OA
BRANCH  14  15
ATOM     15  C   UNL     1       7.470   2.518  26.277  0.00  0.00    +0.214 A 
ATOM     16  C   UNL     1       6.991   1.698  27.451  0.00  0.00    +0.238 A 
ATOM     17  O   UNL     1       7.367   0.552  27.640  0.00  0.00    -0.283 OA
ATOM     18  C   UNL     1       6.010   2.411  28.333  0.00  0.00    +0.109 A 
ATOM     19  C   UNL     1       6.118   3.802  28.378  0.00  0.00    +0.147 A 
ATOM     20  C   UNL     1       5.232   4.604  29.094  0.00  0.00    +0.092 A 
ATOM     21  C   UNL     1       4.197   3.992  29.780  0.00  0.00    +0.124 A 
ATOM     22  C   UNL     1       4.056   2.606  29.762  0.00  0.00    +0.091 A 
ATOM     23  O   UNL     1       7.079   4.463  27.665  0.00  0.00    -0.451 OA
ATOM     24  C   UNL     1       4.959   1.814  29.034  0.00  0.00    +0.135 A 
ATOM     25  C   UNL     1       7.416   3.856  26.477  0.00  0.00    +0.181 A 
BRANCH  25  26
ATOM     26  C   UNL     1       7.473   4.813  25.374  0.00  0.00    +0.025 A 
ATOM     27  C   UNL     1       6.261   5.133  24.738  0.00  0.00    +0.015 A 
ATOM     28  C   UNL     1       6.269   5.643  23.449  0.00  0.00    +0.050 A 
ATOM     29  C   UNL     1       7.489   5.923  22.868  0.00  0.00    +0.158 A 
ATOM     30  C   UNL     1       8.665   5.890  23.619  0.00  0.00    +0.159 A 
ATOM     31  C   UNL     1       8.675   5.314  24.880  0.00  0.00    +0.060 A 
BRANCH  30  32
ATOM     32  O   UNL     1       9.810   6.367  23.048  0.00  0.00    -0.503 OA
ATOM     33  H   UNL     1      10.291   6.862  23.736  0.00  0.00    +0.292 HD
ENDBRANCH  30  32
BRANCH  29  34
ATOM     34  O   UNL     1       7.540   6.161  21.526  0.00  0.00    -0.503 OA
ATOM     35  H   UNL     1       7.789   5.295  21.147  0.00  0.00    +0.292 HD
ENDBRANCH  29  34
ENDBRANCH  25  26
BRANCH  24  36
ATOM     36  O   UNL     1       4.755   0.466  28.977  0.00  0.00    -0.506 OA
ATOM     37  H   UNL     1       3.837   0.281  28.714  0.00  0.00    +0.292 HD
ENDBRANCH  24  36
BRANCH  21  38
ATOM     38  O   UNL     1       3.291   4.735  30.475  0.00  0.00    -0.507 OA
ATOM     39  H   UNL     1       3.140   5.571  30.017  0.00  0.00    +0.292 HD
ENDBRANCH  21  38
ENDBRANCH  14  15
ENDBRANCH   2  14
BRANCH   1  40
ATOM     40  O   UNL     1       6.778  -1.497  23.837  0.00  0.00    -0.337 OA
BRANCH  40  43
ATOM     41  C   UNL     1       8.941  -3.965  25.546  0.00  0.00    +0.190 C 
ATOM     42  O   UNL     1       8.207  -2.752  25.231  0.00  0.00    -0.339 OA
ATOM     43  C   UNL     1       6.989  -2.813  24.446  0.00  0.00    +0.282 C 
ATOM     44  C   UNL     1       7.105  -3.840  23.311  0.00  0.00    +0.201 C 
ATOM     45  C   UNL     1       7.669  -5.162  23.782  0.00  0.00    +0.179 C 
ATOM     46  C   UNL     1       9.060  -4.931  24.357  0.00  0.00    +0.178 C 
BRANCH  46  47
ATOM     47  O   UNL     1       9.635  -6.187  24.742  0.00  0.00    -0.386 OA
ATOM     48  H   UNL     1       9.590  -6.767  23.955  0.00  0.00    +0.210 HD
ENDBRANCH  46  47
BRANCH  45  49
ATOM     49  O   UNL     1       7.768  -6.082  22.686  0.00  0.00    -0.386 OA
ATOM     50  H   UNL     1       8.538  -6.656  22.894  0.00  0.00    +0.210 HD
ENDBRANCH  45  49
BRANCH  44  51
ATOM     51  O   UNL     1       7.974  -3.348  22.270  0.00  0.00    -0.384 OA
ATOM     52  H   UNL     1       8.871  -3.272  22.657  0.00  0.00    +0.210 HD
ENDBRANCH  44  51
BRANCH  41  53
ATOM     53  C   UNL     1       8.473  -4.753  26.792  0.00  0.00    +0.266 C 
BRANCH  53  54
ATOM     54  O   UNL     1       7.294  -4.201  27.393  0.00  0.00    -0.459 OA
BRANCH  54  55
ATOM     55  C   UNL     1       6.411  -5.110  27.871  0.00  0.00    +0.332 C 
ATOM     56  O   UNL     1       6.482  -5.687  28.931  0.00  0.00    -0.246 OA
BRANCH  55  58
ATOM     57  C   UNL     1       5.153  -6.256  26.141  0.00  0.00    +0.015 C 
ATOM     58  C   UNL     1       5.289  -5.177  26.921  0.00  0.00    +0.092 C 
BRANCH  57  61
ATOM     59  C   UNL     1       2.160  -7.758  24.314  0.00  0.00    +0.162 A 
ATOM     60  C   UNL     1       3.140  -7.566  25.294  0.00  0.00    +0.057 A 
ATOM     61  C   UNL     1       4.076  -6.521  25.170  0.00  0.00    -0.021 A 
ATOM     62  C   UNL     1       4.008  -5.686  24.042  0.00  0.00    +0.012 A 
ATOM     63  C   UNL     1       3.046  -5.884  23.056  0.00  0.00    +0.050 A 
ATOM     64  C   UNL     1       2.134  -6.919  23.198  0.00  0.00    +0.158 A 
BRANCH  64  65
ATOM     65  O   UNL     1       1.192  -7.086  22.224  0.00  0.00    -0.503 OA
ATOM     66  H   UNL     1       0.813  -7.970  22.383  0.00  0.00    +0.292 HD
ENDBRANCH  64  65
BRANCH  59  68
ATOM     67  C   UNL     1       1.413  -9.805  25.249  0.00  0.00    +0.277 C 
ATOM     68  O   UNL     1       1.199  -8.741  24.327  0.00  0.00    -0.491 OA
ENDBRANCH  59  68
ENDBRANCH  57  61
ENDBRANCH  55  58
ENDBRANCH  54  55
ENDBRANCH  53  54
ENDBRANCH  41  53
ENDBRANCH  40  43
ENDBRANCH   1  40
TORSDOF 23
ENDMDL
MODEL 2
REMARK VINA RESULT:      -6.9      2.092      9.414
REMARK  Name = 
REMARK  24 active torsions:
REMARK  status: ('A' for Active; 'I' for Inactive)
REMARK    1  A    between atoms: C_1  and  O_2
REMARK    2  A    between atoms: O_2  and  C_3
REMARK    3  A    between atoms: C_4  and  O_57
REMARK    4  A    between atoms: C_7  and  C_9
REMARK    5  A    between atoms: C_10  and  C_11
REMARK    6  A    between atoms: C_11  and  O_13
REMARK    7  A    between atoms: O_13  and  C_14
REMARK    8  A    between atoms: C_14  and  C_15
REMARK    9  A    between atoms: C_16  and  O_56
REMARK   10  A    between atoms: C_17  and  O_55
REMARK   11  A    between atoms: C_18  and  O_54
REMARK   12  A    between atoms: C_19  and  O_21
REMARK   13  A    between atoms: O_21  and  C_22
REMARK   14  A    between atoms: C_23  and  O_53
REMARK   15  A    between atoms: C_24  and  O_52
REMARK   16  A    between atoms: C_25  and  C_50
REMARK   17  A    between atoms: C_27  and  O_28
REMARK   18  A    between atoms: O_28  and  C_29
REMARK   19  A    between atoms: C_30  and  C_42
REMARK   20  A    between atoms: C_34  and  O_41
REMARK   21  A    between atoms: C_36  and  O_40
REMARK   22  A    between atoms: C_44  and  O_49
REMARK   23  A    between atoms: C_45  and  O_48
REMARK   24  A    between atoms: C_50  and  O_51
REMARK                            x       y       z     vdW  Elec       q    Type
REMARK                         _______ _______ _______ _____ _____    ______ ____
ROOT
ATOM      1  C   UNL     1       6.381  -1.858  25.740  0.00  0.00    +0.221 C 
ATOM      2  C   UNL     1       6.818  -2.993  26.755  0.00  0.00    +0.340 C 
ATOM      3  O   UNL     1       8.245  -3.016  26.887  0.00  0.00    -0.331 OA
ATOM      4  C   UNL     1       9.019  -3.242  25.709  0.00  0.00    +0.179 C 
ATOM      5  C   UNL     1       8.628  -2.277  24.583  0.00  0.00    +0.177 C 
ATOM      6  C   UNL     1       7.100  -2.219  24.409  0.00  0.00    +0.180 C 
ENDROOT
BRANCH   6   7
ATOM      7  O   UNL     1       6.803  -1.296  23.358  0.00  0.00    -0.386 OA
ATOM      8  H   UNL     1       5.938  -1.557  22.991  0.00  0.00    +0.210 HD
ENDBRANCH   6   7
BRANCH   5   9
ATOM      9  O   UNL     1       9.242  -2.676  23.354  0.00  0.00    -0.386 OA
ATOM     10  H   UNL     1       8.851  -3.555  23.132  0.00  0.00    +0.210 HD
ENDBRANCH   5   9
BRANCH   4  11
ATOM     11  C   UNL     1       8.981  -4.710  25.272  0.00  0.00    +0.190 C 
BRANCH  11  12
ATOM     12  O   UNL     1      10.234  -5.242  24.869  0.00  0.00    -0.392 OA
ATOM     13  H   UNL     1      10.852  -5.059  25.608  0.00  0.00    +0.210 HD
ENDBRANCH  11  12
ENDBRANCH   4  11
BRANCH   2  14
ATOM     14  O   UNL     1       6.218  -4.246  26.359  0.00  0.00    -0.453 OA
BRANCH  14  15
ATOM     15  C   UNL     1       4.892  -4.561  26.654  0.00  0.00    +0.214 A 
ATOM     16  C   UNL     1       4.351  -4.762  28.050  0.00  0.00    +0.238 A 
ATOM     17  O   UNL     1       4.761  -4.122  29.005  0.00  0.00    -0.283 OA
ATOM     18  C   UNL     1       3.295  -5.822  28.148  0.00  0.00    +0.109 A 
ATOM     19  C   UNL     1       2.525  -6.033  27.002  0.00  0.00    +0.147 A 
ATOM     20  C   UNL     1       1.557  -7.032  26.918  0.00  0.00    +0.092 A 
ATOM     21  C   UNL     1       1.361  -7.852  28.016  0.00  0.00    +0.124 A 
ATOM     22  C   UNL     1       2.107  -7.673  29.178  0.00  0.00    +0.091 A 
ATOM     23  O   UNL     1       2.724  -5.297  25.867  0.00  0.00    -0.451 OA
ATOM     24  C   UNL     1       3.079  -6.661  29.244  0.00  0.00    +0.135 A 
ATOM     25  C   UNL     1       4.028  -4.907  25.671  0.00  0.00    +0.181 A 
BRANCH  25  26
ATOM     26  C   UNL     1       4.464  -5.142  24.296  0.00  0.00    +0.025 A 
ATOM     27  C   UNL     1       4.914  -6.435  23.977  0.00  0.00    +0.015 A 
ATOM     28  C   UNL     1       5.745  -6.629  22.885  0.00  0.00    +0.050 A 
ATOM     29  C   UNL     1       6.019  -5.546  22.075  0.00  0.00    +0.158 A 
ATOM     30  C   UNL     1       5.324  -4.345  22.226  0.00  0.00    +0.159 A 
ATOM     31  C   UNL     1       4.550  -4.120  23.354  0.00  0.00    +0.060 A 
BRANCH  30  32
ATOM     32  O   UNL     1       5.491  -3.378  21.276  0.00  0.00    -0.503 OA
ATOM     33  H   UNL     1       5.927  -2.621  21.708  0.00  0.00    +0.292 HD
ENDBRANCH  30  32
BRANCH  29  34
ATOM     34  O   UNL     1       7.034  -5.641  21.169  0.00  0.00    -0.503 OA
ATOM     35  H   UNL     1       6.773  -5.018  20.463  0.00  0.00    +0.292 HD
ENDBRANCH  29  34
ENDBRANCH  25  26
BRANCH  24  36
ATOM     36  O   UNL     1       3.843  -6.553  30.370  0.00  0.00    -0.506 OA
ATOM     37  H   UNL     1       3.366  -6.930  31.129  0.00  0.00    +0.292 HD
ENDBRANCH  24  36
BRANCH  21  38
ATOM     38  O   UNL     1       0.443  -8.859  27.974  0.00  0.00    -0.507 OA
ATOM     39  H   UNL     1       0.119  -9.039  28.865  0.00  0.00    +0.292 HD
ENDBRANCH  21  38
ENDBRANCH  14  15
ENDBRANCH   2  14
BRANCH   1  40
ATOM     40  O   UNL     1       6.750  -0.479  26.075  0.00  0.00    -0.337 OA
BRANCH  40  43
ATOM     41  C   UNL     1       5.594   2.981  26.693  0.00  0.00    +0.190 C 
ATOM     42  O   UNL     1       6.360   1.842  26.218  0.00  0.00    -0.339 OA
ATOM     43  C   UNL     1       5.717   0.559  26.014  0.00  0.00    +0.282 C 
ATOM     44  C   UNL     1       4.693   0.264  27.119  0.00  0.00    +0.201 C 
ATOM     45  C   UNL     1       3.779   1.438  27.390  0.00  0.00    +0.179 C 
ATOM     46  C   UNL     1       4.620   2.630  27.828  0.00  0.00    +0.178 C 
BRANCH  46  47
ATOM     47  O   UNL     1       3.760   3.729  28.156  0.00  0.00    -0.386 OA
ATOM     48  H   UNL     1       4.189   4.534  27.798  0.00  0.00    +0.210 HD
ENDBRANCH  46  47
BRANCH  45  49
ATOM     49  O   UNL     1       2.849   1.118  28.434  0.00  0.00    -0.386 OA
ATOM     50  H   UNL     1       2.943   0.151  28.581  0.00  0.00    +0.210 HD
ENDBRANCH  45  49
BRANCH  44  51
ATOM     51  O   UNL     1       5.360  -0.057  28.357  0.00  0.00    -0.384 OA
ATOM     52  H   UNL     1       4.775   0.244  29.084  0.00  0.00    +0.210 HD
ENDBRANCH  44  51
BRANCH  41  53
ATOM     53  C   UNL     1       4.845   3.807  25.621  0.00  0.00    +0.266 C 
BRANCH  53  54
ATOM     54  O   UNL     1       5.420   5.105  25.412  0.00  0.00    -0.459 OA
BRANCH  54  55
ATOM     55  C   UNL     1       5.698   5.411  24.123  0.00  0.00    +0.332 C 
ATOM     56  O   UNL     1       5.660   6.512  23.626  0.00  0.00    -0.246 OA
BRANCH  55  58
ATOM     57  C   UNL     1       7.477   3.884  23.500  0.00  0.00    +0.015 C 
ATOM     58  C   UNL     1       6.173   4.180  23.470  0.00  0.00    +0.092 C 
BRANCH  57  61
ATOM     59  C   UNL     1       9.766   0.879  22.963  0.00  0.00    +0.162 A 
ATOM     60  C   UNL     1       9.193   2.003  23.569  0.00  0.00    +0.057 A 
ATOM     61  C   UNL     1       8.129   2.683  22.946  0.00  0.00    -0.021 A 
ATOM     62  C   UNL     1       7.663   2.213  21.706  0.00  0.00    +0.012 A 
ATOM     63  C   UNL     1       8.242   1.107  21.092  0.00  0.00    +0.050 A 
ATOM     64  C   UNL     1       9.289   0.452  21.722  0.00  0.00    +0.158 A 
BRANCH  64  65
ATOM     65  O   UNL     1       9.832  -0.638  21.105  0.00  0.00    -0.503 OA
ATOM     66  H   UNL     1      10.432  -0.276  20.427  0.00  0.00    +0.292 HD
ENDBRANCH  64  65
BRANCH  59  68
ATOM     67  C   UNL     1      11.138   0.391  24.836  0.00  0.00    +0.277 C 
ATOM     68  O   UNL     1      10.807   0.140  23.473  0.00  0.00    -0.491 OA
ENDBRANCH  59  68
ENDBRANCH  57  61
ENDBRANCH  55  58
ENDBRANCH  54  55
ENDBRANCH  53  54
ENDBRANCH  41  53
ENDBRANCH  40  43
ENDBRANCH   1  40
TORSDOF 23
ENDMDL
MODEL 3
REMARK VINA RESULT:      -6.8      2.305      5.546
REMARK  Name = 
REMARK  24 active torsions:
REMARK  status: ('A' for Active; 'I' for Inactive)
REMARK    1  A    between atoms: C_1  and  O_2
REMARK    2  A    between atoms: O_2  and  C_3
REMARK    3  A    between atoms: C_4  and  O_57
REMARK    4  A    between atoms: C_7  and  C_9
REMARK    5  A    between atoms: C_10  and  C_11
REMARK    6  A    between atoms: C_11  and  O_13
REMARK    7  A    between atoms: O_13  and  C_14
REMARK    8  A    between atoms: C_14  and  C_15
REMARK    9  A    between atoms: C_16  and  O_56
REMARK   10  A    between atoms: C_17  and  O_55
REMARK   11  A    between atoms: C_18  and  O_54
REMARK   12  A    between atoms: C_19  and  O_21
REMARK   13  A    between atoms: O_21  and  C_22
REMARK   14  A    between atoms: C_23  and  O_53
REMARK   15  A    between atoms: C_24  and  O_52
REMARK   16  A    between atoms: C_25  and  C_50
REMARK   17  A    between atoms: C_27  and  O_28
REMARK   18  A    between atoms: O_28  and  C_29
REMARK   19  A    between atoms: C_30  and  C_42
REMARK   20  A    between atoms: C_34  and  O_41
REMARK   21  A    between atoms: C_36  and  O_40
REMARK   22  A    between atoms: C_44  and  O_49
REMARK   23  A    between atoms: C_45  and  O_48
REMARK   24  A    between atoms: C_50  and  O_51
REMARK                            x       y       z     vdW  Elec       q    Type
REMARK                         _______ _______ _______ _____ _____    ______ ____
ROOT
ATOM      1  C   UNL     1       7.289  -0.745  24.326  0.00  0.00    +0.221 C 
ATOM      2  C   UNL     1       7.002   0.812  24.311  0.00  0.00    +0.340 C 
ATOM      3  O   UNL     1       6.912   1.286  22.963  0.00  0.00    -0.331 OA
ATOM      4  C   UNL     1       8.046   1.102  22.116  0.00  0.00    +0.179 C 
ATOM      5  C   UNL     1       8.517  -0.357  22.112  0.00  0.00    +0.177 C 
ATOM      6  C   UNL     1       8.624  -0.908  23.545  0.00  0.00    +0.180 C 
ENDROOT
BRANCH   6   7
ATOM      7  O   UNL     1       9.053  -2.271  23.471  0.00  0.00    -0.386 OA
ATOM      8  H   UNL     1       8.675  -2.640  22.651  0.00  0.00    +0.210 HD
ENDBRANCH   6   7
BRANCH   5   9
ATOM      9  O   UNL     1       9.783  -0.467  21.453  0.00  0.00    -0.386 OA
ATOM     10  H   UNL     1       9.985   0.436  21.109  0.00  0.00    +0.210 HD
ENDBRANCH   5   9
BRANCH   4  11
ATOM     11  C   UNL     1       9.173   2.088  22.445  0.00  0.00    +0.190 C 
BRANCH  11  12
ATOM     12  O   UNL     1      10.157   2.225  21.431  0.00  0.00    -0.392 OA
ATOM     13  H   UNL     1      10.096   1.410  20.888  0.00  0.00    +0.210 HD
ENDBRANCH  11  12
ENDBRANCH   4  11
BRANCH   2  14
ATOM     14  O   UNL     1       7.978   1.487  25.136  0.00  0.00    -0.453 OA
BRANCH  14  15
ATOM     15  C   UNL     1       7.650   2.040  26.374  0.00  0.00    +0.214 A 
ATOM     16  C   UNL     1       7.238   1.240  27.586  0.00  0.00    +0.238 A 
ATOM     17  O   UNL     1       7.706   0.139  27.829  0.00  0.00    -0.283 OA
ATOM     18  C   UNL     1       6.200   1.910  28.436  0.00  0.00    +0.109 A 
ATOM     19  C   UNL     1       6.193   3.306  28.415  0.00  0.00    +0.147 A 
ATOM     20  C   UNL     1       5.243   4.066  29.095  0.00  0.00    +0.092 A 
ATOM     21  C   UNL     1       4.261   3.403  29.811  0.00  0.00    +0.124 A 
ATOM     22  C   UNL     1       4.234   2.011  29.858  0.00  0.00    +0.091 A 
ATOM     23  O   UNL     1       7.098   4.010  27.670  0.00  0.00    -0.451 OA
ATOM     24  C   UNL     1       5.201   1.262  29.166  0.00  0.00    +0.135 A 
ATOM     25  C   UNL     1       7.486   3.377  26.511  0.00  0.00    +0.181 A 
BRANCH  25  26
ATOM     26  C   UNL     1       7.466   4.283  25.365  0.00  0.00    +0.025 A 
ATOM     27  C   UNL     1       6.242   4.441  24.693  0.00  0.00    +0.015 A 
ATOM     28  C   UNL     1       6.225   4.889  23.380  0.00  0.00    +0.050 A 
ATOM     29  C   UNL     1       7.421   5.271  22.808  0.00  0.00    +0.158 A 
ATOM     30  C   UNL     1       8.576   5.399  23.581  0.00  0.00    +0.159 A 
ATOM     31  C   UNL     1       8.619   4.886  24.868  0.00  0.00    +0.060 A 
BRANCH  30  32
ATOM     32  O   UNL     1       9.677   5.969  23.007  0.00  0.00    -0.503 OA
ATOM     33  H   UNL     1      10.356   5.274  22.932  0.00  0.00    +0.292 HD
ENDBRANCH  30  32
BRANCH  29  34
ATOM     34  O   UNL     1       7.477   5.451  21.458  0.00  0.00    -0.503 OA
ATOM     35  H   UNL     1       7.652   4.554  21.112  0.00  0.00    +0.292 HD
ENDBRANCH  29  34
ENDBRANCH  25  26
BRANCH  24  36
ATOM     36  O   UNL     1       5.108  -0.099  29.173  0.00  0.00    -0.506 OA
ATOM     37  H   UNL     1       4.254  -0.370  29.551  0.00  0.00    +0.292 HD
ENDBRANCH  24  36
BRANCH  21  38
ATOM     38  O   UNL     1       3.295   4.101  30.471  0.00  0.00    -0.507 OA
ATOM     39  H   UNL     1       3.534   5.036  30.500  0.00  0.00    +0.292 HD
ENDBRANCH  21  38
ENDBRANCH  14  15
ENDBRANCH   2  14
BRANCH   1  40
ATOM     40  O   UNL     1       6.300  -1.617  23.687  0.00  0.00    -0.337 OA
BRANCH  40  43
ATOM     41  C   UNL     1       4.872  -2.451  26.996  0.00  0.00    +0.190 C 
ATOM     42  O   UNL     1       5.408  -1.712  25.868  0.00  0.00    -0.339 OA
ATOM     43  C   UNL     1       5.253  -2.218  24.518  0.00  0.00    +0.282 C 
ATOM     44  C   UNL     1       5.434  -3.741  24.467  0.00  0.00    +0.201 C 
ATOM     45  C   UNL     1       4.650  -4.454  25.547  0.00  0.00    +0.179 C 
ATOM     46  C   UNL     1       5.124  -3.965  26.909  0.00  0.00    +0.178 C 
BRANCH  46  47
ATOM     47  O   UNL     1       4.438  -4.683  27.942  0.00  0.00    -0.386 OA
ATOM     48  H   UNL     1       5.072  -5.345  28.290  0.00  0.00    +0.210 HD
ENDBRANCH  46  47
BRANCH  45  49
ATOM     49  O   UNL     1       4.859  -5.870  25.465  0.00  0.00    -0.386 OA
ATOM     50  H   UNL     1       5.604  -6.061  26.076  0.00  0.00    +0.210 HD
ENDBRANCH  45  49
BRANCH  44  51
ATOM     51  O   UNL     1       6.822  -4.093  24.640  0.00  0.00    -0.384 OA
ATOM     52  H   UNL     1       6.916  -4.448  25.550  0.00  0.00    +0.210 HD
ENDBRANCH  44  51
BRANCH  41  53
ATOM     53  C   UNL     1       3.384  -2.206  27.342  0.00  0.00    +0.266 C 
BRANCH  53  54
ATOM     54  O   UNL     1       2.896  -0.950  26.853  0.00  0.00    -0.459 OA
BRANCH  54  55
ATOM     55  C   UNL     1       2.178  -0.224  27.742  0.00  0.00    +0.332 C 
ATOM     56  O   UNL     1       1.915  -0.543  28.878  0.00  0.00    -0.246 OA
BRANCH  55  58
ATOM     57  C   UNL     1       2.849   1.721  26.457  0.00  0.00    +0.015 C 
ATOM     58  C   UNL     1       1.880   1.074  27.114  0.00  0.00    +0.092 C 
BRANCH  57  61
ATOM     59  C   UNL     1       2.438   4.358  23.730  0.00  0.00    +0.162 A 
ATOM     60  C   UNL     1       2.521   3.102  24.342  0.00  0.00    +0.057 A 
ATOM     61  C   UNL     1       2.730   2.999  25.730  0.00  0.00    -0.021 A 
ATOM     62  C   UNL     1       2.861   4.179  26.482  0.00  0.00    +0.012 A 
ATOM     63  C   UNL     1       2.797   5.430  25.874  0.00  0.00    +0.050 A 
ATOM     64  C   UNL     1       2.591   5.509  24.506  0.00  0.00    +0.158 A 
BRANCH  64  65
ATOM     65  O   UNL     1       2.520   6.747  23.935  0.00  0.00    -0.503 OA
ATOM     66  H   UNL     1       3.290   6.799  23.339  0.00  0.00    +0.292 HD
ENDBRANCH  64  65
BRANCH  59  68
ATOM     67  C   UNL     1       2.919   3.695  21.504  0.00  0.00    +0.277 C 
ATOM     68  O   UNL     1       2.239   4.582  22.388  0.00  0.00    -0.491 OA
ENDBRANCH  59  68
ENDBRANCH  57  61
ENDBRANCH  55  58
ENDBRANCH  54  55
ENDBRANCH  53  54
ENDBRANCH  41  53
ENDBRANCH  40  43
ENDBRANCH   1  40
TORSDOF 23
ENDMDL
MODEL 4
REMARK VINA RESULT:      -6.8      2.395      6.677
REMARK  Name = 
REMARK  24 active torsions:
REMARK  status: ('A' for Active; 'I' for Inactive)
REMARK    1  A    between atoms: C_1  and  O_2
REMARK    2  A    between atoms: O_2  and  C_3
REMARK    3  A    between atoms: C_4  and  O_57
REMARK    4  A    between atoms: C_7  and  C_9
REMARK    5  A    between atoms: C_10  and  C_11
REMARK    6  A    between atoms: C_11  and  O_13
REMARK    7  A    between atoms: O_13  and  C_14
REMARK    8  A    between atoms: C_14  and  C_15
REMARK    9  A    between atoms: C_16  and  O_56
REMARK   10  A    between atoms: C_17  and  O_55
REMARK   11  A    between atoms: C_18  and  O_54
REMARK   12  A    between atoms: C_19  and  O_21
REMARK   13  A    between atoms: O_21  and  C_22
REMARK   14  A    between atoms: C_23  and  O_53
REMARK   15  A    between atoms: C_24  and  O_52
REMARK   16  A    between atoms: C_25  and  C_50
REMARK   17  A    between atoms: C_27  and  O_28
REMARK   18  A    between atoms: O_28  and  C_29
REMARK   19  A    between atoms: C_30  and  C_42
REMARK   20  A    between atoms: C_34  and  O_41
REMARK   21  A    between atoms: C_36  and  O_40
REMARK   22  A    between atoms: C_44  and  O_49
REMARK   23  A    between atoms: C_45  and  O_48
REMARK   24  A    between atoms: C_50  and  O_51
REMARK                            x       y       z     vdW  Elec       q    Type
REMARK                         _______ _______ _______ _____ _____    ______ ____
ROOT
ATOM      1  C   UNL     1       4.487  -0.934  27.490  0.00  0.00    +0.221 C 
ATOM      2  C   UNL     1       5.466   0.016  28.294  0.00  0.00    +0.340 C 
ATOM      3  O   UNL     1       4.879   0.384  29.548  0.00  0.00    -0.331 OA
ATOM      4  C   UNL     1       3.626   1.067  29.522  0.00  0.00    +0.179 C 
ATOM      5  C   UNL     1       2.591   0.314  28.678  0.00  0.00    +0.177 C 
ATOM      6  C   UNL     1       3.182  -0.105  27.320  0.00  0.00    +0.180 C 
ENDROOT
BRANCH   6   7
ATOM      7  O   UNL     1       2.175  -0.811  26.590  0.00  0.00    -0.386 OA
ATOM      8  H   UNL     1       2.372  -0.683  25.643  0.00  0.00    +0.210 HD
ENDBRANCH   6   7
BRANCH   5   9
ATOM      9  O   UNL     1       1.432   1.128  28.473  0.00  0.00    -0.386 OA
ATOM     10  H   UNL     1       0.805   0.888  29.197  0.00  0.00    +0.210 HD
ENDBRANCH   5   9
BRANCH   4  11
ATOM     11  C   UNL     1       3.781   2.533  29.103  0.00  0.00    +0.190 C 
BRANCH  11  12
ATOM     12  O   UNL     1       2.669   3.359  29.411  0.00  0.00    -0.392 OA
ATOM     13  H   UNL     1       2.847   4.220  28.975  0.00  0.00    +0.210 HD
ENDBRANCH  11  12
ENDBRANCH   4  11
BRANCH   2  14
ATOM     14  O   UNL     1       5.859   1.123  27.452  0.00  0.00    -0.453 OA
BRANCH  14  15
ATOM     15  C   UNL     1       6.415   0.932  26.187  0.00  0.00    +0.214 A 
ATOM     16  C   UNL     1       7.700   0.186  25.921  0.00  0.00    +0.238 A 
ATOM     17  O   UNL     1       8.039  -0.784  26.581  0.00  0.00    -0.283 OA
ATOM     18  C   UNL     1       8.516   0.756  24.800  0.00  0.00    +0.109 A 
ATOM     19  C   UNL     1       7.807   1.420  23.796  0.00  0.00    +0.147 A 
ATOM     20  C   UNL     1       8.433   2.064  22.730  0.00  0.00    +0.092 A 
ATOM     21  C   UNL     1       9.816   2.050  22.674  0.00  0.00    +0.124 A 
ATOM     22  C   UNL     1      10.560   1.398  23.655  0.00  0.00    +0.091 A 
ATOM     23  O   UNL     1       6.445   1.522  23.839  0.00  0.00    -0.451 OA
ATOM     24  C   UNL     1       9.911   0.755  24.722  0.00  0.00    +0.135 A 
ATOM     25  C   UNL     1       5.925   1.591  25.111  0.00  0.00    +0.181 A 
BRANCH  25  26
ATOM     26  C   UNL     1       4.926   2.651  25.233  0.00  0.00    +0.025 A 
ATOM     27  C   UNL     1       5.400   3.967  25.364  0.00  0.00    +0.015 A 
ATOM     28  C   UNL     1       4.591   4.942  25.927  0.00  0.00    +0.050 A 
ATOM     29  C   UNL     1       3.291   4.605  26.244  0.00  0.00    +0.158 A 
ATOM     30  C   UNL     1       2.745   3.390  25.829  0.00  0.00    +0.159 A 
ATOM     31  C   UNL     1       3.563   2.386  25.334  0.00  0.00    +0.060 A 
BRANCH  30  32
ATOM     32  O   UNL     1       1.403   3.194  25.997  0.00  0.00    -0.503 OA
ATOM     33  H   UNL     1       1.237   3.140  26.955  0.00  0.00    +0.292 HD
ENDBRANCH  30  32
BRANCH  29  34
ATOM     34  O   UNL     1       2.568   5.445  27.038  0.00  0.00    -0.503 OA
ATOM     35  H   UNL     1       1.747   5.594  26.530  0.00  0.00    +0.292 HD
ENDBRANCH  29  34
ENDBRANCH  25  26
BRANCH  24  36
ATOM     36  O   UNL     1      10.667   0.184  25.704  0.00  0.00    -0.506 OA
ATOM     37  H   UNL     1      10.264   0.355  26.573  0.00  0.00    +0.292 HD
ENDBRANCH  24  36
BRANCH  21  38
ATOM     38  O   UNL     1      10.474   2.687  21.666  0.00  0.00    -0.507 OA
ATOM     39  H   UNL     1      10.602   2.077  20.928  0.00  0.00    +0.292 HD
ENDBRANCH  21  38
ENDBRANCH  14  15
ENDBRANCH   2  14
BRANCH   1  40
ATOM     40  O   UNL     1       4.116  -2.205  28.120  0.00  0.00    -0.337 OA
BRANCH  40  43
ATOM     41  C   UNL     1       2.155  -5.177  27.114  0.00  0.00    +0.190 C 
ATOM     42  O   UNL     1       2.536  -3.810  27.421  0.00  0.00    -0.339 OA
ATOM     43  C   UNL     1       3.911  -3.378  27.265  0.00  0.00    +0.282 C 
ATOM     44  C   UNL     1       4.894  -4.465  27.721  0.00  0.00    +0.201 C 
ATOM     45  C   UNL     1       4.550  -5.829  27.163  0.00  0.00    +0.179 C 
ATOM     46  C   UNL     1       3.156  -6.220  27.635  0.00  0.00    +0.178 C 
BRANCH  46  47
ATOM     47  O   UNL     1       2.845  -7.540  27.171  0.00  0.00    -0.386 OA
ATOM     48  H   UNL     1       3.224  -7.616  26.271  0.00  0.00    +0.210 HD
ENDBRANCH  46  47
BRANCH  45  49
ATOM     49  O   UNL     1       5.488  -6.810  27.624  0.00  0.00    -0.386 OA
ATOM     50  H   UNL     1       4.989  -7.655  27.656  0.00  0.00    +0.210 HD
ENDBRANCH  45  49
BRANCH  44  51
ATOM     51  O   UNL     1       4.895  -4.577  29.159  0.00  0.00    -0.384 OA
ATOM     52  H   UNL     1       4.257  -3.915  29.498  0.00  0.00    +0.210 HD
ENDBRANCH  44  51
BRANCH  41  53
ATOM     53  C   UNL     1       1.824  -5.489  25.636  0.00  0.00    +0.266 C 
BRANCH  53  54
ATOM     54  O   UNL     1       2.974  -5.882  24.875  0.00  0.00    -0.459 OA
BRANCH  54  55
ATOM     55  C   UNL     1       3.005  -5.427  23.601  0.00  0.00    +0.332 C 
ATOM     56  O   UNL     1       2.048  -5.212  22.895  0.00  0.00    -0.246 OA
BRANCH  55  58
ATOM     57  C   UNL     1       4.953  -3.983  23.706  0.00  0.00    +0.015 C 
ATOM     58  C   UNL     1       4.409  -5.127  23.274  0.00  0.00    +0.092 C 
BRANCH  57  61
ATOM     59  C   UNL     1       8.738  -3.588  23.968  0.00  0.00    +0.162 A 
ATOM     60  C   UNL     1       7.450  -4.089  24.192  0.00  0.00    +0.057 A 
ATOM     61  C   UNL     1       6.344  -3.534  23.520  0.00  0.00    -0.021 A 
ATOM     62  C   UNL     1       6.561  -2.467  22.632  0.00  0.00    +0.012 A 
ATOM     63  C   UNL     1       7.838  -1.954  22.421  0.00  0.00    +0.050 A 
ATOM     64  C   UNL     1       8.913  -2.515  23.092  0.00  0.00    +0.158 A 
BRANCH  64  65
ATOM     65  O   UNL     1      10.157  -2.003  22.859  0.00  0.00    -0.503 OA
ATOM     66  H   UNL     1      10.523  -1.809  23.742  0.00  0.00    +0.292 HD
ENDBRANCH  64  65
BRANCH  59  68
ATOM     67  C   UNL     1       9.720  -5.098  25.512  0.00  0.00    +0.277 C 
ATOM     68  O   UNL     1       9.888  -4.047  24.565  0.00  0.00    -0.491 OA
ENDBRANCH  59  68
ENDBRANCH  57  61
ENDBRANCH  55  58
ENDBRANCH  54  55
ENDBRANCH  53  54
ENDBRANCH  41  53
ENDBRANCH  40  43
ENDBRANCH   1  40
TORSDOF 23
ENDMDL
MODEL 5
REMARK VINA RESULT:      -6.7      2.255      9.908
REMARK  Name = 
REMARK  24 active torsions:
REMARK  status: ('A' for Active; 'I' for Inactive)
REMARK    1  A    between atoms: C_1  and  O_2
REMARK    2  A    between atoms: O_2  and  C_3
REMARK    3  A    between atoms: C_4  and  O_57
REMARK    4  A    between atoms: C_7  and  C_9
REMARK    5  A    between atoms: C_10  and  C_11
REMARK    6  A    between atoms: C_11  and  O_13
REMARK    7  A    between atoms: O_13  and  C_14
REMARK    8  A    between atoms: C_14  and  C_15
REMARK    9  A    between atoms: C_16  and  O_56
REMARK   10  A    between atoms: C_17  and  O_55
REMARK   11  A    between atoms: C_18  and  O_54
REMARK   12  A    between atoms: C_19  and  O_21
REMARK   13  A    between atoms: O_21  and  C_22
REMARK   14  A    between atoms: C_23  and  O_53
REMARK   15  A    between atoms: C_24  and  O_52
REMARK   16  A    between atoms: C_25  and  C_50
REMARK   17  A    between atoms: C_27  and  O_28
REMARK   18  A    between atoms: O_28  and  C_29
REMARK   19  A    between atoms: C_30  and  C_42
REMARK   20  A    between atoms: C_34  and  O_41
REMARK   21  A    between atoms: C_36  and  O_40
REMARK   22  A    between atoms: C_44  and  O_49
REMARK   23  A    between atoms: C_45  and  O_48
REMARK   24  A    between atoms: C_50  and  O_51
REMARK                            x       y       z     vdW  Elec       q    Type
REMARK                         _______ _______ _______ _____ _____    ______ ____
ROOT
ATOM      1  C   UNL     1       4.930  -1.551  27.302  0.00  0.00    +0.221 C 
ATOM      2  C   UNL     1       5.242  -1.873  25.783  0.00  0.00    +0.340 C 
ATOM      3  O   UNL     1       4.128  -2.540  25.179  0.00  0.00    -0.331 OA
ATOM      4  C   UNL     1       3.704  -3.778  25.749  0.00  0.00    +0.179 C 
ATOM      5  C   UNL     1       3.465  -3.652  27.258  0.00  0.00    +0.177 C 
ATOM      6  C   UNL     1       4.639  -2.936  27.948  0.00  0.00    +0.180 C 
ENDROOT
BRANCH   6   7
ATOM      7  O   UNL     1       4.348  -2.839  29.345  0.00  0.00    -0.386 OA
ATOM      8  H   UNL     1       3.876  -3.656  29.590  0.00  0.00    +0.210 HD
ENDBRANCH   6   7
BRANCH   5   9
ATOM      9  O   UNL     1       3.276  -4.946  27.839  0.00  0.00    -0.386 OA
ATOM     10  H   UNL     1       2.757  -5.463  27.177  0.00  0.00    +0.210 HD
ENDBRANCH   5   9
BRANCH   4  11
ATOM     11  C   UNL     1       4.655  -4.928  25.393  0.00  0.00    +0.190 C 
BRANCH  11  12
ATOM     12  O   UNL     1       4.036  -6.201  25.296  0.00  0.00    -0.392 OA
ATOM     13  H   UNL     1       3.314  -6.199  25.961  0.00  0.00    +0.210 HD
ENDBRANCH  11  12
ENDBRANCH   4  11
BRANCH   2  14
ATOM     14  O   UNL     1       6.502  -2.576  25.691  0.00  0.00    -0.453 OA
BRANCH  14  15
ATOM     15  C   UNL     1       7.655  -1.971  25.191  0.00  0.00    +0.214 A 
ATOM     16  C   UNL     1       8.287  -0.727  25.767  0.00  0.00    +0.238 A 
ATOM     17  O   UNL     1       8.280  -0.488  26.964  0.00  0.00    -0.283 OA
ATOM     18  C   UNL     1       8.895   0.181  24.739  0.00  0.00    +0.109 A 
ATOM     19  C   UNL     1       9.358  -0.431  23.573  0.00  0.00    +0.147 A 
ATOM     20  C   UNL     1       9.879   0.289  22.500  0.00  0.00    +0.092 A 
ATOM     21  C   UNL     1       9.928   1.669  22.595  0.00  0.00    +0.124 A 
ATOM     22  C   UNL     1       9.476   2.318  23.743  0.00  0.00    +0.091 A 
ATOM     23  O   UNL     1       9.272  -1.784  23.398  0.00  0.00    -0.451 OA
ATOM     24  C   UNL     1       8.954   1.575  24.814  0.00  0.00    +0.135 A 
ATOM     25  C   UNL     1       8.181  -2.361  24.006  0.00  0.00    +0.181 A 
BRANCH  25  26
ATOM     26  C   UNL     1       7.491  -3.291  23.114  0.00  0.00    +0.025 A 
ATOM     27  C   UNL     1       6.348  -2.815  22.450  0.00  0.00    +0.015 A 
ATOM     28  C   UNL     1       5.403  -3.709  21.971  0.00  0.00    +0.050 A 
ATOM     29  C   UNL     1       5.674  -5.058  22.071  0.00  0.00    +0.158 A 
ATOM     30  C   UNL     1       6.939  -5.509  22.451  0.00  0.00    +0.159 A 
ATOM     31  C   UNL     1       7.860  -4.629  22.998  0.00  0.00    +0.060 A 
BRANCH  30  32
ATOM     32  O   UNL     1       7.210  -6.843  22.342  0.00  0.00    -0.503 OA
ATOM     33  H   UNL     1       6.454  -7.324  22.725  0.00  0.00    +0.292 HD
ENDBRANCH  30  32
BRANCH  29  34
ATOM     34  O   UNL     1       4.663  -5.951  21.866  0.00  0.00    -0.503 OA
ATOM     35  H   UNL     1       4.361  -6.169  22.769  0.00  0.00    +0.292 HD
ENDBRANCH  29  34
ENDBRANCH  25  26
BRANCH  24  36
ATOM     36  O   UNL     1       8.455   2.241  25.896  0.00  0.00    -0.506 OA
ATOM     37  H   UNL     1       7.825   2.921  25.603  0.00  0.00    +0.292 HD
ENDBRANCH  24  36
BRANCH  21  38
ATOM     38  O   UNL     1      10.405   2.419  21.563  0.00  0.00    -0.507 OA
ATOM     39  H   UNL     1       9.677   2.666  20.978  0.00  0.00    +0.292 HD
ENDBRANCH  21  38
ENDBRANCH  14  15
ENDBRANCH   2  14
BRANCH   1  40
ATOM     40  O   UNL     1       3.778  -0.689  27.582  0.00  0.00    -0.337 OA
BRANCH  40  43
ATOM     41  C   UNL     1       3.014   2.476  29.340  0.00  0.00    +0.190 C 
ATOM     42  O   UNL     1       3.385   1.099  29.069  0.00  0.00    -0.339 OA
ATOM     43  C   UNL     1       4.011   0.740  27.811  0.00  0.00    +0.282 C 
ATOM     44  C   UNL     1       3.388   1.509  26.638  0.00  0.00    +0.201 C 
ATOM     45  C   UNL     1       3.249   2.988  26.922  0.00  0.00    +0.179 C 
ATOM     46  C   UNL     1       2.355   3.176  28.141  0.00  0.00    +0.178 C 
BRANCH  46  47
ATOM     47  O   UNL     1       2.158   4.576  28.379  0.00  0.00    -0.386 OA
ATOM     48  H   UNL     1       1.478   4.646  29.081  0.00  0.00    +0.210 HD
ENDBRANCH  46  47
BRANCH  45  49
ATOM     49  O   UNL     1       2.654   3.659  25.803  0.00  0.00    -0.386 OA
ATOM     50  H   UNL     1       3.233   4.431  25.622  0.00  0.00    +0.210 HD
ENDBRANCH  45  49
BRANCH  44  51
ATOM     51  O   UNL     1       2.070   1.002  26.342  0.00  0.00    -0.384 OA
ATOM     52  H   UNL     1       1.804   0.438  27.099  0.00  0.00    +0.210 HD
ENDBRANCH  44  51
BRANCH  41  53
ATOM     53  C   UNL     1       4.120   3.392  29.915  0.00  0.00    +0.266 C 
BRANCH  53  54
ATOM     54  O   UNL     1       5.066   3.817  28.924  0.00  0.00    -0.459 OA
BRANCH  54  55
ATOM     55  C   UNL     1       5.505   5.091  29.055  0.00  0.00    +0.332 C 
ATOM     56  O   UNL     1       5.704   5.675  30.095  0.00  0.00    -0.246 OA
BRANCH  55  58
ATOM     57  C   UNL     1       6.611   4.875  26.906  0.00  0.00    +0.015 C 
ATOM     58  C   UNL     1       5.813   5.592  27.706  0.00  0.00    +0.092 C 
BRANCH  57  61
ATOM     59  C   UNL     1       8.519   5.992  23.796  0.00  0.00    +0.162 A 
ATOM     60  C   UNL     1       8.247   5.704  25.139  0.00  0.00    +0.057 A 
ATOM     61  C   UNL     1       6.992   5.189  25.517  0.00  0.00    -0.021 A 
ATOM     62  C   UNL     1       6.022   4.979  24.522  0.00  0.00    +0.012 A 
ATOM     63  C   UNL     1       6.282   5.281  23.189  0.00  0.00    +0.050 A 
ATOM     64  C   UNL     1       7.524   5.787  22.838  0.00  0.00    +0.158 A 
BRANCH  64  65
ATOM     65  O   UNL     1       7.759   6.063  21.521  0.00  0.00    -0.503 OA
ATOM     66  H   UNL     1       6.959   5.764  21.050  0.00  0.00    +0.292 HD
ENDBRANCH  64  65
BRANCH  59  68
ATOM     67  C   UNL     1      10.880   5.795  23.692  0.00  0.00    +0.277 C 
ATOM     68  O   UNL     1       9.701   6.497  23.311  0.00  0.00    -0.491 OA
ENDBRANCH  59  68
ENDBRANCH  57  61
ENDBRANCH  55  58
ENDBRANCH  54  55
ENDBRANCH  53  54
ENDBRANCH  41  53
ENDBRANCH  40  43
ENDBRANCH   1  40
TORSDOF 23
ENDMDL
MODEL 6
REMARK VINA RESULT:      -6.7      2.576      8.488
REMARK  Name = 
REMARK  24 active torsions:
REMARK  status: ('A' for Active; 'I' for Inactive)
REMARK    1  A    between atoms: C_1  and  O_2
REMARK    2  A    between atoms: O_2  and  C_3
REMARK    3  A    between atoms: C_4  and  O_57
REMARK    4  A    between atoms: C_7  and  C_9
REMARK    5  A    between atoms: C_10  and  C_11
REMARK    6  A    between atoms: C_11  and  O_13
REMARK    7  A    between atoms: O_13  and  C_14
REMARK    8  A    between atoms: C_14  and  C_15
REMARK    9  A    between atoms: C_16  and  O_56
REMARK   10  A    between atoms: C_17  and  O_55
REMARK   11  A    between atoms: C_18  and  O_54
REMARK   12  A    between atoms: C_19  and  O_21
REMARK   13  A    between atoms: O_21  and  C_22
REMARK   14  A    between atoms: C_23  and  O_53
REMARK   15  A    between atoms: C_24  and  O_52
REMARK   16  A    between atoms: C_25  and  C_50
REMARK   17  A    between atoms: C_27  and  O_28
REMARK   18  A    between atoms: O_28  and  C_29
REMARK   19  A    between atoms: C_30  and  C_42
REMARK   20  A    between atoms: C_34  and  O_41
REMARK   21  A    between atoms: C_36  and  O_40
REMARK   22  A    between atoms: C_44  and  O_49
REMARK   23  A    between atoms: C_45  and  O_48
REMARK   24  A    between atoms: C_50  and  O_51
REMARK                            x       y       z     vdW  Elec       q    Type
REMARK                         _______ _______ _______ _____ _____    ______ ____
ROOT
ATOM      1  C   UNL     1       8.197   0.585  24.066  0.00  0.00    +0.221 C 
ATOM      2  C   UNL     1       7.946  -0.602  25.085  0.00  0.00    +0.340 C 
ATOM      3  O   UNL     1       9.168  -1.305  25.336  0.00  0.00    -0.331 OA
ATOM      4  C   UNL     1       9.837  -1.898  24.223  0.00  0.00    +0.179 C 
ATOM      5  C   UNL     1      10.057  -0.884  23.093  0.00  0.00    +0.177 C 
ATOM      6  C   UNL     1       8.766  -0.102  22.792  0.00  0.00    +0.180 C 
ENDROOT
BRANCH   6   7
ATOM      7  O   UNL     1       9.041   0.831  21.743  0.00  0.00    -0.386 OA
ATOM      8  H   UNL     1       9.658   1.492  22.109  0.00  0.00    +0.210 HD
ENDBRANCH   6   7
BRANCH   5   9
ATOM      9  O   UNL     1      10.507  -1.552  21.910  0.00  0.00    -0.386 OA
ATOM     10  H   UNL     1       9.752  -2.118  21.619  0.00  0.00    +0.210 HD
ENDBRANCH   5   9
BRANCH   4  11
ATOM     11  C   UNL     1       9.136  -3.175  23.746  0.00  0.00    +0.190 C 
BRANCH  11  12
ATOM     12  O   UNL     1       9.519  -4.355  24.435  0.00  0.00    -0.392 OA
ATOM     13  H   UNL     1       9.119  -4.285  25.329  0.00  0.00    +0.210 HD
ENDBRANCH  11  12
ENDBRANCH   4  11
BRANCH   2  14
ATOM     14  O   UNL     1       6.853  -1.419  24.607  0.00  0.00    -0.453 OA
BRANCH  14  15
ATOM     15  C   UNL     1       5.600  -1.416  25.220  0.00  0.00    +0.214 A 
ATOM     16  C   UNL     1       5.205  -0.500  26.353  0.00  0.00    +0.238 A 
ATOM     17  O   UNL     1       5.619   0.646  26.439  0.00  0.00    -0.283 OA
ATOM     18  C   UNL     1       4.287  -1.131  27.357  0.00  0.00    +0.109 A 
ATOM     19  C   UNL     1       3.452  -2.143  26.878  0.00  0.00    +0.147 A 
ATOM     20  C   UNL     1       2.599  -2.871  27.705  0.00  0.00    +0.092 A 
ATOM     21  C   UNL     1       2.589  -2.582  29.058  0.00  0.00    +0.124 A 
ATOM     22  C   UNL     1       3.406  -1.578  29.575  0.00  0.00    +0.091 A 
ATOM     23  O   UNL     1       3.471  -2.515  25.562  0.00  0.00    -0.451 OA
ATOM     24  C   UNL     1       4.260  -0.855  28.726  0.00  0.00    +0.135 A 
ATOM     25  C   UNL     1       4.702  -2.394  24.961  0.00  0.00    +0.181 A 
BRANCH  25  26
ATOM     26  C   UNL     1       5.045  -3.582  24.181  0.00  0.00    +0.025 A 
ATOM     27  C   UNL     1       5.501  -4.706  24.891  0.00  0.00    +0.015 A 
ATOM     28  C   UNL     1       6.257  -5.673  24.245  0.00  0.00    +0.050 A 
ATOM     29  C   UNL     1       6.446  -5.549  22.885  0.00  0.00    +0.158 A 
ATOM     30  C   UNL     1       5.736  -4.602  22.146  0.00  0.00    +0.159 A 
ATOM     31  C   UNL     1       5.039  -3.590  22.789  0.00  0.00    +0.060 A 
BRANCH  30  32
ATOM     32  O   UNL     1       5.813  -4.655  20.782  0.00  0.00    -0.503 OA
ATOM     33  H   UNL     1       6.689  -4.313  20.529  0.00  0.00    +0.292 HD
ENDBRANCH  30  32
BRANCH  29  34
ATOM     34  O   UNL     1       7.397  -6.317  22.279  0.00  0.00    -0.503 OA
ATOM     35  H   UNL     1       8.216  -6.096  22.764  0.00  0.00    +0.292 HD
ENDBRANCH  29  34
ENDBRANCH  25  26
BRANCH  24  36
ATOM     36  O   UNL     1       5.099   0.073  29.271  0.00  0.00    -0.506 OA
ATOM     37  H   UNL     1       4.606   0.889  29.466  0.00  0.00    +0.292 HD
ENDBRANCH  24  36
BRANCH  21  38
ATOM     38  O   UNL     1       1.791  -3.283  29.911  0.00  0.00    -0.507 OA
ATOM     39  H   UNL     1       2.248  -4.084  30.197  0.00  0.00    +0.292 HD
ENDBRANCH  21  38
ENDBRANCH  14  15
ENDBRANCH   2  14
BRANCH   1  40
ATOM     40  O   UNL     1       9.153   1.622  24.466  0.00  0.00    -0.337 OA
BRANCH  40  43
ATOM     41  C   UNL     1       6.860   4.371  23.533  0.00  0.00    +0.190 C 
ATOM     42  O   UNL     1       7.371   3.089  23.983  0.00  0.00    -0.339 OA
ATOM     43  C   UNL     1       8.673   2.999  24.615  0.00  0.00    +0.282 C 
ATOM     44  C   UNL     1       9.691   3.924  23.934  0.00  0.00    +0.201 C 
ATOM     45  C   UNL     1       9.147   5.318  23.710  0.00  0.00    +0.179 C 
ATOM     46  C   UNL     1       7.914   5.232  22.820  0.00  0.00    +0.178 C 
BRANCH  46  47
ATOM     47  O   UNL     1       7.430   6.552  22.543  0.00  0.00    -0.386 OA
ATOM     48  H   UNL     1       6.610   6.444  22.018  0.00  0.00    +0.210 HD
ENDBRANCH  46  47
BRANCH  45  49
ATOM     49  O   UNL     1      10.129   6.140  23.064  0.00  0.00    -0.386 OA
ATOM     50  H   UNL     1      10.406   6.797  23.740  0.00  0.00    +0.210 HD
ENDBRANCH  45  49
BRANCH  44  51
ATOM     51  O   UNL     1      10.072   3.399  22.646  0.00  0.00    -0.384 OA
ATOM     52  H   UNL     1      10.441   2.503  22.800  0.00  0.00    +0.210 HD
ENDBRANCH  44  51
BRANCH  41  53
ATOM     53  C   UNL     1       6.130   5.236  24.588  0.00  0.00    +0.266 C 
BRANCH  53  54
ATOM     54  O   UNL     1       7.029   5.875  25.505  0.00  0.00    -0.459 OA
BRANCH  54  55
ATOM     55  C   UNL     1       6.981   5.412  26.776  0.00  0.00    +0.332 C 
ATOM     56  O   UNL     1       7.822   5.576  27.629  0.00  0.00    -0.246 OA
BRANCH  55  58
ATOM     57  C   UNL     1       5.472   3.973  28.017  0.00  0.00    +0.015 C 
ATOM     58  C   UNL     1       5.667   4.777  26.965  0.00  0.00    +0.092 C 
BRANCH  57  61
ATOM     59  C   UNL     1       2.137   2.122  27.919  0.00  0.00    +0.162 A 
ATOM     60  C   UNL     1       3.312   2.737  27.473  0.00  0.00    +0.057 A 
ATOM     61  C   UNL     1       4.220   3.291  28.395  0.00  0.00    -0.021 A 
ATOM     62  C   UNL     1       3.917   3.220  29.766  0.00  0.00    +0.012 A 
ATOM     63  C   UNL     1       2.741   2.625  30.212  0.00  0.00    +0.050 A 
ATOM     64  C   UNL     1       1.860   2.086  29.287  0.00  0.00    +0.158 A 
BRANCH  64  65
ATOM     65  O   UNL     1       0.719   1.497  29.751  0.00  0.00    -0.503 OA
ATOM     66  H   UNL     1       0.004   1.842  29.184  0.00  0.00    +0.292 HD
ENDBRANCH  64  65
BRANCH  59  68
ATOM     67  C   UNL     1       0.808   2.302  25.963  0.00  0.00    +0.277 C 
ATOM     68  O   UNL     1       1.179   1.551  27.115  0.00  0.00    -0.491 OA
ENDBRANCH  59  68
ENDBRANCH  57  61
ENDBRANCH  55  58
ENDBRANCH  54  55
ENDBRANCH  53  54
ENDBRANCH  41  53
ENDBRANCH  40  43
ENDBRANCH   1  40
TORSDOF 23
ENDMDL
MODEL 7
REMARK VINA RESULT:      -6.7      2.262      6.243
REMARK  Name = 
REMARK  24 active torsions:
REMARK  status: ('A' for Active; 'I' for Inactive)
REMARK    1  A    between atoms: C_1  and  O_2
REMARK    2  A    between atoms: O_2  and  C_3
REMARK    3  A    between atoms: C_4  and  O_57
REMARK    4  A    between atoms: C_7  and  C_9
REMARK    5  A    between atoms: C_10  and  C_11
REMARK    6  A    between atoms: C_11  and  O_13
REMARK    7  A    between atoms: O_13  and  C_14
REMARK    8  A    between atoms: C_14  and  C_15
REMARK    9  A    between atoms: C_16  and  O_56
REMARK   10  A    between atoms: C_17  and  O_55
REMARK   11  A    between atoms: C_18  and  O_54
REMARK   12  A    between atoms: C_19  and  O_21
REMARK   13  A    between atoms: O_21  and  C_22
REMARK   14  A    between atoms: C_23  and  O_53
REMARK   15  A    between atoms: C_24  and  O_52
REMARK   16  A    between atoms: C_25  and  C_50
REMARK   17  A    between atoms: C_27  and  O_28
REMARK   18  A    between atoms: O_28  and  C_29
REMARK   19  A    between atoms: C_30  and  C_42
REMARK   20  A    between atoms: C_34  and  O_41
REMARK   21  A    between atoms: C_36  and  O_40
REMARK   22  A    between atoms: C_44  and  O_49
REMARK   23  A    between atoms: C_45  and  O_48
REMARK   24  A    between atoms: C_50  and  O_51
REMARK                            x       y       z     vdW  Elec       q    Type
REMARK                         _______ _______ _______ _____ _____    ______ ____
ROOT
ATOM      1  C   UNL     1       5.025   3.288  23.779  0.00  0.00    +0.221 C 
ATOM      2  C   UNL     1       4.524   3.510  25.265  0.00  0.00    +0.340 C 
ATOM      3  O   UNL     1       3.266   2.857  25.466  0.00  0.00    -0.331 OA
ATOM      4  C   UNL     1       2.172   3.247  24.636  0.00  0.00    +0.179 C 
ATOM      5  C   UNL     1       2.543   3.189  23.149  0.00  0.00    +0.177 C 
ATOM      6  C   UNL     1       3.894   3.878  22.889  0.00  0.00    +0.180 C 
ENDROOT
BRANCH   6   7
ATOM      7  O   UNL     1       4.187   3.778  21.492  0.00  0.00    -0.386 OA
ATOM      8  H   UNL     1       4.858   4.458  21.296  0.00  0.00    +0.210 HD
ENDBRANCH   6   7
BRANCH   5   9
ATOM      9  O   UNL     1       1.522   3.806  22.360  0.00  0.00    -0.386 OA
ATOM     10  H   UNL     1       1.942   4.008  21.489  0.00  0.00    +0.210 HD
ENDBRANCH   5   9
BRANCH   4  11
ATOM     11  C   UNL     1       1.595   4.606  25.051  0.00  0.00    +0.190 C 
BRANCH  11  12
ATOM     12  O   UNL     1       1.626   4.864  26.446  0.00  0.00    -0.392 OA
ATOM     13  H   UNL     1       2.357   5.504  26.583  0.00  0.00    +0.210 HD
ENDBRANCH  11  12
ENDBRANCH   4  11
BRANCH   2  14
ATOM     14  O   UNL     1       4.538   4.924  25.569  0.00  0.00    -0.453 OA
BRANCH  14  15
ATOM     15  C   UNL     1       5.714   5.673  25.563  0.00  0.00    +0.214 A 
ATOM     16  C   UNL     1       6.292   6.349  24.342  0.00  0.00    +0.238 A 
ATOM     17  O   UNL     1       5.586   6.833  23.471  0.00  0.00    -0.283 OA
ATOM     18  C   UNL     1       7.790   6.348  24.296  0.00  0.00    +0.109 A 
ATOM     19  C   UNL     1       8.446   6.328  25.529  0.00  0.00    +0.147 A 
ATOM     20  C   UNL     1       9.832   6.252  25.644  0.00  0.00    +0.092 A 
ATOM     21  C   UNL     1      10.586   6.183  24.486  0.00  0.00    +0.124 A 
ATOM     22  C   UNL     1       9.971   6.202  23.236  0.00  0.00    +0.091 A 
ATOM     23  O   UNL     1       7.747   6.326  26.704  0.00  0.00    -0.451 OA
ATOM     24  C   UNL     1       8.571   6.279  23.139  0.00  0.00    +0.135 A 
ATOM     25  C   UNL     1       6.537   5.676  26.638  0.00  0.00    +0.181 A 
BRANCH  25  26
ATOM     26  C   UNL     1       6.341   4.777  27.773  0.00  0.00    +0.025 A 
ATOM     27  C   UNL     1       7.104   3.597  27.798  0.00  0.00    +0.015 A 
ATOM     28  C   UNL     1       6.677   2.511  28.547  0.00  0.00    +0.050 A 
ATOM     29  C   UNL     1       5.557   2.667  29.338  0.00  0.00    +0.158 A 
ATOM     30  C   UNL     1       4.992   3.927  29.540  0.00  0.00    +0.159 A 
ATOM     31  C   UNL     1       5.365   4.998  28.742  0.00  0.00    +0.060 A 
BRANCH  30  32
ATOM     32  O   UNL     1       4.013   4.053  30.485  0.00  0.00    -0.503 OA
ATOM     33  H   UNL     1       4.191   3.388  31.174  0.00  0.00    +0.292 HD
ENDBRANCH  30  32
BRANCH  29  34
ATOM     34  O   UNL     1       4.962   1.558  29.863  0.00  0.00    -0.503 OA
ATOM     35  H   UNL     1       5.675   1.137  30.382  0.00  0.00    +0.292 HD
ENDBRANCH  29  34
ENDBRANCH  25  26
BRANCH  24  36
ATOM     36  O   UNL     1       7.993   6.225  21.905  0.00  0.00    -0.506 OA
ATOM     37  H   UNL     1       8.623   5.862  21.260  0.00  0.00    +0.292 HD
ENDBRANCH  24  36
BRANCH  21  38
ATOM     38  O   UNL     1      11.944   6.082  24.547  0.00  0.00    -0.507 OA
ATOM     39  H   UNL     1      12.227   6.091  25.470  0.00  0.00    +0.292 HD
ENDBRANCH  21  38
ENDBRANCH  14  15
ENDBRANCH   2  14
BRANCH   1  40
ATOM     40  O   UNL     1       5.245   1.906  23.344  0.00  0.00    -0.337 OA
BRANCH  40  43
ATOM     41  C   UNL     1       8.588   1.779  24.924  0.00  0.00    +0.190 C 
ATOM     42  O   UNL     1       7.151   1.747  24.724  0.00  0.00    -0.339 OA
ATOM     43  C   UNL     1       6.595   1.345  23.447  0.00  0.00    +0.282 C 
ATOM     44  C   UNL     1       7.421   1.900  22.278  0.00  0.00    +0.201 C 
ATOM     45  C   UNL     1       8.907   1.683  22.464  0.00  0.00    +0.179 C 
ATOM     46  C   UNL     1       9.355   2.386  23.738  0.00  0.00    +0.178 C 
BRANCH  46  47
ATOM     47  O   UNL     1      10.773   2.247  23.889  0.00  0.00    -0.386 OA
ATOM     48  H   UNL     1      10.915   1.572  24.585  0.00  0.00    +0.210 HD
ENDBRANCH  46  47
BRANCH  45  49
ATOM     49  O   UNL     1       9.634   2.226  21.354  0.00  0.00    -0.386 OA
ATOM     50  H   UNL     1       9.990   1.450  20.868  0.00  0.00    +0.210 HD
ENDBRANCH  45  49
BRANCH  44  51
ATOM     51  O   UNL     1       7.208   3.320  22.136  0.00  0.00    -0.384 OA
ATOM     52  H   UNL     1       6.591   3.443  21.384  0.00  0.00    +0.210 HD
ENDBRANCH  44  51
BRANCH  41  53
ATOM     53  C   UNL     1       9.261   0.447  25.332  0.00  0.00    +0.266 C 
BRANCH  53  54
ATOM     54  O   UNL     1       8.544  -0.707  24.872  0.00  0.00    -0.459 OA
BRANCH  54  55
ATOM     55  C   UNL     1       9.240  -1.528  24.051  0.00  0.00    +0.332 C 
ATOM     56  O   UNL     1      10.264  -1.257  23.468  0.00  0.00    -0.246 OA
BRANCH  55  58
ATOM     57  C   UNL     1       7.270  -2.923  24.300  0.00  0.00    +0.015 C 
ATOM     58  C   UNL     1       8.590  -2.848  24.094  0.00  0.00    +0.092 C 
BRANCH  57  61
ATOM     59  C   UNL     1       5.476  -6.105  25.401  0.00  0.00    +0.162 A 
ATOM     60  C   UNL     1       6.267  -4.952  25.467  0.00  0.00    +0.057 A 
ATOM     61  C   UNL     1       6.442  -4.142  24.329  0.00  0.00    -0.021 A 
ATOM     62  C   UNL     1       5.814  -4.520  23.130  0.00  0.00    +0.012 A 
ATOM     63  C   UNL     1       5.041  -5.676  23.055  0.00  0.00    +0.050 A 
ATOM     64  C   UNL     1       4.882  -6.459  24.188  0.00  0.00    +0.158 A 
BRANCH  64  65
ATOM     65  O   UNL     1       4.110  -7.581  24.092  0.00  0.00    -0.503 OA
ATOM     66  H   UNL     1       4.625  -8.284  24.529  0.00  0.00    +0.292 HD
ENDBRANCH  64  65
BRANCH  59  68
ATOM     67  C   UNL     1       4.554  -6.418  27.564  0.00  0.00    +0.277 C 
ATOM     68  O   UNL     1       5.236  -6.970  26.442  0.00  0.00    -0.491 OA
ENDBRANCH  59  68
ENDBRANCH  57  61
ENDBRANCH  55  58
ENDBRANCH  54  55
ENDBRANCH  53  54
ENDBRANCH  41  53
ENDBRANCH  40  43
ENDBRANCH   1  40
TORSDOF 23
ENDMDL
MODEL 8
REMARK VINA RESULT:      -6.7      2.412     10.281
REMARK  Name = 
REMARK  24 active torsions:
REMARK  status: ('A' for Active; 'I' for Inactive)
REMARK    1  A    between atoms: C_1  and  O_2
REMARK    2  A    between atoms: O_2  and  C_3
REMARK    3  A    between atoms: C_4  and  O_57
REMARK    4  A    between atoms: C_7  and  C_9
REMARK    5  A    between atoms: C_10  and  C_11
REMARK    6  A    between atoms: C_11  and  O_13
REMARK    7  A    between atoms: O_13  and  C_14
REMARK    8  A    between atoms: C_14  and  C_15
REMARK    9  A    between atoms: C_16  and  O_56
REMARK   10  A    between atoms: C_17  and  O_55
REMARK   11  A    between atoms: C_18  and  O_54
REMARK   12  A    between atoms: C_19  and  O_21
REMARK   13  A    between atoms: O_21  and  C_22
REMARK   14  A    between atoms: C_23  and  O_53
REMARK   15  A    between atoms: C_24  and  O_52
REMARK   16  A    between atoms: C_25  and  C_50
REMARK   17  A    between atoms: C_27  and  O_28
REMARK   18  A    between atoms: O_28  and  C_29
REMARK   19  A    between atoms: C_30  and  C_42
REMARK   20  A    between atoms: C_34  and  O_41
REMARK   21  A    between atoms: C_36  and  O_40
REMARK   22  A    between atoms: C_44  and  O_49
REMARK   23  A    between atoms: C_45  and  O_48
REMARK   24  A    between atoms: C_50  and  O_51
REMARK                            x       y       z     vdW  Elec       q    Type
REMARK                         _______ _______ _______ _____ _____    ______ ____
ROOT
ATOM      1  C   UNL     1       3.776  -1.783  27.819  0.00  0.00    +0.221 C 
ATOM      2  C   UNL     1       3.120  -1.783  26.378  0.00  0.00    +0.340 C 
ATOM      3  O   UNL     1       1.754  -2.208  26.455  0.00  0.00    -0.331 OA
ATOM      4  C   UNL     1       1.490  -3.504  26.991  0.00  0.00    +0.179 C 
ATOM      5  C   UNL     1       2.162  -3.699  28.356  0.00  0.00    +0.177 C 
ATOM      6  C   UNL     1       3.633  -3.249  28.318  0.00  0.00    +0.180 C 
ENDROOT
BRANCH   6   7
ATOM      7  O   UNL     1       4.195  -3.443  29.619  0.00  0.00    -0.386 OA
ATOM      8  H   UNL     1       3.449  -3.605  30.226  0.00  0.00    +0.210 HD
ENDBRANCH   6   7
BRANCH   5   9
ATOM      9  O   UNL     1       2.082  -5.070  28.756  0.00  0.00    -0.386 OA
ATOM     10  H   UNL     1       1.255  -5.146  29.290  0.00  0.00    +0.210 HD
ENDBRANCH   5   9
BRANCH   4  11
ATOM     11  C   UNL     1       1.837  -4.618  25.996  0.00  0.00    +0.190 C 
BRANCH  11  12
ATOM     12  O   UNL     1       1.681  -4.263  24.631  0.00  0.00    -0.392 OA
ATOM     13  H   UNL     1       1.410  -5.086  24.170  0.00  0.00    +0.210 HD
ENDBRANCH  11  12
ENDBRANCH   4  11
BRANCH   2  14
ATOM     14  O   UNL     1       3.950  -2.546  25.473  0.00  0.00    -0.453 OA
BRANCH  14  15
ATOM     15  C   UNL     1       5.297  -2.245  25.269  0.00  0.00    +0.214 A 
ATOM     16  C   UNL     1       5.814  -0.899  24.822  0.00  0.00    +0.238 A 
ATOM     17  O   UNL     1       5.289   0.148  25.168  0.00  0.00    -0.283 OA
ATOM     18  C   UNL     1       7.002  -0.973  23.910  0.00  0.00    +0.109 A 
ATOM     19  C   UNL     1       7.830  -2.086  24.065  0.00  0.00    +0.147 A 
ATOM     20  C   UNL     1       8.928  -2.330  23.243  0.00  0.00    +0.092 A 
ATOM     21  C   UNL     1       9.199  -1.434  22.224  0.00  0.00    +0.124 A 
ATOM     22  C   UNL     1       8.397  -0.310  22.036  0.00  0.00    +0.091 A 
ATOM     23  O   UNL     1       7.570  -3.038  25.012  0.00  0.00    -0.451 OA
ATOM     24  C   UNL     1       7.294  -0.081  22.875  0.00  0.00    +0.135 A 
ATOM     25  C   UNL     1       6.231  -3.224  25.269  0.00  0.00    +0.181 A 
BRANCH  25  26
ATOM     26  C   UNL     1       5.876  -4.642  25.304  0.00  0.00    +0.025 A 
ATOM     27  C   UNL     1       5.487  -5.236  24.091  0.00  0.00    +0.015 A 
ATOM     28  C   UNL     1       4.722  -6.392  24.100  0.00  0.00    +0.050 A 
ATOM     29  C   UNL     1       4.456  -6.986  25.316  0.00  0.00    +0.158 A 
ATOM     30  C   UNL     1       5.101  -6.560  26.478  0.00  0.00    +0.159 A 
ATOM     31  C   UNL     1       5.806  -5.367  26.491  0.00  0.00    +0.060 A 
BRANCH  30  32
ATOM     32  O   UNL     1       4.952  -7.308  27.612  0.00  0.00    -0.503 OA
ATOM     33  H   UNL     1       4.669  -6.703  28.321  0.00  0.00    +0.292 HD
ENDBRANCH  30  32
BRANCH  29  34
ATOM     34  O   UNL     1       3.494  -7.950  25.382  0.00  0.00    -0.503 OA
ATOM     35  H   UNL     1       3.723  -8.451  26.188  0.00  0.00    +0.292 HD
ENDBRANCH  29  34
ENDBRANCH  25  26
BRANCH  24  36
ATOM     36  O   UNL     1       6.487   0.990  22.624  0.00  0.00    -0.506 OA
ATOM     37  H   UNL     1       7.022   1.745  22.325  0.00  0.00    +0.292 HD
ENDBRANCH  24  36
BRANCH  21  38
ATOM     38  O   UNL     1      10.246  -1.642  21.378  0.00  0.00    -0.507 OA
ATOM     39  H   UNL     1      10.140  -2.493  20.934  0.00  0.00    +0.292 HD
ENDBRANCH  21  38
ENDBRANCH  14  15
ENDBRANCH   2  14
BRANCH   1  40
ATOM     40  O   UNL     1       3.169  -0.916  28.833  0.00  0.00    -0.337 OA
BRANCH  40  43
ATOM     41  C   UNL     1       4.019   2.470  30.059  0.00  0.00    +0.190 C 
ATOM     42  O   UNL     1       4.119   1.076  29.664  0.00  0.00    -0.339 OA
ATOM     43  C   UNL     1       3.238   0.536  28.647  0.00  0.00    +0.282 C 
ATOM     44  C   UNL     1       1.814   1.092  28.787  0.00  0.00    +0.201 C 
ATOM     45  C   UNL     1       1.794   2.594  28.965  0.00  0.00    +0.179 C 
ATOM     46  C   UNL     1       2.570   2.954  30.225  0.00  0.00    +0.178 C 
BRANCH  46  47
ATOM     47  O   UNL     1       2.499   4.369  30.444  0.00  0.00    -0.386 OA
ATOM     48  H   UNL     1       1.621   4.546  30.842  0.00  0.00    +0.210 HD
ENDBRANCH  46  47
BRANCH  45  49
ATOM     49  O   UNL     1       0.446   3.064  29.101  0.00  0.00    -0.386 OA
ATOM     50  H   UNL     1       0.345   3.300  30.049  0.00  0.00    +0.210 HD
ENDBRANCH  45  49
BRANCH  44  51
ATOM     51  O   UNL     1       1.154   0.514  29.932  0.00  0.00    -0.384 OA
ATOM     52  H   UNL     1       1.196   1.178  30.652  0.00  0.00    +0.210 HD
ENDBRANCH  44  51
BRANCH  41  53
ATOM     53  C   UNL     1       4.797   3.492  29.196  0.00  0.00    +0.266 C 
BRANCH  53  54
ATOM     54  O   UNL     1       4.890   3.105  27.818  0.00  0.00    -0.459 OA
BRANCH  54  55
ATOM     55  C   UNL     1       4.525   4.057  26.927  0.00  0.00    +0.332 C 
ATOM     56  O   UNL     1       3.501   4.698  26.945  0.00  0.00    -0.246 OA
BRANCH  55  58
ATOM     57  C   UNL     1       6.759   3.511  26.152  0.00  0.00    +0.015 C 
ATOM     58  C   UNL     1       5.656   4.253  26.005  0.00  0.00    +0.092 C 
BRANCH  57  61
ATOM     59  C   UNL     1       9.846   2.498  24.152  0.00  0.00    +0.162 A 
ATOM     60  C   UNL     1       8.700   2.385  24.949  0.00  0.00    +0.057 A 
ATOM     61  C   UNL     1       7.964   3.531  25.304  0.00  0.00    -0.021 A 
ATOM     62  C   UNL     1       8.409   4.785  24.850  0.00  0.00    +0.012 A 
ATOM     63  C   UNL     1       9.557   4.904  24.073  0.00  0.00    +0.050 A 
ATOM     64  C   UNL     1      10.268   3.763  23.735  0.00  0.00    +0.158 A 
BRANCH  64  65
ATOM     65  O   UNL     1      11.384   3.904  22.962  0.00  0.00    -0.503 OA
ATOM     66  H   UNL     1      11.363   3.151  22.342  0.00  0.00    +0.292 HD
ENDBRANCH  64  65
BRANCH  59  68
ATOM     67  C   UNL     1      11.023   0.531  24.762  0.00  0.00    +0.277 C 
ATOM     68  O   UNL     1      10.643   1.455  23.746  0.00  0.00    -0.491 OA
ENDBRANCH  59  68
ENDBRANCH  57  61
ENDBRANCH  55  58
ENDBRANCH  54  55
ENDBRANCH  53  54
ENDBRANCH  41  53
ENDBRANCH  40  43
ENDBRANCH   1  40
TORSDOF 23
ENDMDL
MODEL 9
REMARK VINA RESULT:      -6.7      2.655      8.726
REMARK  Name = 
REMARK  24 active torsions:
REMARK  status: ('A' for Active; 'I' for Inactive)
REMARK    1  A    between atoms: C_1  and  O_2
REMARK    2  A    between atoms: O_2  and  C_3
REMARK    3  A    between atoms: C_4  and  O_57
REMARK    4  A    between atoms: C_7  and  C_9
REMARK    5  A    between atoms: C_10  and  C_11
REMARK    6  A    between atoms: C_11  and  O_13
REMARK    7  A    between atoms: O_13  and  C_14
REMARK    8  A    between atoms: C_14  and  C_15
REMARK    9  A    between atoms: C_16  and  O_56
REMARK   10  A    between atoms: C_17  and  O_55
REMARK   11  A    between atoms: C_18  and  O_54
REMARK   12  A    between atoms: C_19  and  O_21
REMARK   13  A    between atoms: O_21  and  C_22
REMARK   14  A    between atoms: C_23  and  O_53
REMARK   15  A    between atoms: C_24  and  O_52
REMARK   16  A    between atoms: C_25  and  C_50
REMARK   17  A    between atoms: C_27  and  O_28
REMARK   18  A    between atoms: O_28  and  C_29
REMARK   19  A    between atoms: C_30  and  C_42
REMARK   20  A    between atoms: C_34  and  O_41
REMARK   21  A    between atoms: C_36  and  O_40
REMARK   22  A    between atoms: C_44  and  O_49
REMARK   23  A    between atoms: C_45  and  O_48
REMARK   24  A    between atoms: C_50  and  O_51
REMARK                            x       y       z     vdW  Elec       q    Type
REMARK                         _______ _______ _______ _____ _____    ______ ____
ROOT
ATOM      1  C   UNL     1       6.801  -2.208  23.760  0.00  0.00    +0.221 C 
ATOM      2  C   UNL     1       6.851  -2.039  25.335  0.00  0.00    +0.340 C 
ATOM      3  O   UNL     1       8.125  -2.459  25.837  0.00  0.00    -0.331 OA
ATOM      4  C   UNL     1       8.528  -3.806  25.588  0.00  0.00    +0.179 C 
ATOM      5  C   UNL     1       8.427  -4.158  24.098  0.00  0.00    +0.177 C 
ATOM      6  C   UNL     1       7.072  -3.719  23.516  0.00  0.00    +0.180 C 
ENDROOT
BRANCH   6   7
ATOM      7  O   UNL     1       7.047  -4.063  22.128  0.00  0.00    -0.386 OA
ATOM      8  H   UNL     1       6.845  -5.016  22.078  0.00  0.00    +0.210 HD
ENDBRANCH   6   7
BRANCH   5   9
ATOM      9  O   UNL     1       8.604  -5.565  23.910  0.00  0.00    -0.386 OA
ATOM     10  H   UNL     1       8.305  -5.752  22.987  0.00  0.00    +0.210 HD
ENDBRANCH   5   9
BRANCH   4  11
ATOM     11  C   UNL     1       7.784  -4.802  26.485  0.00  0.00    +0.190 C 
BRANCH  11  12
ATOM     12  O   UNL     1       8.486  -6.008  26.741  0.00  0.00    -0.392 OA
ATOM     13  H   UNL     1       8.682  -6.004  27.703  0.00  0.00    +0.210 HD
ENDBRANCH  11  12
ENDBRANCH   4  11
BRANCH   2  14
ATOM     14  O   UNL     1       5.710  -2.701  25.924  0.00  0.00    -0.453 OA
BRANCH  14  15
ATOM     15  C   UNL     1       4.545  -2.012  26.264  0.00  0.00    +0.214 A 
ATOM     16  C   UNL     1       4.386  -0.513  26.189  0.00  0.00    +0.238 A 
ATOM     17  O   UNL     1       4.926   0.157  25.323  0.00  0.00    -0.283 OA
ATOM     18  C   UNL     1       3.531   0.065  27.277  0.00  0.00    +0.109 A 
ATOM     19  C   UNL     1       2.544  -0.774  27.797  0.00  0.00    +0.147 A 
ATOM     20  C   UNL     1       1.722  -0.403  28.860  0.00  0.00    +0.092 A 
ATOM     21  C   UNL     1       1.903   0.847  29.426  0.00  0.00    +0.124 A 
ATOM     22  C   UNL     1       2.877   1.714  28.935  0.00  0.00    +0.091 A 
ATOM     23  O   UNL     1       2.367  -2.043  27.320  0.00  0.00    -0.451 OA
ATOM     24  C   UNL     1       3.696   1.323  27.863  0.00  0.00    +0.135 A 
ATOM     25  C   UNL     1       3.524  -2.647  26.885  0.00  0.00    +0.181 A 
BRANCH  25  26
ATOM     26  C   UNL     1       3.645  -4.014  27.388  0.00  0.00    +0.025 A 
ATOM     27  C   UNL     1       4.221  -4.183  28.658  0.00  0.00    +0.015 A 
ATOM     28  C   UNL     1       4.781  -5.402  29.009  0.00  0.00    +0.050 A 
ATOM     29  C   UNL     1       4.654  -6.453  28.125  0.00  0.00    +0.158 A 
ATOM     30  C   UNL     1       3.819  -6.357  27.011  0.00  0.00    +0.159 A 
ATOM     31  C   UNL     1       3.318  -5.126  26.616  0.00  0.00    +0.060 A 
BRANCH  30  32
ATOM     32  O   UNL     1       3.577  -7.488  26.284  0.00  0.00    -0.503 OA
ATOM     33  H   UNL     1       3.287  -7.205  25.398  0.00  0.00    +0.292 HD
ENDBRANCH  30  32
BRANCH  29  34
ATOM     34  O   UNL     1       5.417  -7.568  28.313  0.00  0.00    -0.503 OA
ATOM     35  H   UNL     1       5.465  -7.654  29.285  0.00  0.00    +0.292 HD
ENDBRANCH  29  34
ENDBRANCH  25  26
BRANCH  24  36
ATOM     36  O   UNL     1       4.687   2.165  27.450  0.00  0.00    -0.506 OA
ATOM     37  H   UNL     1       4.358   2.734  26.732  0.00  0.00    +0.292 HD
ENDBRANCH  24  36
BRANCH  21  38
ATOM     38  O   UNL     1       1.142   1.245  30.483  0.00  0.00    -0.507 OA
ATOM     39  H   UNL     1       1.298   2.182  30.660  0.00  0.00    +0.292 HD
ENDBRANCH  21  38
ENDBRANCH  14  15
ENDBRANCH   2  14
BRANCH   1  40
ATOM     40  O   UNL     1       7.783  -1.456  22.973  0.00  0.00    -0.337 OA
BRANCH  40  43
ATOM     41  C   UNL     1       8.659   2.059  22.219  0.00  0.00    +0.190 C 
ATOM     42  O   UNL     1       7.954   0.791  22.278  0.00  0.00    -0.339 OA
ATOM     43  C   UNL     1       8.140  -0.102  23.405  0.00  0.00    +0.282 C 
ATOM     44  C   UNL     1       9.606  -0.128  23.861  0.00  0.00    +0.201 C 
ATOM     45  C   UNL     1      10.196   1.258  23.996  0.00  0.00    +0.179 C 
ATOM     46  C   UNL     1      10.132   1.957  22.645  0.00  0.00    +0.178 C 
BRANCH  46  47
ATOM     47  O   UNL     1      10.752   3.246  22.743  0.00  0.00    -0.386 OA
ATOM     48  H   UNL     1      11.164   3.424  21.871  0.00  0.00    +0.210 HD
ENDBRANCH  46  47
BRANCH  45  49
ATOM     49  O   UNL     1      11.565   1.180  24.414  0.00  0.00    -0.386 OA
ATOM     50  H   UNL     1      11.547   1.262  25.393  0.00  0.00    +0.210 HD
ENDBRANCH  45  49
BRANCH  44  51
ATOM     51  O   UNL     1      10.418  -0.851  22.914  0.00  0.00    -0.384 OA
ATOM     52  H   UNL     1      10.120  -1.785  22.934  0.00  0.00    +0.210 HD
ENDBRANCH  44  51
BRANCH  41  53
ATOM     53  C   UNL     1       8.002   3.252  22.953  0.00  0.00    +0.266 C 
BRANCH  53  54
ATOM     54  O   UNL     1       8.192   4.500  22.274  0.00  0.00    -0.459 OA
BRANCH  54  55
ATOM     55  C   UNL     1       7.119   5.326  22.274  0.00  0.00    +0.332 C 
ATOM     56  O   UNL     1       7.062   6.424  21.771  0.00  0.00    -0.246 OA
BRANCH  55  58
ATOM     57  C   UNL     1       5.202   5.226  23.758  0.00  0.00    +0.015 C 
ATOM     58  C   UNL     1       6.000   4.595  22.890  0.00  0.00    +0.092 C 
BRANCH  57  61
ATOM     59  C   UNL     1       2.006   3.303  24.558  0.00  0.00    +0.162 A 
ATOM     60  C   UNL     1       3.123   3.759  23.848  0.00  0.00    +0.057 A 
ATOM     61  C   UNL     1       4.013   4.677  24.436  0.00  0.00    -0.021 A 
ATOM     62  C   UNL     1       3.753   5.129  25.741  0.00  0.00    +0.012 A 
ATOM     63  C   UNL     1       2.634   4.691  26.444  0.00  0.00    +0.050 A 
ATOM     64  C   UNL     1       1.769   3.786  25.847  0.00  0.00    +0.158 A 
BRANCH  64  65
ATOM     65  O   UNL     1       0.686   3.363  26.561  0.00  0.00    -0.503 OA
ATOM     66  H   UNL     1       1.053   2.844  27.300  0.00  0.00    +0.292 HD
ENDBRANCH  64  65
BRANCH  59  68
ATOM     67  C   UNL     1       0.563   2.675  22.784  0.00  0.00    +0.277 C 
ATOM     68  O   UNL     1       1.070   2.412  24.089  0.00  0.00    -0.491 OA
ENDBRANCH  59  68
ENDBRANCH  57  61
ENDBRANCH  55  58
ENDBRANCH  54  55
ENDBRANCH  53  54
ENDBRANCH  41  53
ENDBRANCH  40  43
ENDBRANCH   1  40
TORSDOF 23
ENDMDL
