MODEL 1
REMARK VINA RESULT:      -7.2      0.000      0.000
REMARK  Name = 
REMARK  18 active torsions:
REMARK  status: ('A' for Active; 'I' for Inactive)
REMARK    1  A    between atoms: C_3  and  O_49
REMARK    2  A    between atoms: C_4  and  O_48
REMARK    3  A    between atoms: C_6  and  C_7
REMARK    4  A    between atoms: C_8  and  O_20
REMARK    5  A    between atoms: C_12  and  O_19
REMARK    6  A    between atoms: C_14  and  O_18
REMARK    7  A    between atoms: O_20  and  C_21
REMARK    8  A    between atoms: C_23  and  O_47
REMARK    9  A    between atoms: C_24  and  O_46
REMARK   10  A    between atoms: C_25  and  O_45
REMARK   11  A    between atoms: C_27  and  C_29
REMARK   12  A    between atoms: C_29  and  O_30
REMARK   13  A    between atoms: O_30  and  C_31
REMARK   14  A    between atoms: C_33  and  O_44
REMARK   15  A    between atoms: C_34  and  O_43
REMARK   16  A    between atoms: C_36  and  O_42
REMARK   17  A    between atoms: C_38  and  C_40
REMARK   18  A    between atoms: C_40  and  O_41
REMARK                            x       y       z     vdW  Elec       q    Type
REMARK                         _______ _______ _______ _____ _____    ______ ____
ROOT
ATOM      1  C   UNL     1       6.706  -0.284  26.900  0.00  0.00    +0.340 C 
ATOM      2  O   UNL     1       7.097  -1.656  26.755  0.00  0.00    -0.331 OA
ATOM      3  C   UNL     1       6.155  -2.602  26.224  0.00  0.00    +0.179 C 
ATOM      4  C   UNL     1       4.654  -2.210  26.144  0.00  0.00    +0.177 C 
ATOM      5  C   UNL     1       4.350  -0.729  26.410  0.00  0.00    +0.180 C 
ATOM      6  C   UNL     1       5.299  -0.266  27.519  0.00  0.00    +0.214 C 
ENDROOT
BRANCH   6   7
ATOM      7  O   UNL     1       4.970   0.975  28.131  0.00  0.00    -0.383 OA
ATOM      8  H   UNL     1       5.361   1.703  27.619  0.00  0.00    +0.210 HD
ENDBRANCH   6   7
BRANCH   5   9
ATOM      9  O   UNL     1       2.979  -0.588  26.802  0.00  0.00    -0.386 OA
ATOM     10  H   UNL     1       2.440  -0.617  25.991  0.00  0.00    +0.210 HD
ENDBRANCH   5   9
BRANCH   4  11
ATOM     11  O   UNL     1       4.071  -2.617  24.893  0.00  0.00    -0.386 OA
ATOM     12  H   UNL     1       3.758  -3.534  24.981  0.00  0.00    +0.210 HD
ENDBRANCH   4  11
BRANCH   3  13
ATOM     13  C   UNL     1       6.256  -3.869  27.116  0.00  0.00    +0.197 C 
BRANCH  13  14
ATOM     14  O   UNL     1       5.158  -4.744  26.833  0.00  0.00    -0.346 OA
BRANCH  14  15
ATOM     15  C   UNL     1       5.588  -6.013  26.306  0.00  0.00    +0.282 C 
ATOM     16  O   UNL     1       5.684  -5.966  24.886  0.00  0.00    -0.341 OA
ATOM     17  C   UNL     1       4.432  -5.644  24.248  0.00  0.00    +0.178 C 
ATOM     18  C   UNL     1       3.344  -6.682  24.588  0.00  0.00    +0.177 C 
ATOM     19  C   UNL     1       3.206  -6.822  26.113  0.00  0.00    +0.179 C 
ATOM     20  C   UNL     1       4.580  -7.100  26.747  0.00  0.00    +0.201 C 
BRANCH  20  21
ATOM     21  O   UNL     1       4.455  -7.162  28.174  0.00  0.00    -0.384 OA
ATOM     22  H   UNL     1       3.500  -7.200  28.373  0.00  0.00    +0.210 HD
ENDBRANCH  20  21
BRANCH  19  23
ATOM     23  O   UNL     1       2.604  -5.643  26.674  0.00  0.00    -0.386 OA
ATOM     24  H   UNL     1       2.807  -4.888  26.080  0.00  0.00    +0.210 HD
ENDBRANCH  19  23
BRANCH  18  25
ATOM     25  O   UNL     1       3.678  -7.949  24.013  0.00  0.00    -0.386 OA
ATOM     26  H   UNL     1       4.277  -8.414  24.624  0.00  0.00    +0.210 HD
ENDBRANCH  18  25
BRANCH  17  27
ATOM     27  C   UNL     1       4.681  -5.523  22.738  0.00  0.00    +0.190 C 
BRANCH  27  28
ATOM     28  O   UNL     1       5.641  -6.481  22.276  0.00  0.00    -0.392 OA
ATOM     29  H   UNL     1       5.201  -7.098  21.669  0.00  0.00    +0.210 HD
ENDBRANCH  27  28
ENDBRANCH  17  27
ENDBRANCH  14  15
ENDBRANCH  13  14
ENDBRANCH   3  13
BRANCH   1  30
ATOM     30  O   UNL     1       6.766   0.387  25.617  0.00  0.00    -0.453 OA
BRANCH  30  41
ATOM     31  C   UNL     1       8.793   0.444  24.291  0.00  0.00    +0.181 A 
ATOM     32  O   UNL     1       9.784   1.110  23.584  0.00  0.00    -0.451 OA
ATOM     33  C   UNL     1       9.901   2.473  23.740  0.00  0.00    +0.147 A 
ATOM     34  C   UNL     1       9.139   3.189  24.649  0.00  0.00    +0.109 A 
ATOM     35  C   UNL     1       9.364   4.584  24.780  0.00  0.00    +0.135 A 
ATOM     36  C   UNL     1      10.341   5.235  24.020  0.00  0.00    +0.091 A 
ATOM     37  C   UNL     1      11.075   4.508  23.097  0.00  0.00    +0.124 A 
ATOM     38  C   UNL     1       8.116   2.463  25.429  0.00  0.00    +0.238 A 
ATOM     39  O   UNL     1       7.435   3.065  26.257  0.00  0.00    -0.283 OA
ATOM     40  C   UNL     1      10.856   3.130  22.949  0.00  0.00    +0.092 A 
ATOM     41  C   UNL     1       7.945   0.999  25.187  0.00  0.00    +0.214 A 
BRANCH  31  43
ATOM     42  C   UNL     1       7.669  -1.380  22.972  0.00  0.00    +0.015 A 
ATOM     43  C   UNL     1       8.673  -0.990  23.876  0.00  0.00    +0.025 A 
ATOM     44  C   UNL     1       9.530  -1.958  24.401  0.00  0.00    +0.060 A 
ATOM     45  C   UNL     1       9.304  -3.297  24.134  0.00  0.00    +0.159 A 
ATOM     46  C   UNL     1       8.256  -3.689  23.310  0.00  0.00    +0.158 A 
ATOM     47  C   UNL     1       7.461  -2.734  22.689  0.00  0.00    +0.050 A 
BRANCH  46  48
ATOM     48  O   UNL     1       8.046  -5.029  23.149  0.00  0.00    -0.503 OA
ATOM     49  H   UNL     1       8.695  -5.507  23.693  0.00  0.00    +0.292 HD
ENDBRANCH  46  48
BRANCH  45  50
ATOM     50  O   UNL     1      10.109  -4.232  24.715  0.00  0.00    -0.503 OA
ATOM     51  H   UNL     1      10.962  -3.777  24.858  0.00  0.00    +0.292 HD
ENDBRANCH  45  50
ENDBRANCH  31  43
BRANCH  37  52
ATOM     52  O   UNL     1      12.031   5.083  22.317  0.00  0.00    -0.507 OA
ATOM     53  H   UNL     1      12.594   5.651  22.872  0.00  0.00    +0.292 HD
ENDBRANCH  37  52
BRANCH  35  54
ATOM     54  O   UNL     1       8.662   5.386  25.638  0.00  0.00    -0.506 OA
ATOM     55  H   UNL     1       8.481   4.880  26.458  0.00  0.00    +0.292 HD
ENDBRANCH  35  54
ENDBRANCH  30  41
ENDBRANCH   1  30
TORSDOF 18
ENDMDL
MODEL 2
REMARK VINA RESULT:      -7.1      2.304      8.597
REMARK  Name = 
REMARK  18 active torsions:
REMARK  status: ('A' for Active; 'I' for Inactive)
REMARK    1  A    between atoms: C_3  and  O_49
REMARK    2  A    between atoms: C_4  and  O_48
REMARK    3  A    between atoms: C_6  and  C_7
REMARK    4  A    between atoms: C_8  and  O_20
REMARK    5  A    between atoms: C_12  and  O_19
REMARK    6  A    between atoms: C_14  and  O_18
REMARK    7  A    between atoms: O_20  and  C_21
REMARK    8  A    between atoms: C_23  and  O_47
REMARK    9  A    between atoms: C_24  and  O_46
REMARK   10  A    between atoms: C_25  and  O_45
REMARK   11  A    between atoms: C_27  and  C_29
REMARK   12  A    between atoms: C_29  and  O_30
REMARK   13  A    between atoms: O_30  and  C_31
REMARK   14  A    between atoms: C_33  and  O_44
REMARK   15  A    between atoms: C_34  and  O_43
REMARK   16  A    between atoms: C_36  and  O_42
REMARK   17  A    between atoms: C_38  and  C_40
REMARK   18  A    between atoms: C_40  and  O_41
REMARK                            x       y       z     vdW  Elec       q    Type
REMARK                         _______ _______ _______ _____ _____    ______ ____
ROOT
ATOM      1  C   UNL     1       5.638   1.042  25.597  0.00  0.00    +0.340 C 
ATOM      2  O   UNL     1       6.601   2.104  25.580  0.00  0.00    -0.331 OA
ATOM      3  C   UNL     1       7.229   2.501  26.810  0.00  0.00    +0.179 C 
ATOM      4  C   UNL     1       6.620   2.026  28.158  0.00  0.00    +0.177 C 
ATOM      5  C   UNL     1       5.531   0.951  28.040  0.00  0.00    +0.180 C 
ATOM      6  C   UNL     1       4.705   1.280  26.795  0.00  0.00    +0.214 C 
ENDROOT
BRANCH   6   7
ATOM      7  O   UNL     1       3.462   0.596  26.683  0.00  0.00    -0.383 OA
ATOM      8  H   UNL     1       2.932   1.000  25.976  0.00  0.00    +0.210 HD
ENDBRANCH   6   7
BRANCH   5   9
ATOM      9  O   UNL     1       4.723   0.961  29.223  0.00  0.00    -0.386 OA
ATOM     10  H   UNL     1       4.447   1.883  29.380  0.00  0.00    +0.210 HD
ENDBRANCH   5   9
BRANCH   4  11
ATOM     11  O   UNL     1       7.644   1.595  29.074  0.00  0.00    -0.386 OA
ATOM     12  H   UNL     1       8.449   1.397  28.566  0.00  0.00    +0.210 HD
ENDBRANCH   4  11
BRANCH   3  13
ATOM     13  C   UNL     1       7.228   4.053  26.822  0.00  0.00    +0.197 C 
BRANCH  13  14
ATOM     14  O   UNL     1       7.735   4.544  25.576  0.00  0.00    -0.346 OA
BRANCH  14  15
ATOM     15  C   UNL     1       6.916   5.591  25.023  0.00  0.00    +0.282 C 
ATOM     16  O   UNL     1       5.896   5.050  24.189  0.00  0.00    -0.341 OA
ATOM     17  C   UNL     1       6.418   4.291  23.082  0.00  0.00    +0.178 C 
ATOM     18  C   UNL     1       7.319   5.159  22.180  0.00  0.00    +0.177 C 
ATOM     19  C   UNL     1       8.429   5.815  23.018  0.00  0.00    +0.179 C 
ATOM     20  C   UNL     1       7.820   6.555  24.220  0.00  0.00    +0.201 C 
BRANCH  20  21
ATOM     21  O   UNL     1       8.864   7.108  25.034  0.00  0.00    -0.384 OA
ATOM     22  H   UNL     1       8.988   6.498  25.786  0.00  0.00    +0.210 HD
ENDBRANCH  20  21
BRANCH  19  23
ATOM     23  O   UNL     1       9.386   4.830  23.444  0.00  0.00    -0.386 OA
ATOM     24  H   UNL     1       9.017   4.369  24.228  0.00  0.00    +0.210 HD
ENDBRANCH  19  23
BRANCH  18  25
ATOM     25  O   UNL     1       6.538   6.169  21.534  0.00  0.00    -0.386 OA
ATOM     26  H   UNL     1       6.995   6.432  20.714  0.00  0.00    +0.210 HD
ENDBRANCH  18  25
BRANCH  17  27
ATOM     27  C   UNL     1       5.235   3.678  22.319  0.00  0.00    +0.190 C 
BRANCH  27  28
ATOM     28  O   UNL     1       4.200   4.639  22.077  0.00  0.00    -0.392 OA
ATOM     29  H   UNL     1       3.372   4.312  22.465  0.00  0.00    +0.210 HD
ENDBRANCH  27  28
ENDBRANCH  17  27
ENDBRANCH  14  15
ENDBRANCH  13  14
ENDBRANCH   3  13
BRANCH   1  30
ATOM     30  O   UNL     1       6.315  -0.240  25.656  0.00  0.00    -0.453 OA
BRANCH  30  41
ATOM     31  C   UNL     1       7.239  -1.309  23.689  0.00  0.00    +0.181 A 
ATOM     32  O   UNL     1       7.375  -2.382  22.819  0.00  0.00    -0.451 OA
ATOM     33  C   UNL     1       6.461  -3.410  22.894  0.00  0.00    +0.147 A 
ATOM     34  C   UNL     1       5.356  -3.368  23.729  0.00  0.00    +0.109 A 
ATOM     35  C   UNL     1       4.438  -4.449  23.702  0.00  0.00    +0.135 A 
ATOM     36  C   UNL     1       4.627  -5.539  22.845  0.00  0.00    +0.091 A 
ATOM     37  C   UNL     1       5.750  -5.576  22.037  0.00  0.00    +0.124 A 
ATOM     38  C   UNL     1       5.198  -2.200  24.620  0.00  0.00    +0.238 A 
ATOM     39  O   UNL     1       4.219  -2.123  25.360  0.00  0.00    -0.283 OA
ATOM     40  C   UNL     1       6.673  -4.519  22.061  0.00  0.00    +0.092 A 
ATOM     41  C   UNL     1       6.243  -1.134  24.586  0.00  0.00    +0.214 A 
BRANCH  31  43
ATOM     42  C   UNL     1       9.386  -0.387  24.621  0.00  0.00    +0.015 A 
ATOM     43  C   UNL     1       8.406  -0.374  23.614  0.00  0.00    +0.025 A 
ATOM     44  C   UNL     1       8.519   0.541  22.565  0.00  0.00    +0.060 A 
ATOM     45  C   UNL     1       9.511   1.505  22.595  0.00  0.00    +0.159 A 
ATOM     46  C   UNL     1      10.429   1.547  23.638  0.00  0.00    +0.158 A 
ATOM     47  C   UNL     1      10.401   0.577  24.632  0.00  0.00    +0.050 A 
BRANCH  46  48
ATOM     48  O   UNL     1      11.335   2.569  23.642  0.00  0.00    -0.503 OA
ATOM     49  H   UNL     1      11.121   3.162  24.382  0.00  0.00    +0.292 HD
ENDBRANCH  46  48
BRANCH  45  50
ATOM     50  O   UNL     1       9.561   2.434  21.598  0.00  0.00    -0.503 OA
ATOM     51  H   UNL     1      10.488   2.423  21.289  0.00  0.00    +0.292 HD
ENDBRANCH  45  50
ENDBRANCH  31  43
BRANCH  37  52
ATOM     52  O   UNL     1       6.000  -6.613  21.191  0.00  0.00    -0.507 OA
ATOM     53  H   UNL     1       5.167  -7.082  21.009  0.00  0.00    +0.292 HD
ENDBRANCH  37  52
BRANCH  35  54
ATOM     54  O   UNL     1       3.322  -4.513  24.491  0.00  0.00    -0.506 OA
ATOM     55  H   UNL     1       3.502  -5.127  25.235  0.00  0.00    +0.292 HD
ENDBRANCH  35  54
ENDBRANCH  30  41
ENDBRANCH   1  30
TORSDOF 18
ENDMDL
MODEL 3
REMARK VINA RESULT:      -6.8      2.324      8.735
REMARK  Name = 
REMARK  18 active torsions:
REMARK  status: ('A' for Active; 'I' for Inactive)
REMARK    1  A    between atoms: C_3  and  O_49
REMARK    2  A    between atoms: C_4  and  O_48
REMARK    3  A    between atoms: C_6  and  C_7
REMARK    4  A    between atoms: C_8  and  O_20
REMARK    5  A    between atoms: C_12  and  O_19
REMARK    6  A    between atoms: C_14  and  O_18
REMARK    7  A    between atoms: O_20  and  C_21
REMARK    8  A    between atoms: C_23  and  O_47
REMARK    9  A    between atoms: C_24  and  O_46
REMARK   10  A    between atoms: C_25  and  O_45
REMARK   11  A    between atoms: C_27  and  C_29
REMARK   12  A    between atoms: C_29  and  O_30
REMARK   13  A    between atoms: O_30  and  C_31
REMARK   14  A    between atoms: C_33  and  O_44
REMARK   15  A    between atoms: C_34  and  O_43
REMARK   16  A    between atoms: C_36  and  O_42
REMARK   17  A    between atoms: C_38  and  C_40
REMARK   18  A    between atoms: C_40  and  O_41
REMARK                            x       y       z     vdW  Elec       q    Type
REMARK                         _______ _______ _______ _____ _____    ______ ____
ROOT
ATOM      1  C   UNL     1       4.970   0.722  25.860  0.00  0.00    +0.340 C 
ATOM      2  O   UNL     1       5.308   2.075  25.523  0.00  0.00    -0.331 OA
ATOM      3  C   UNL     1       6.097   2.850  26.440  0.00  0.00    +0.179 C 
ATOM      4  C   UNL     1       6.275   2.345  27.899  0.00  0.00    +0.177 C 
ATOM      5  C   UNL     1       5.790   0.913  28.158  0.00  0.00    +0.180 C 
ATOM      6  C   UNL     1       4.519   0.709  27.329  0.00  0.00    +0.214 C 
ENDROOT
BRANCH   6   7
ATOM      7  O   UNL     1       3.741  -0.433  27.668  0.00  0.00    -0.383 OA
ATOM      8  H   UNL     1       2.810  -0.172  27.771  0.00  0.00    +0.210 HD
ENDBRANCH   6   7
BRANCH   5   9
ATOM      9  O   UNL     1       5.535   0.743  29.557  0.00  0.00    -0.386 OA
ATOM     10  H   UNL     1       6.318   0.312  29.947  0.00  0.00    +0.210 HD
ENDBRANCH   5   9
BRANCH   4  11
ATOM     11  O   UNL     1       7.635   2.496  28.344  0.00  0.00    -0.386 OA
ATOM     12  H   UNL     1       7.879   1.710  28.863  0.00  0.00    +0.210 HD
ENDBRANCH   4  11
BRANCH   3  13
ATOM     13  C   UNL     1       5.434   4.252  26.512  0.00  0.00    +0.197 C 
BRANCH  13  14
ATOM     14  O   UNL     1       6.080   5.137  25.590  0.00  0.00    -0.346 OA
BRANCH  14  15
ATOM     15  C   UNL     1       6.637   4.441  24.458  0.00  0.00    +0.282 C 
ATOM     16  O   UNL     1       7.972   4.868  24.208  0.00  0.00    -0.341 OA
ATOM     17  C   UNL     1       8.068   6.278  23.928  0.00  0.00    +0.178 C 
ATOM     18  C   UNL     1       7.236   6.663  22.687  0.00  0.00    +0.177 C 
ATOM     19  C   UNL     1       5.781   6.197  22.864  0.00  0.00    +0.179 C 
ATOM     20  C   UNL     1       5.742   4.703  23.225  0.00  0.00    +0.201 C 
BRANCH  20  21
ATOM     21  O   UNL     1       4.387   4.291  23.454  0.00  0.00    -0.384 OA
ATOM     22  H   UNL     1       4.289   3.407  23.049  0.00  0.00    +0.210 HD
ENDBRANCH  20  21
BRANCH  19  23
ATOM     23  O   UNL     1       5.116   6.991  23.861  0.00  0.00    -0.386 OA
ATOM     24  H   UNL     1       4.152   6.823  23.787  0.00  0.00    +0.210 HD
ENDBRANCH  19  23
BRANCH  18  25
ATOM     25  O   UNL     1       7.798   6.066  21.515  0.00  0.00    -0.386 OA
ATOM     26  H   UNL     1       7.274   6.352  20.745  0.00  0.00    +0.210 HD
ENDBRANCH  18  25
BRANCH  17  27
ATOM     27  C   UNL     1       9.553   6.637  23.775  0.00  0.00    +0.190 C 
BRANCH  27  28
ATOM     28  O   UNL     1      10.249   5.697  22.948  0.00  0.00    -0.392 OA
ATOM     29  H   UNL     1      10.408   4.887  23.461  0.00  0.00    +0.210 HD
ENDBRANCH  27  28
ENDBRANCH  17  27
ENDBRANCH  14  15
ENDBRANCH  13  14
ENDBRANCH   3  13
BRANCH   1  30
ATOM     30  O   UNL     1       6.103  -0.148  25.610  0.00  0.00    -0.453 OA
BRANCH  30  41
ATOM     31  C   UNL     1       7.075  -1.159  23.634  0.00  0.00    +0.181 A 
ATOM     32  O   UNL     1       7.281  -2.226  22.772  0.00  0.00    -0.451 OA
ATOM     33  C   UNL     1       6.456  -3.324  22.873  0.00  0.00    +0.147 A 
ATOM     34  C   UNL     1       5.367  -3.363  23.729  0.00  0.00    +0.109 A 
ATOM     35  C   UNL     1       4.540  -4.517  23.730  0.00  0.00    +0.135 A 
ATOM     36  C   UNL     1       4.801  -5.596  22.878  0.00  0.00    +0.091 A 
ATOM     37  C   UNL     1       5.909  -5.549  22.048  0.00  0.00    +0.124 A 
ATOM     38  C   UNL     1       5.130  -2.204  24.613  0.00  0.00    +0.238 A 
ATOM     39  O   UNL     1       4.163  -2.200  25.372  0.00  0.00    -0.283 OA
ATOM     40  C   UNL     1       6.742  -4.420  22.045  0.00  0.00    +0.092 A 
ATOM     41  C   UNL     1       6.084  -1.056  24.550  0.00  0.00    +0.214 A 
BRANCH  31  43
ATOM     42  C   UNL     1       9.344  -0.279  24.270  0.00  0.00    +0.015 A 
ATOM     43  C   UNL     1       8.159  -0.132  23.528  0.00  0.00    +0.025 A 
ATOM     44  C   UNL     1       7.996   0.995  22.720  0.00  0.00    +0.060 A 
ATOM     45  C   UNL     1       8.934   2.012  22.759  0.00  0.00    +0.159 A 
ATOM     46  C   UNL     1      10.064   1.905  23.560  0.00  0.00    +0.158 A 
ATOM     47  C   UNL     1      10.299   0.744  24.285  0.00  0.00    +0.050 A 
BRANCH  46  48
ATOM     48  O   UNL     1      10.910   2.976  23.605  0.00  0.00    -0.503 OA
ATOM     49  H   UNL     1      10.672   3.583  22.884  0.00  0.00    +0.292 HD
ENDBRANCH  46  48
BRANCH  45  50
ATOM     50  O   UNL     1       8.721   3.136  22.017  0.00  0.00    -0.503 OA
ATOM     51  H   UNL     1       7.940   2.930  21.466  0.00  0.00    +0.292 HD
ENDBRANCH  45  50
ENDBRANCH  31  43
BRANCH  37  52
ATOM     52  O   UNL     1       6.226  -6.570  21.206  0.00  0.00    -0.507 OA
ATOM     53  H   UNL     1       5.428  -6.842  20.721  0.00  0.00    +0.292 HD
ENDBRANCH  37  52
BRANCH  35  54
ATOM     54  O   UNL     1       3.448  -4.664  24.541  0.00  0.00    -0.506 OA
ATOM     55  H   UNL     1       2.670  -4.278  24.086  0.00  0.00    +0.292 HD
ENDBRANCH  35  54
ENDBRANCH  30  41
ENDBRANCH   1  30
TORSDOF 18
ENDMDL
MODEL 4
REMARK VINA RESULT:      -6.8      2.012      8.957
REMARK  Name = 
REMARK  18 active torsions:
REMARK  status: ('A' for Active; 'I' for Inactive)
REMARK    1  A    between atoms: C_3  and  O_49
REMARK    2  A    between atoms: C_4  and  O_48
REMARK    3  A    between atoms: C_6  and  C_7
REMARK    4  A    between atoms: C_8  and  O_20
REMARK    5  A    between atoms: C_12  and  O_19
REMARK    6  A    between atoms: C_14  and  O_18
REMARK    7  A    between atoms: O_20  and  C_21
REMARK    8  A    between atoms: C_23  and  O_47
REMARK    9  A    between atoms: C_24  and  O_46
REMARK   10  A    between atoms: C_25  and  O_45
REMARK   11  A    between atoms: C_27  and  C_29
REMARK   12  A    between atoms: C_29  and  O_30
REMARK   13  A    between atoms: O_30  and  C_31
REMARK   14  A    between atoms: C_33  and  O_44
REMARK   15  A    between atoms: C_34  and  O_43
REMARK   16  A    between atoms: C_36  and  O_42
REMARK   17  A    between atoms: C_38  and  C_40
REMARK   18  A    between atoms: C_40  and  O_41
REMARK                            x       y       z     vdW  Elec       q    Type
REMARK                         _______ _______ _______ _____ _____    ______ ____
ROOT
ATOM      1  C   UNL     1       4.872  -0.193  26.513  0.00  0.00    +0.340 C 
ATOM      2  O   UNL     1       4.978   0.717  25.410  0.00  0.00    -0.331 OA
ATOM      3  C   UNL     1       6.227   1.385  25.169  0.00  0.00    +0.179 C 
ATOM      4  C   UNL     1       7.313   1.382  26.281  0.00  0.00    +0.177 C 
ATOM      5  C   UNL     1       7.041   0.434  27.457  0.00  0.00    +0.180 C 
ATOM      6  C   UNL     1       5.535   0.473  27.729  0.00  0.00    +0.214 C 
ENDROOT
BRANCH   6   7
ATOM      7  O   UNL     1       5.120  -0.085  28.971  0.00  0.00    -0.383 OA
ATOM      8  H   UNL     1       4.287   0.330  29.251  0.00  0.00    +0.210 HD
ENDBRANCH   6   7
BRANCH   5   9
ATOM      9  O   UNL     1       7.791   0.866  28.598  0.00  0.00    -0.386 OA
ATOM     10  H   UNL     1       8.353   0.120  28.878  0.00  0.00    +0.210 HD
ENDBRANCH   5   9
BRANCH   4  11
ATOM     11  O   UNL     1       8.621   1.132  25.736  0.00  0.00    -0.386 OA
ATOM     12  H   UNL     1       8.520   0.655  24.894  0.00  0.00    +0.210 HD
ENDBRANCH   4  11
BRANCH   3  13
ATOM     13  C   UNL     1       5.880   2.867  24.865  0.00  0.00    +0.197 C 
BRANCH  13  14
ATOM     14  O   UNL     1       7.071   3.661  24.920  0.00  0.00    -0.346 OA
BRANCH  14  15
ATOM     15  C   UNL     1       7.369   4.293  23.661  0.00  0.00    +0.282 C 
ATOM     16  O   UNL     1       8.481   3.667  23.029  0.00  0.00    -0.341 OA
ATOM     17  C   UNL     1       9.682   3.718  23.823  0.00  0.00    +0.178 C 
ATOM     18  C   UNL     1      10.098   5.174  24.120  0.00  0.00    +0.177 C 
ATOM     19  C   UNL     1       8.930   5.934  24.771  0.00  0.00    +0.179 C 
ATOM     20  C   UNL     1       7.660   5.791  23.915  0.00  0.00    +0.201 C 
BRANCH  20  21
ATOM     21  O   UNL     1       6.560   6.445  24.561  0.00  0.00    -0.384 OA
ATOM     22  H   UNL     1       6.236   7.129  23.944  0.00  0.00    +0.210 HD
ENDBRANCH  20  21
BRANCH  19  23
ATOM     23  O   UNL     1       8.710   5.464  26.112  0.00  0.00    -0.386 OA
ATOM     24  H   UNL     1       8.508   6.242  26.676  0.00  0.00    +0.210 HD
ENDBRANCH  19  23
BRANCH  18  25
ATOM     25  O   UNL     1      10.488   5.828  22.910  0.00  0.00    -0.386 OA
ATOM     26  H   UNL     1      11.270   6.379  23.098  0.00  0.00    +0.210 HD
ENDBRANCH  18  25
BRANCH  17  27
ATOM     27  C   UNL     1      10.776   2.930  23.090  0.00  0.00    +0.190 C 
BRANCH  27  28
ATOM     28  O   UNL     1      10.321   2.432  21.826  0.00  0.00    -0.392 OA
ATOM     29  H   UNL     1      10.954   1.769  21.505  0.00  0.00    +0.210 HD
ENDBRANCH  27  28
ENDBRANCH  17  27
ENDBRANCH  14  15
ENDBRANCH  13  14
ENDBRANCH   3  13
BRANCH   1  30
ATOM     30  O   UNL     1       5.477  -1.465  26.167  0.00  0.00    -0.453 OA
BRANCH  30  41
ATOM     31  C   UNL     1       5.510  -2.787  24.137  0.00  0.00    +0.181 A 
ATOM     32  O   UNL     1       5.101  -3.862  23.361  0.00  0.00    -0.451 OA
ATOM     33  C   UNL     1       3.984  -4.567  23.750  0.00  0.00    +0.147 A 
ATOM     34  C   UNL     1       3.195  -4.185  24.823  0.00  0.00    +0.109 A 
ATOM     35  C   UNL     1       2.032  -4.942  25.119  0.00  0.00    +0.135 A 
ATOM     36  C   UNL     1       1.670  -6.048  24.343  0.00  0.00    +0.091 A 
ATOM     37  C   UNL     1       2.485  -6.431  23.291  0.00  0.00    +0.124 A 
ATOM     38  C   UNL     1       3.615  -3.013  25.617  0.00  0.00    +0.238 A 
ATOM     39  O   UNL     1       2.928  -2.637  26.564  0.00  0.00    -0.283 OA
ATOM     40  C   UNL     1       3.644  -5.699  22.992  0.00  0.00    +0.092 A 
ATOM     41  C   UNL     1       4.875  -2.309  25.232  0.00  0.00    +0.214 A 
BRANCH  31  43
ATOM     42  C   UNL     1       8.021  -2.913  24.042  0.00  0.00    +0.015 A 
ATOM     43  C   UNL     1       6.834  -2.245  23.695  0.00  0.00    +0.025 A 
ATOM     44  C   UNL     1       6.909  -1.059  22.962  0.00  0.00    +0.060 A 
ATOM     45  C   UNL     1       8.142  -0.487  22.702  0.00  0.00    +0.159 A 
ATOM     46  C   UNL     1       9.314  -1.104  23.122  0.00  0.00    +0.158 A 
ATOM     47  C   UNL     1       9.264  -2.340  23.754  0.00  0.00    +0.050 A 
BRANCH  46  48
ATOM     48  O   UNL     1      10.490  -0.447  22.896  0.00  0.00    -0.503 OA
ATOM     49  H   UNL     1      11.162  -1.105  22.647  0.00  0.00    +0.292 HD
ENDBRANCH  46  48
BRANCH  45  50
ATOM     50  O   UNL     1       8.191   0.709  22.048  0.00  0.00    -0.503 OA
ATOM     51  H   UNL     1       7.925   1.372  22.715  0.00  0.00    +0.292 HD
ENDBRANCH  45  50
ENDBRANCH  31  43
BRANCH  37  52
ATOM     52  O   UNL     1       2.197  -7.505  22.506  0.00  0.00    -0.507 OA
ATOM     53  H   UNL     1       1.958  -7.194  21.615  0.00  0.00    +0.292 HD
ENDBRANCH  37  52
BRANCH  35  54
ATOM     54  O   UNL     1       1.190  -4.659  26.160  0.00  0.00    -0.506 OA
ATOM     55  H   UNL     1       1.561  -5.055  26.976  0.00  0.00    +0.292 HD
ENDBRANCH  35  54
ENDBRANCH  30  41
ENDBRANCH   1  30
TORSDOF 18
ENDMDL
MODEL 5
REMARK VINA RESULT:      -6.7      2.166      8.676
REMARK  Name = 
REMARK  18 active torsions:
REMARK  status: ('A' for Active; 'I' for Inactive)
REMARK    1  A    between atoms: C_3  and  O_49
REMARK    2  A    between atoms: C_4  and  O_48
REMARK    3  A    between atoms: C_6  and  C_7
REMARK    4  A    between atoms: C_8  and  O_20
REMARK    5  A    between atoms: C_12  and  O_19
REMARK    6  A    between atoms: C_14  and  O_18
REMARK    7  A    between atoms: O_20  and  C_21
REMARK    8  A    between atoms: C_23  and  O_47
REMARK    9  A    between atoms: C_24  and  O_46
REMARK   10  A    between atoms: C_25  and  O_45
REMARK   11  A    between atoms: C_27  and  C_29
REMARK   12  A    between atoms: C_29  and  O_30
REMARK   13  A    between atoms: O_30  and  C_31
REMARK   14  A    between atoms: C_33  and  O_44
REMARK   15  A    between atoms: C_34  and  O_43
REMARK   16  A    between atoms: C_36  and  O_42
REMARK   17  A    between atoms: C_38  and  C_40
REMARK   18  A    between atoms: C_40  and  O_41
REMARK                            x       y       z     vdW  Elec       q    Type
REMARK                         _______ _______ _______ _____ _____    ______ ____
ROOT
ATOM      1  C   UNL     1       5.769  -0.253  25.236  0.00  0.00    +0.340 C 
ATOM      2  O   UNL     1       7.061  -0.002  24.668  0.00  0.00    -0.331 OA
ATOM      3  C   UNL     1       8.193   0.154  25.540  0.00  0.00    +0.179 C 
ATOM      4  C   UNL     1       7.951   0.391  27.056  0.00  0.00    +0.177 C 
ATOM      5  C   UNL     1       6.506   0.181  27.528  0.00  0.00    +0.180 C 
ATOM      6  C   UNL     1       5.589   0.708  26.422  0.00  0.00    +0.214 C 
ENDROOT
BRANCH   6   7
ATOM      7  O   UNL     1       4.228   0.897  26.790  0.00  0.00    -0.383 OA
ATOM      8  H   UNL     1       3.908   1.740  26.427  0.00  0.00    +0.210 HD
ENDBRANCH   6   7
BRANCH   5   9
ATOM      9  O   UNL     1       6.301   0.886  28.758  0.00  0.00    -0.386 OA
ATOM     10  H   UNL     1       6.649   0.327  29.477  0.00  0.00    +0.210 HD
ENDBRANCH   5   9
BRANCH   4  11
ATOM     11  O   UNL     1       8.853  -0.392  27.859  0.00  0.00    -0.386 OA
ATOM     12  H   UNL     1       8.456  -1.268  28.005  0.00  0.00    +0.210 HD
ENDBRANCH   4  11
BRANCH   3  13
ATOM     13  C   UNL     1       8.996   1.370  25.003  0.00  0.00    +0.197 C 
BRANCH  13  14
ATOM     14  O   UNL     1       8.096   2.321  24.423  0.00  0.00    -0.346 OA
BRANCH  14  15
ATOM     15  C   UNL     1       8.466   2.678  23.078  0.00  0.00    +0.282 C 
ATOM     16  O   UNL     1       9.194   3.901  23.060  0.00  0.00    -0.341 OA
ATOM     17  C   UNL     1       8.448   5.009  23.602  0.00  0.00    +0.178 C 
ATOM     18  C   UNL     1       7.147   5.251  22.810  0.00  0.00    +0.177 C 
ATOM     19  C   UNL     1       6.317   3.958  22.750  0.00  0.00    +0.179 C 
ATOM     20  C   UNL     1       7.180   2.798  22.226  0.00  0.00    +0.201 C 
BRANCH  20  21
ATOM     21  O   UNL     1       6.421   1.581  22.235  0.00  0.00    -0.384 OA
ATOM     22  H   UNL     1       6.657   1.107  23.055  0.00  0.00    +0.210 HD
ENDBRANCH  20  21
BRANCH  19  23
ATOM     23  O   UNL     1       5.765   3.654  24.042  0.00  0.00    -0.386 OA
ATOM     24  H   UNL     1       5.974   2.717  24.247  0.00  0.00    +0.210 HD
ENDBRANCH  19  23
BRANCH  18  25
ATOM     25  O   UNL     1       7.455   5.694  21.485  0.00  0.00    -0.386 OA
ATOM     26  H   UNL     1       7.168   6.621  21.398  0.00  0.00    +0.210 HD
ENDBRANCH  18  25
BRANCH  17  27
ATOM     27  C   UNL     1       9.364   6.240  23.623  0.00  0.00    +0.190 C 
BRANCH  27  28
ATOM     28  O   UNL     1      10.621   5.983  22.985  0.00  0.00    -0.392 OA
ATOM     29  H   UNL     1      11.332   6.345  23.538  0.00  0.00    +0.210 HD
ENDBRANCH  27  28
ENDBRANCH  17  27
ENDBRANCH  14  15
ENDBRANCH  13  14
ENDBRANCH   3  13
BRANCH   1  30
ATOM     30  O   UNL     1       5.658  -1.647  25.617  0.00  0.00    -0.453 OA
BRANCH  30  41
ATOM     31  C   UNL     1       5.727  -3.318  23.864  0.00  0.00    +0.181 A 
ATOM     32  O   UNL     1       5.258  -4.461  23.234  0.00  0.00    -0.451 OA
ATOM     33  C   UNL     1       4.016  -4.943  23.583  0.00  0.00    +0.147 A 
ATOM     34  C   UNL     1       3.175  -4.276  24.459  0.00  0.00    +0.109 A 
ATOM     35  C   UNL     1       1.891  -4.820  24.720  0.00  0.00    +0.135 A 
ATOM     36  C   UNL     1       1.464  -6.000  24.102  0.00  0.00    +0.091 A 
ATOM     37  C   UNL     1       2.327  -6.666  23.249  0.00  0.00    +0.124 A 
ATOM     38  C   UNL     1       3.667  -3.036  25.092  0.00  0.00    +0.238 A 
ATOM     39  O   UNL     1       2.940  -2.411  25.861  0.00  0.00    -0.283 OA
ATOM     40  C   UNL     1       3.605  -6.147  22.990  0.00  0.00    +0.092 A 
ATOM     41  C   UNL     1       5.049  -2.572  24.767  0.00  0.00    +0.214 A 
BRANCH  31  43
ATOM     42  C   UNL     1       8.188  -3.485  24.357  0.00  0.00    +0.015 A 
ATOM     43  C   UNL     1       7.155  -3.031  23.519  0.00  0.00    +0.025 A 
ATOM     44  C   UNL     1       7.477  -2.286  22.383  0.00  0.00    +0.060 A 
ATOM     45  C   UNL     1       8.786  -1.892  22.165  0.00  0.00    +0.159 A 
ATOM     46  C   UNL     1       9.795  -2.267  23.042  0.00  0.00    +0.158 A 
ATOM     47  C   UNL     1       9.513  -3.101  24.117  0.00  0.00    +0.050 A 
BRANCH  46  48
ATOM     48  O   UNL     1      11.050  -1.782  22.807  0.00  0.00    -0.503 OA
ATOM     49  H   UNL     1      11.005  -1.175  22.048  0.00  0.00    +0.292 HD
ENDBRANCH  46  48
BRANCH  45  50
ATOM     50  O   UNL     1       9.068  -1.103  21.088  0.00  0.00    -0.503 OA
ATOM     51  H   UNL     1       8.753  -0.212  21.340  0.00  0.00    +0.292 HD
ENDBRANCH  45  50
ENDBRANCH  31  43
BRANCH  37  52
ATOM     52  O   UNL     1       1.978  -7.825  22.626  0.00  0.00    -0.507 OA
ATOM     53  H   UNL     1       1.447  -7.616  21.838  0.00  0.00    +0.292 HD
ENDBRANCH  37  52
BRANCH  35  54
ATOM     54  O   UNL     1       0.987  -4.249  25.575  0.00  0.00    -0.506 OA
ATOM     55  H   UNL     1       0.961  -4.780  26.399  0.00  0.00    +0.292 HD
ENDBRANCH  35  54
ENDBRANCH  30  41
ENDBRANCH   1  30
TORSDOF 18
ENDMDL
MODEL 6
REMARK VINA RESULT:      -6.7      2.092      6.322
REMARK  Name = 
REMARK  18 active torsions:
REMARK  status: ('A' for Active; 'I' for Inactive)
REMARK    1  A    between atoms: C_3  and  O_49
REMARK    2  A    between atoms: C_4  and  O_48
REMARK    3  A    between atoms: C_6  and  C_7
REMARK    4  A    between atoms: C_8  and  O_20
REMARK    5  A    between atoms: C_12  and  O_19
REMARK    6  A    between atoms: C_14  and  O_18
REMARK    7  A    between atoms: O_20  and  C_21
REMARK    8  A    between atoms: C_23  and  O_47
REMARK    9  A    between atoms: C_24  and  O_46
REMARK   10  A    between atoms: C_25  and  O_45
REMARK   11  A    between atoms: C_27  and  C_29
REMARK   12  A    between atoms: C_29  and  O_30
REMARK   13  A    between atoms: O_30  and  C_31
REMARK   14  A    between atoms: C_33  and  O_44
REMARK   15  A    between atoms: C_34  and  O_43
REMARK   16  A    between atoms: C_36  and  O_42
REMARK   17  A    between atoms: C_38  and  C_40
REMARK   18  A    between atoms: C_40  and  O_41
REMARK                            x       y       z     vdW  Elec       q    Type
REMARK                         _______ _______ _______ _____ _____    ______ ____
ROOT
ATOM      1  C   UNL     1       7.586   0.224  22.788  0.00  0.00    +0.340 C 
ATOM      2  O   UNL     1       6.644  -0.853  22.884  0.00  0.00    -0.331 OA
ATOM      3  C   UNL     1       7.129  -2.196  23.048  0.00  0.00    +0.179 C 
ATOM      4  C   UNL     1       8.629  -2.496  22.776  0.00  0.00    +0.177 C 
ATOM      5  C   UNL     1       9.521  -1.260  22.598  0.00  0.00    +0.180 C 
ATOM      6  C   UNL     1       8.702  -0.219  21.830  0.00  0.00    +0.214 C 
ENDROOT
BRANCH   6   7
ATOM      7  O   UNL     1       9.444   0.868  21.289  0.00  0.00    -0.383 OA
ATOM      8  H   UNL     1       8.963   1.698  21.446  0.00  0.00    +0.210 HD
ENDBRANCH   6   7
BRANCH   5   9
ATOM      9  O   UNL     1      10.705  -1.628  21.881  0.00  0.00    -0.386 OA
ATOM     10  H   UNL     1      11.468  -1.429  22.454  0.00  0.00    +0.210 HD
ENDBRANCH   5   9
BRANCH   4  11
ATOM     11  O   UNL     1       9.181  -3.364  23.782  0.00  0.00    -0.386 OA
ATOM     12  H   UNL     1       8.458  -3.886  24.171  0.00  0.00    +0.210 HD
ENDBRANCH   4  11
BRANCH   3  13
ATOM     13  C   UNL     1       6.296  -3.083  22.085  0.00  0.00    +0.197 C 
BRANCH  13  14
ATOM     14  O   UNL     1       5.834  -4.245  22.781  0.00  0.00    -0.346 OA
BRANCH  14  15
ATOM     15  C   UNL     1       5.030  -3.915  23.930  0.00  0.00    +0.282 C 
ATOM     16  O   UNL     1       5.827  -3.864  25.109  0.00  0.00    -0.341 OA
ATOM     17  C   UNL     1       6.486  -5.113  25.398  0.00  0.00    +0.178 C 
ATOM     18  C   UNL     1       5.466  -6.252  25.597  0.00  0.00    +0.177 C 
ATOM     19  C   UNL     1       4.536  -6.348  24.376  0.00  0.00    +0.179 C 
ATOM     20  C   UNL     1       3.913  -4.974  24.074  0.00  0.00    +0.201 C 
BRANCH  20  21
ATOM     21  O   UNL     1       3.100  -5.055  22.896  0.00  0.00    -0.384 OA
ATOM     22  H   UNL     1       3.662  -4.781  22.146  0.00  0.00    +0.210 HD
ENDBRANCH  20  21
BRANCH  19  23
ATOM     23  O   UNL     1       5.252  -6.855  23.237  0.00  0.00    -0.386 OA
ATOM     24  H   UNL     1       6.094  -7.243  23.557  0.00  0.00    +0.210 HD
ENDBRANCH  19  23
BRANCH  18  25
ATOM     25  O   UNL     1       4.694  -6.019  26.778  0.00  0.00    -0.386 OA
ATOM     26  H   UNL     1       3.755  -6.172  26.565  0.00  0.00    +0.210 HD
ENDBRANCH  18  25
BRANCH  17  27
ATOM     27  C   UNL     1       7.387  -4.907  26.623  0.00  0.00    +0.190 C 
BRANCH  27  28
ATOM     28  O   UNL     1       7.607  -6.130  27.336  0.00  0.00    -0.392 OA
ATOM     29  H   UNL     1       7.009  -6.158  28.101  0.00  0.00    +0.210 HD
ENDBRANCH  27  28
ENDBRANCH  17  27
ENDBRANCH  14  15
ENDBRANCH  13  14
ENDBRANCH   3  13
BRANCH   1  30
ATOM     30  O   UNL     1       8.078   0.572  24.107  0.00  0.00    -0.453 OA
BRANCH  30  41
ATOM     31  C   UNL     1       6.489   2.023  25.219  0.00  0.00    +0.181 A 
ATOM     32  O   UNL     1       5.375   2.250  26.015  0.00  0.00    -0.451 OA
ATOM     33  C   UNL     1       4.876   1.206  26.761  0.00  0.00    +0.147 A 
ATOM     34  C   UNL     1       5.502  -0.029  26.831  0.00  0.00    +0.109 A 
ATOM     35  C   UNL     1       4.945  -1.031  27.667  0.00  0.00    +0.135 A 
ATOM     36  C   UNL     1       3.794  -0.785  28.424  0.00  0.00    +0.091 A 
ATOM     37  C   UNL     1       3.168   0.446  28.323  0.00  0.00    +0.124 A 
ATOM     38  C   UNL     1       6.712  -0.246  26.013  0.00  0.00    +0.238 A 
ATOM     39  O   UNL     1       7.301  -1.324  26.065  0.00  0.00    -0.283 OA
ATOM     40  C   UNL     1       3.700   1.442  27.490  0.00  0.00    +0.092 A 
ATOM     41  C   UNL     1       7.192   0.870  25.144  0.00  0.00    +0.214 A 
BRANCH  31  43
ATOM     42  C   UNL     1       5.801   3.709  23.483  0.00  0.00    +0.015 A 
ATOM     43  C   UNL     1       6.794   3.191  24.333  0.00  0.00    +0.025 A 
ATOM     44  C   UNL     1       8.070   3.757  24.315  0.00  0.00    +0.060 A 
ATOM     45  C   UNL     1       8.380   4.726  23.376  0.00  0.00    +0.159 A 
ATOM     46  C   UNL     1       7.422   5.177  22.477  0.00  0.00    +0.158 A 
ATOM     47  C   UNL     1       6.117   4.706  22.553  0.00  0.00    +0.050 A 
BRANCH  46  48
ATOM     48  O   UNL     1       7.817   6.080  21.532  0.00  0.00    -0.503 OA
ATOM     49  H   UNL     1       7.139   6.106  20.834  0.00  0.00    +0.292 HD
ENDBRANCH  46  48
BRANCH  45  50
ATOM     50  O   UNL     1       9.653   5.215  23.327  0.00  0.00    -0.503 OA
ATOM     51  H   UNL     1      10.194   4.558  23.808  0.00  0.00    +0.292 HD
ENDBRANCH  45  50
ENDBRANCH  31  43
BRANCH  37  52
ATOM     52  O   UNL     1       2.038   0.744  29.021  0.00  0.00    -0.507 OA
ATOM     53  H   UNL     1       1.523  -0.071  29.153  0.00  0.00    +0.292 HD
ENDBRANCH  37  52
BRANCH  35  54
ATOM     54  O   UNL     1       5.475  -2.285  27.801  0.00  0.00    -0.506 OA
ATOM     55  H   UNL     1       4.740  -2.934  27.801  0.00  0.00    +0.292 HD
ENDBRANCH  35  54
ENDBRANCH  30  41
ENDBRANCH   1  30
TORSDOF 18
ENDMDL
MODEL 7
REMARK VINA RESULT:      -6.5      2.436      6.581
REMARK  Name = 
REMARK  18 active torsions:
REMARK  status: ('A' for Active; 'I' for Inactive)
REMARK    1  A    between atoms: C_3  and  O_49
REMARK    2  A    between atoms: C_4  and  O_48
REMARK    3  A    between atoms: C_6  and  C_7
REMARK    4  A    between atoms: C_8  and  O_20
REMARK    5  A    between atoms: C_12  and  O_19
REMARK    6  A    between atoms: C_14  and  O_18
REMARK    7  A    between atoms: O_20  and  C_21
REMARK    8  A    between atoms: C_23  and  O_47
REMARK    9  A    between atoms: C_24  and  O_46
REMARK   10  A    between atoms: C_25  and  O_45
REMARK   11  A    between atoms: C_27  and  C_29
REMARK   12  A    between atoms: C_29  and  O_30
REMARK   13  A    between atoms: O_30  and  C_31
REMARK   14  A    between atoms: C_33  and  O_44
REMARK   15  A    between atoms: C_34  and  O_43
REMARK   16  A    between atoms: C_36  and  O_42
REMARK   17  A    between atoms: C_38  and  C_40
REMARK   18  A    between atoms: C_40  and  O_41
REMARK                            x       y       z     vdW  Elec       q    Type
REMARK                         _______ _______ _______ _____ _____    ______ ____
ROOT
ATOM      1  C   UNL     1       7.617   0.783  24.191  0.00  0.00    +0.340 C 
ATOM      2  O   UNL     1       8.247  -0.438  24.600  0.00  0.00    -0.331 OA
ATOM      3  C   UNL     1       9.665  -0.589  24.423  0.00  0.00    +0.179 C 
ATOM      4  C   UNL     1      10.421   0.404  23.498  0.00  0.00    +0.177 C 
ATOM      5  C   UNL     1       9.610   1.627  23.049  0.00  0.00    +0.180 C 
ATOM      6  C   UNL     1       8.175   1.152  22.807  0.00  0.00    +0.214 C 
ENDROOT
BRANCH   6   7
ATOM      7  O   UNL     1       7.342   2.055  22.088  0.00  0.00    -0.383 OA
ATOM      8  H   UNL     1       6.554   1.584  21.768  0.00  0.00    +0.210 HD
ENDBRANCH   6   7
BRANCH   5   9
ATOM      9  O   UNL     1      10.190   2.171  21.858  0.00  0.00    -0.386 OA
ATOM     10  H   UNL     1      11.122   2.376  22.054  0.00  0.00    +0.210 HD
ENDBRANCH   5   9
BRANCH   4  11
ATOM     11  O   UNL     1      11.666   0.823  24.084  0.00  0.00    -0.386 OA
ATOM     12  H   UNL     1      12.332   0.895  23.379  0.00  0.00    +0.210 HD
ENDBRANCH   4  11
BRANCH   3  13
ATOM     13  C   UNL     1       9.886  -2.015  23.853  0.00  0.00    +0.197 C 
BRANCH  13  14
ATOM     14  O   UNL     1       8.621  -2.662  23.673  0.00  0.00    -0.346 OA
BRANCH  14  15
ATOM     15  C   UNL     1       8.503  -3.866  24.455  0.00  0.00    +0.282 C 
ATOM     16  O   UNL     1       8.289  -4.996  23.616  0.00  0.00    -0.341 OA
ATOM     17  C   UNL     1       7.092  -4.888  22.820  0.00  0.00    +0.178 C 
ATOM     18  C   UNL     1       5.839  -4.747  23.708  0.00  0.00    +0.177 C 
ATOM     19  C   UNL     1       6.009  -3.564  24.676  0.00  0.00    +0.179 C 
ATOM     20  C   UNL     1       7.331  -3.698  25.450  0.00  0.00    +0.201 C 
BRANCH  20  21
ATOM     21  O   UNL     1       7.516  -2.559  26.302  0.00  0.00    -0.384 OA
ATOM     22  H   UNL     1       6.670  -2.414  26.767  0.00  0.00    +0.210 HD
ENDBRANCH  20  21
BRANCH  19  23
ATOM     23  O   UNL     1       5.946  -2.317  23.963  0.00  0.00    -0.386 OA
ATOM     24  H   UNL     1       5.071  -2.264  23.524  0.00  0.00    +0.210 HD
ENDBRANCH  19  23
BRANCH  18  25
ATOM     25  O   UNL     1       5.622  -5.953  24.447  0.00  0.00    -0.386 OA
ATOM     26  H   UNL     1       4.695  -6.225  24.323  0.00  0.00    +0.210 HD
ENDBRANCH  18  25
BRANCH  17  27
ATOM     27  C   UNL     1       7.022  -6.108  21.891  0.00  0.00    +0.190 C 
BRANCH  27  28
ATOM     28  O   UNL     1       5.675  -6.412  21.508  0.00  0.00    -0.392 OA
ATOM     29  H   UNL     1       5.096  -5.690  21.801  0.00  0.00    +0.210 HD
ENDBRANCH  27  28
ENDBRANCH  17  27
ENDBRANCH  14  15
ENDBRANCH  13  14
ENDBRANCH   3  13
BRANCH   1  30
ATOM     30  O   UNL     1       7.843   1.815  25.184  0.00  0.00    -0.453 OA
BRANCH  30  41
ATOM     31  C   UNL     1       6.020   3.337  25.663  0.00  0.00    +0.181 A 
ATOM     32  O   UNL     1       4.789   3.646  26.223  0.00  0.00    -0.451 OA
ATOM     33  C   UNL     1       4.250   2.780  27.148  0.00  0.00    +0.147 A 
ATOM     34  C   UNL     1       4.933   1.670  27.619  0.00  0.00    +0.109 A 
ATOM     35  C   UNL     1       4.321   0.862  28.612  0.00  0.00    +0.135 A 
ATOM     36  C   UNL     1       3.058   1.176  29.124  0.00  0.00    +0.091 A 
ATOM     37  C   UNL     1       2.379   2.275  28.624  0.00  0.00    +0.124 A 
ATOM     38  C   UNL     1       6.262   1.374  27.048  0.00  0.00    +0.238 A 
ATOM     39  O   UNL     1       6.902   0.407  27.456  0.00  0.00    -0.283 OA
ATOM     40  C   UNL     1       2.966   3.076  27.633  0.00  0.00    +0.092 A 
ATOM     41  C   UNL     1       6.796   2.276  25.984  0.00  0.00    +0.214 A 
BRANCH  31  43
ATOM     42  C   UNL     1       5.394   4.697  23.642  0.00  0.00    +0.015 A 
ATOM     43  C   UNL     1       6.380   4.268  24.547  0.00  0.00    +0.025 A 
ATOM     44  C   UNL     1       7.698   4.694  24.373  0.00  0.00    +0.060 A 
ATOM     45  C   UNL     1       8.044   5.420  23.246  0.00  0.00    +0.159 A 
ATOM     46  C   UNL     1       7.084   5.771  22.305  0.00  0.00    +0.158 A 
ATOM     47  C   UNL     1       5.749   5.452  22.518  0.00  0.00    +0.050 A 
BRANCH  46  48
ATOM     48  O   UNL     1       7.508   6.423  21.182  0.00  0.00    -0.503 OA
ATOM     49  H   UNL     1       6.979   7.233  21.083  0.00  0.00    +0.292 HD
ENDBRANCH  46  48
BRANCH  45  50
ATOM     50  O   UNL     1       9.350   5.765  23.057  0.00  0.00    -0.503 OA
ATOM     51  H   UNL     1       9.776   4.957  22.709  0.00  0.00    +0.292 HD
ENDBRANCH  45  50
ENDBRANCH  31  43
BRANCH  37  52
ATOM     52  O   UNL     1       1.142   2.626  29.069  0.00  0.00    -0.507 OA
ATOM     53  H   UNL     1       0.613   1.821  29.206  0.00  0.00    +0.292 HD
ENDBRANCH  37  52
BRANCH  35  54
ATOM     54  O   UNL     1       4.902  -0.260  29.137  0.00  0.00    -0.506 OA
ATOM     55  H   UNL     1       4.200  -0.925  29.301  0.00  0.00    +0.292 HD
ENDBRANCH  35  54
ENDBRANCH  30  41
ENDBRANCH   1  30
TORSDOF 18
ENDMDL
MODEL 8
REMARK VINA RESULT:      -6.5      1.951      5.850
REMARK  Name = 
REMARK  18 active torsions:
REMARK  status: ('A' for Active; 'I' for Inactive)
REMARK    1  A    between atoms: C_3  and  O_49
REMARK    2  A    between atoms: C_4  and  O_48
REMARK    3  A    between atoms: C_6  and  C_7
REMARK    4  A    between atoms: C_8  and  O_20
REMARK    5  A    between atoms: C_12  and  O_19
REMARK    6  A    between atoms: C_14  and  O_18
REMARK    7  A    between atoms: O_20  and  C_21
REMARK    8  A    between atoms: C_23  and  O_47
REMARK    9  A    between atoms: C_24  and  O_46
REMARK   10  A    between atoms: C_25  and  O_45
REMARK   11  A    between atoms: C_27  and  C_29
REMARK   12  A    between atoms: C_29  and  O_30
REMARK   13  A    between atoms: O_30  and  C_31
REMARK   14  A    between atoms: C_33  and  O_44
REMARK   15  A    between atoms: C_34  and  O_43
REMARK   16  A    between atoms: C_36  and  O_42
REMARK   17  A    between atoms: C_38  and  C_40
REMARK   18  A    between atoms: C_40  and  O_41
REMARK                            x       y       z     vdW  Elec       q    Type
REMARK                         _______ _______ _______ _____ _____    ______ ____
ROOT
ATOM      1  C   UNL     1       7.905  -2.446  24.214  0.00  0.00    +0.340 C 
ATOM      2  O   UNL     1       6.712  -3.240  24.171  0.00  0.00    -0.331 OA
ATOM      3  C   UNL     1       6.714  -4.544  24.776  0.00  0.00    +0.179 C 
ATOM      4  C   UNL     1       8.072  -5.201  25.150  0.00  0.00    +0.177 C 
ATOM      5  C   UNL     1       9.291  -4.273  25.068  0.00  0.00    +0.180 C 
ATOM      6  C   UNL     1       9.085  -3.363  23.854  0.00  0.00    +0.214 C 
ENDROOT
BRANCH   6   7
ATOM      7  O   UNL     1      10.237  -2.650  23.417  0.00  0.00    -0.383 OA
ATOM      8  H   UNL     1      10.563  -2.087  24.139  0.00  0.00    +0.210 HD
ENDBRANCH   6   7
BRANCH   5   9
ATOM      9  O   UNL     1      10.480  -5.061  24.934  0.00  0.00    -0.386 OA
ATOM     10  H   UNL     1      10.370  -5.624  24.146  0.00  0.00    +0.210 HD
ENDBRANCH   5   9
BRANCH   4  11
ATOM     11  O   UNL     1       8.012  -5.827  26.444  0.00  0.00    -0.386 OA
ATOM     12  H   UNL     1       8.821  -5.600  26.935  0.00  0.00    +0.210 HD
ENDBRANCH   4  11
BRANCH   3  13
ATOM     13  C   UNL     1       6.000  -5.492  23.775  0.00  0.00    +0.197 C 
BRANCH  13  14
ATOM     14  O   UNL     1       4.955  -6.202  24.449  0.00  0.00    -0.346 OA
BRANCH  14  15
ATOM     15  C   UNL     1       3.907  -5.329  24.912  0.00  0.00    +0.282 C 
ATOM     16  O   UNL     1       3.758  -5.422  26.325  0.00  0.00    -0.341 OA
ATOM     17  C   UNL     1       3.429  -6.753  26.771  0.00  0.00    +0.178 C 
ATOM     18  C   UNL     1       2.106  -7.242  26.148  0.00  0.00    +0.177 C 
ATOM     19  C   UNL     1       2.172  -7.136  24.616  0.00  0.00    +0.179 C 
ATOM     20  C   UNL     1       2.590  -5.715  24.200  0.00  0.00    +0.201 C 
BRANCH  20  21
ATOM     21  O   UNL     1       2.715  -5.641  22.773  0.00  0.00    -0.384 OA
ATOM     22  H   UNL     1       3.423  -6.263  22.519  0.00  0.00    +0.210 HD
ENDBRANCH  20  21
BRANCH  19  23
ATOM     23  O   UNL     1       3.073  -8.121  24.082  0.00  0.00    -0.386 OA
ATOM     24  H   UNL     1       3.848  -8.179  24.681  0.00  0.00    +0.210 HD
ENDBRANCH  19  23
BRANCH  18  25
ATOM     25  O   UNL     1       1.013  -6.462  26.643  0.00  0.00    -0.386 OA
ATOM     26  H   UNL     1       0.538  -6.084  25.881  0.00  0.00    +0.210 HD
ENDBRANCH  18  25
BRANCH  17  27
ATOM     27  C   UNL     1       3.394  -6.750  28.305  0.00  0.00    +0.190 C 
BRANCH  27  28
ATOM     28  O   UNL     1       4.479  -7.498  28.866  0.00  0.00    -0.392 OA
ATOM     29  H   UNL     1       4.129  -8.321  29.245  0.00  0.00    +0.210 HD
ENDBRANCH  27  28
ENDBRANCH  17  27
ENDBRANCH  14  15
ENDBRANCH  13  14
ENDBRANCH   3  13
BRANCH   1  30
ATOM     30  O   UNL     1       8.045  -1.832  25.520  0.00  0.00    -0.453 OA
BRANCH  30  41
ATOM     31  C   UNL     1       6.740   0.208  25.484  0.00  0.00    +0.181 A 
ATOM     32  O   UNL     1       5.579   0.932  25.716  0.00  0.00    -0.451 OA
ATOM     33  C   UNL     1       4.606   0.376  26.516  0.00  0.00    +0.147 A 
ATOM     34  C   UNL     1       4.782  -0.828  27.180  0.00  0.00    +0.109 A 
ATOM     35  C   UNL     1       3.744  -1.299  28.026  0.00  0.00    +0.135 A 
ATOM     36  C   UNL     1       2.566  -0.567  28.204  0.00  0.00    +0.091 A 
ATOM     37  C   UNL     1       2.397   0.621  27.512  0.00  0.00    +0.124 A 
ATOM     38  C   UNL     1       6.040  -1.569  26.961  0.00  0.00    +0.238 A 
ATOM     39  O   UNL     1       6.235  -2.631  27.549  0.00  0.00    -0.283 OA
ATOM     40  C   UNL     1       3.408   1.094  26.663  0.00  0.00    +0.092 A 
ATOM     41  C   UNL     1       7.050  -0.993  26.024  0.00  0.00    +0.214 A 
BRANCH  31  43
ATOM     42  C   UNL     1       7.139   1.032  23.141  0.00  0.00    +0.015 A 
ATOM     43  C   UNL     1       7.611   0.858  24.453  0.00  0.00    +0.025 A 
ATOM     44  C   UNL     1       8.906   1.268  24.772  0.00  0.00    +0.060 A 
ATOM     45  C   UNL     1       9.753   1.715  23.773  0.00  0.00    +0.159 A 
ATOM     46  C   UNL     1       9.314   1.805  22.458  0.00  0.00    +0.158 A 
ATOM     47  C   UNL     1       7.995   1.507  22.141  0.00  0.00    +0.050 A 
BRANCH  46  48
ATOM     48  O   UNL     1      10.223   2.184  21.512  0.00  0.00    -0.503 OA
ATOM     49  H   UNL     1      11.071   1.753  21.715  0.00  0.00    +0.292 HD
ENDBRANCH  46  48
BRANCH  45  50
ATOM     50  O   UNL     1      11.038   2.043  24.093  0.00  0.00    -0.503 OA
ATOM     51  H   UNL     1      11.334   2.632  23.372  0.00  0.00    +0.292 HD
ENDBRANCH  45  50
ENDBRANCH  31  43
BRANCH  37  52
ATOM     52  O   UNL     1       1.269   1.373  27.631  0.00  0.00    -0.507 OA
ATOM     53  H   UNL     1       0.494   0.818  27.433  0.00  0.00    +0.292 HD
ENDBRANCH  37  52
BRANCH  35  54
ATOM     54  O   UNL     1       3.810  -2.477  28.719  0.00  0.00    -0.506 OA
ATOM     55  H   UNL     1       4.574  -2.434  29.333  0.00  0.00    +0.292 HD
ENDBRANCH  35  54
ENDBRANCH  30  41
ENDBRANCH   1  30
TORSDOF 18
ENDMDL
MODEL 9
REMARK VINA RESULT:      -6.5      1.495      4.405
REMARK  Name = 
REMARK  18 active torsions:
REMARK  status: ('A' for Active; 'I' for Inactive)
REMARK    1  A    between atoms: C_3  and  O_49
REMARK    2  A    between atoms: C_4  and  O_48
REMARK    3  A    between atoms: C_6  and  C_7
REMARK    4  A    between atoms: C_8  and  O_20
REMARK    5  A    between atoms: C_12  and  O_19
REMARK    6  A    between atoms: C_14  and  O_18
REMARK    7  A    between atoms: O_20  and  C_21
REMARK    8  A    between atoms: C_23  and  O_47
REMARK    9  A    between atoms: C_24  and  O_46
REMARK   10  A    between atoms: C_25  and  O_45
REMARK   11  A    between atoms: C_27  and  C_29
REMARK   12  A    between atoms: C_29  and  O_30
REMARK   13  A    between atoms: O_30  and  C_31
REMARK   14  A    between atoms: C_33  and  O_44
REMARK   15  A    between atoms: C_34  and  O_43
REMARK   16  A    between atoms: C_36  and  O_42
REMARK   17  A    between atoms: C_38  and  C_40
REMARK   18  A    between atoms: C_40  and  O_41
REMARK                            x       y       z     vdW  Elec       q    Type
REMARK                         _______ _______ _______ _____ _____    ______ ____
ROOT
ATOM      1  C   UNL     1       6.821  -2.346  25.334  0.00  0.00    +0.340 C 
ATOM      2  O   UNL     1       6.269  -3.273  26.278  0.00  0.00    -0.331 OA
ATOM      3  C   UNL     1       7.117  -4.286  26.845  0.00  0.00    +0.179 C 
ATOM      4  C   UNL     1       8.493  -4.576  26.185  0.00  0.00    +0.177 C 
ATOM      5  C   UNL     1       8.934  -3.562  25.120  0.00  0.00    +0.180 C 
ATOM      6  C   UNL     1       7.681  -3.149  24.344  0.00  0.00    +0.214 C 
ENDROOT
BRANCH   6   7
ATOM      7  O   UNL     1       7.915  -2.464  23.119  0.00  0.00    -0.383 OA
ATOM      8  H   UNL     1       8.024  -3.110  22.402  0.00  0.00    +0.210 HD
ENDBRANCH   6   7
BRANCH   5   9
ATOM      9  O   UNL     1       9.906  -4.168  24.261  0.00  0.00    -0.386 OA
ATOM     10  H   UNL     1       9.554  -4.134  23.352  0.00  0.00    +0.210 HD
ENDBRANCH   5   9
BRANCH   4  11
ATOM     11  O   UNL     1       9.526  -4.736  27.174  0.00  0.00    -0.386 OA
ATOM     12  H   UNL     1       9.443  -5.622  27.567  0.00  0.00    +0.210 HD
ENDBRANCH   4  11
BRANCH   3  13
ATOM     13  C   UNL     1       6.302  -5.606  26.816  0.00  0.00    +0.197 C 
BRANCH  13  14
ATOM     14  O   UNL     1       4.914  -5.310  26.621  0.00  0.00    -0.346 OA
BRANCH  14  15
ATOM     15  C   UNL     1       4.230  -6.341  25.884  0.00  0.00    +0.282 C 
ATOM     16  O   UNL     1       4.886  -6.600  24.647  0.00  0.00    -0.341 OA
ATOM     17  C   UNL     1       4.954  -5.442  23.792  0.00  0.00    +0.178 C 
ATOM     18  C   UNL     1       3.546  -4.914  23.450  0.00  0.00    +0.177 C 
ATOM     19  C   UNL     1       2.755  -4.645  24.741  0.00  0.00    +0.179 C 
ATOM     20  C   UNL     1       2.770  -5.891  25.642  0.00  0.00    +0.201 C 
BRANCH  20  21
ATOM     21  O   UNL     1       2.088  -5.613  26.873  0.00  0.00    -0.384 OA
ATOM     22  H   UNL     1       2.082  -6.443  27.387  0.00  0.00    +0.210 HD
ENDBRANCH  20  21
BRANCH  19  23
ATOM     23  O   UNL     1       3.286  -3.499  25.427  0.00  0.00    -0.386 OA
ATOM     24  H   UNL     1       3.540  -2.833  24.752  0.00  0.00    +0.210 HD
ENDBRANCH  19  23
BRANCH  18  25
ATOM     25  O   UNL     1       2.848  -5.866  22.641  0.00  0.00    -0.386 OA
ATOM     26  H   UNL     1       2.082  -6.193  23.147  0.00  0.00    +0.210 HD
ENDBRANCH  18  25
BRANCH  17  27
ATOM     27  C   UNL     1       5.764  -5.815  22.543  0.00  0.00    +0.190 C 
BRANCH  27  28
ATOM     28  O   UNL     1       5.530  -4.904  21.462  0.00  0.00    -0.392 OA
ATOM     29  H   UNL     1       4.979  -4.172  21.784  0.00  0.00    +0.210 HD
ENDBRANCH  27  28
ENDBRANCH  17  27
ENDBRANCH  14  15
ENDBRANCH  13  14
ENDBRANCH   3  13
BRANCH   1  30
ATOM     30  O   UNL     1       7.572  -1.318  26.029  0.00  0.00    -0.453 OA
BRANCH  30  41
ATOM     31  C   UNL     1       6.641   0.914  26.179  0.00  0.00    +0.181 A 
ATOM     32  O   UNL     1       6.728   2.294  26.071  0.00  0.00    -0.451 OA
ATOM     33  C   UNL     1       7.802   2.835  25.399  0.00  0.00    +0.147 A 
ATOM     34  C   UNL     1       8.740   2.057  24.740  0.00  0.00    +0.109 A 
ATOM     35  C   UNL     1       9.785   2.702  24.030  0.00  0.00    +0.135 A 
ATOM     36  C   UNL     1       9.871   4.098  23.976  0.00  0.00    +0.091 A 
ATOM     37  C   UNL     1       8.939   4.859  24.661  0.00  0.00    +0.124 A 
ATOM     38  C   UNL     1       8.614   0.588  24.826  0.00  0.00    +0.238 A 
ATOM     39  O   UNL     1       9.420  -0.131  24.238  0.00  0.00    -0.283 OA
ATOM     40  C   UNL     1       7.907   4.235  25.379  0.00  0.00    +0.092 A 
ATOM     41  C   UNL     1       7.491   0.017  25.629  0.00  0.00    +0.214 A 
BRANCH  31  43
ATOM     42  C   UNL     1       5.698   0.557  28.484  0.00  0.00    +0.015 A 
ATOM     43  C   UNL     1       5.531   0.490  27.090  0.00  0.00    +0.025 A 
ATOM     44  C   UNL     1       4.333  -0.004  26.571  0.00  0.00    +0.060 A 
ATOM     45  C   UNL     1       3.383  -0.541  27.422  0.00  0.00    +0.159 A 
ATOM     46  C   UNL     1       3.587  -0.555  28.796  0.00  0.00    +0.158 A 
ATOM     47  C   UNL     1       4.722   0.033  29.339  0.00  0.00    +0.050 A 
BRANCH  46  48
ATOM     48  O   UNL     1       2.642  -1.167  29.569  0.00  0.00    -0.503 OA
ATOM     49  H   UNL     1       2.304  -0.516  30.208  0.00  0.00    +0.292 HD
ENDBRANCH  46  48
BRANCH  45  50
ATOM     50  O   UNL     1       2.250  -1.085  26.889  0.00  0.00    -0.503 OA
ATOM     51  H   UNL     1       1.768  -0.330  26.499  0.00  0.00    +0.292 HD
ENDBRANCH  45  50
ENDBRANCH  31  43
BRANCH  37  52
ATOM     52  O   UNL     1       8.974   6.219  24.661  0.00  0.00    -0.507 OA
ATOM     53  H   UNL     1       9.698   6.519  25.239  0.00  0.00    +0.292 HD
ENDBRANCH  37  52
BRANCH  35  54
ATOM     54  O   UNL     1      10.768   2.031  23.354  0.00  0.00    -0.506 OA
ATOM     55  H   UNL     1      10.878   2.445  22.473  0.00  0.00    +0.292 HD
ENDBRANCH  35  54
ENDBRANCH  30  41
ENDBRANCH   1  30
TORSDOF 18
ENDMDL
