MODEL 1
REMARK VINA RESULT:      -7.2      0.000      0.000
REMARK  Name = 
REMARK  17 active torsions:
REMARK  status: ('A' for Active; 'I' for Inactive)
REMARK    1  A    between atoms: C_1  and  C_2
REMARK    2  A    between atoms: C_4  and  O_53
REMARK    3  A    between atoms: C_6  and  O_52
REMARK    4  A    between atoms: C_8  and  O_51
REMARK    5  A    between atoms: C_10  and  O_13
REMARK    6  A    between atoms: O_13  and  C_14
REMARK    7  A    between atoms: C_15  and  C_43
REMARK    8  A    between atoms: C_19  and  O_26
REMARK    9  A    between atoms: C_21  and  O_25
REMARK   10  A    between atoms: O_26  and  C_27
REMARK   11  A    between atoms: C_29  and  O_42
REMARK   12  A    between atoms: C_31  and  O_41
REMARK   13  A    between atoms: C_33  and  O_40
REMARK   14  A    between atoms: C_35  and  C_38
REMARK   15  A    between atoms: C_38  and  O_39
REMARK   16  A    between atoms: C_45  and  O_50
REMARK   17  A    between atoms: C_46  and  O_49
REMARK                            x       y       z     vdW  Elec       q    Type
REMARK                         _______ _______ _______ _____ _____    ______ ____
ROOT
ATOM      1  C   UNL     1       7.380  -1.699  24.148  0.00  0.00    +0.214 A 
ATOM      2  C   UNL     1       7.468  -2.925  23.272  0.00  0.00    +0.238 A 
ATOM      3  O   UNL     1       8.377  -3.036  22.465  0.00  0.00    -0.283 OA
ATOM      4  C   UNL     1       6.400  -3.952  23.403  0.00  0.00    +0.109 A 
ATOM      5  C   UNL     1       5.518  -3.815  24.462  0.00  0.00    +0.147 A 
ATOM      6  C   UNL     1       4.459  -4.720  24.632  0.00  0.00    +0.093 A 
ATOM      7  C   UNL     1       4.274  -5.781  23.742  0.00  0.00    +0.131 A 
ATOM      8  C   UNL     1       5.188  -5.954  22.700  0.00  0.00    +0.092 A 
ATOM      9  O   UNL     1       5.634  -2.826  25.409  0.00  0.00    -0.451 OA
ATOM     10  C   UNL     1       6.234  -5.038  22.522  0.00  0.00    +0.135 A 
ATOM     11  C   UNL     1       6.494  -1.739  25.208  0.00  0.00    +0.181 A 
ENDROOT
BRANCH  11  12
ATOM     12  C   UNL     1       6.207  -0.694  26.264  0.00  0.00    +0.025 A 
ATOM     13  C   UNL     1       4.969  -0.066  26.394  0.00  0.00    +0.015 A 
ATOM     14  C   UNL     1       4.560   0.538  27.592  0.00  0.00    +0.050 A 
ATOM     15  C   UNL     1       5.507   0.829  28.542  0.00  0.00    +0.158 A 
ATOM     16  C   UNL     1       6.838   0.555  28.258  0.00  0.00    +0.159 A 
ATOM     17  C   UNL     1       7.192  -0.243  27.160  0.00  0.00    +0.060 A 
BRANCH  16  18
ATOM     18  O   UNL     1       7.783   1.134  29.056  0.00  0.00    -0.503 OA
ATOM     19  H   UNL     1       8.525   0.501  29.097  0.00  0.00    +0.292 HD
ENDBRANCH  16  18
BRANCH  15  20
ATOM     20  O   UNL     1       5.139   1.457  29.690  0.00  0.00    -0.503 OA
ATOM     21  H   UNL     1       4.990   2.389  29.441  0.00  0.00    +0.292 HD
ENDBRANCH  15  20
ENDBRANCH  11  12
BRANCH  10  22
ATOM     22  O   UNL     1       7.081  -5.220  21.462  0.00  0.00    -0.506 OA
ATOM     23  H   UNL     1       6.656  -4.948  20.631  0.00  0.00    +0.292 HD
ENDBRANCH  10  22
BRANCH   7  24
ATOM     24  O   UNL     1       3.265  -6.707  23.815  0.00  0.00    -0.461 OA
BRANCH  24  25
ATOM     25  C   UNL     1       3.329  -7.551  24.976  0.00  0.00    +0.339 C 
ATOM     26  O   UNL     1       2.790  -8.858  24.754  0.00  0.00    -0.331 OA
ATOM     27  C   UNL     1       1.359  -8.984  24.769  0.00  0.00    +0.179 C 
ATOM     28  C   UNL     1       0.784  -8.458  26.095  0.00  0.00    +0.177 C 
ATOM     29  C   UNL     1       1.187  -6.994  26.320  0.00  0.00    +0.180 C 
ATOM     30  C   UNL     1       2.715  -6.835  26.209  0.00  0.00    +0.214 C 
BRANCH  29  31
ATOM     31  O   UNL     1       0.445  -6.143  25.450  0.00  0.00    -0.386 OA
ATOM     32  H   UNL     1      -0.330  -6.621  25.104  0.00  0.00    +0.210 HD
ENDBRANCH  29  31
BRANCH  30  33
ATOM     33  O   UNL     1       3.306  -7.373  27.409  0.00  0.00    -0.383 OA
ATOM     34  H   UNL     1       3.073  -6.753  28.134  0.00  0.00    +0.210 HD
ENDBRANCH  30  33
BRANCH  28  35
ATOM     35  O   UNL     1       1.315  -9.264  27.164  0.00  0.00    -0.386 OA
ATOM     36  H   UNL     1       1.242 -10.198  26.891  0.00  0.00    +0.210 HD
ENDBRANCH  28  35
BRANCH  27  37
ATOM     37  C   UNL     1       0.670  -8.395  23.522  0.00  0.00    +0.190 C 
BRANCH  37  38
ATOM     38  O   UNL     1       1.466  -8.557  22.349  0.00  0.00    -0.392 OA
ATOM     39  H   UNL     1       2.401  -8.519  22.612  0.00  0.00    +0.210 HD
ENDBRANCH  37  38
ENDBRANCH  27  37
ENDBRANCH  24  25
ENDBRANCH   7  24
BRANCH   1  40
ATOM     40  O   UNL     1       8.224  -0.708  23.657  0.00  0.00    -0.453 OA
BRANCH  40  44
ATOM     41  C   UNL     1       8.456   2.094  25.187  0.00  0.00    +0.041 C 
ATOM     42  C   UNL     1       7.918   2.384  23.790  0.00  0.00    +0.150 C 
ATOM     43  O   UNL     1       7.186   1.323  23.193  0.00  0.00    -0.334 OA
ATOM     44  C   UNL     1       7.846   0.190  22.637  0.00  0.00    +0.339 C 
ATOM     45  C   UNL     1       8.991   0.612  21.688  0.00  0.00    +0.214 C 
ATOM     46  C   UNL     1       9.820   1.780  22.239  0.00  0.00    +0.180 C 
ATOM     47  C   UNL     1       8.897   2.902  22.748  0.00  0.00    +0.174 C 
BRANCH  47  48
ATOM     48  O   UNL     1       8.098   3.391  21.642  0.00  0.00    -0.387 OA
ATOM     49  H   UNL     1       7.541   4.114  21.975  0.00  0.00    +0.210 HD
ENDBRANCH  47  48
BRANCH  46  50
ATOM     50  O   UNL     1      10.742   1.350  23.242  0.00  0.00    -0.386 OA
ATOM     51  H   UNL     1      11.388   2.057  23.424  0.00  0.00    +0.210 HD
ENDBRANCH  46  50
BRANCH  45  52
ATOM     52  O   UNL     1       9.800  -0.488  21.272  0.00  0.00    -0.383 OA
ATOM     53  H   UNL     1       9.953  -0.394  20.315  0.00  0.00    +0.210 HD
ENDBRANCH  45  52
ENDBRANCH  40  44
ENDBRANCH   1  40
TORSDOF 16
ENDMDL
MODEL 2
REMARK VINA RESULT:      -7.0      2.608     10.318
REMARK  Name = 
REMARK  17 active torsions:
REMARK  status: ('A' for Active; 'I' for Inactive)
REMARK    1  A    between atoms: C_1  and  C_2
REMARK    2  A    between atoms: C_4  and  O_53
REMARK    3  A    between atoms: C_6  and  O_52
REMARK    4  A    between atoms: C_8  and  O_51
REMARK    5  A    between atoms: C_10  and  O_13
REMARK    6  A    between atoms: O_13  and  C_14
REMARK    7  A    between atoms: C_15  and  C_43
REMARK    8  A    between atoms: C_19  and  O_26
REMARK    9  A    between atoms: C_21  and  O_25
REMARK   10  A    between atoms: O_26  and  C_27
REMARK   11  A    between atoms: C_29  and  O_42
REMARK   12  A    between atoms: C_31  and  O_41
REMARK   13  A    between atoms: C_33  and  O_40
REMARK   14  A    between atoms: C_35  and  C_38
REMARK   15  A    between atoms: C_38  and  O_39
REMARK   16  A    between atoms: C_45  and  O_50
REMARK   17  A    between atoms: C_46  and  O_49
REMARK                            x       y       z     vdW  Elec       q    Type
REMARK                         _______ _______ _______ _____ _____    ______ ____
ROOT
ATOM      1  C   UNL     1       6.727  -2.041  25.588  0.00  0.00    +0.214 A 
ATOM      2  C   UNL     1       7.017  -0.771  26.351  0.00  0.00    +0.238 A 
ATOM      3  O   UNL     1       6.911  -0.750  27.567  0.00  0.00    -0.283 OA
ATOM      4  C   UNL     1       7.391   0.439  25.571  0.00  0.00    +0.109 A 
ATOM      5  C   UNL     1       7.652   0.265  24.222  0.00  0.00    +0.147 A 
ATOM      6  C   UNL     1       7.972   1.363  23.409  0.00  0.00    +0.093 A 
ATOM      7  C   UNL     1       8.042   2.654  23.943  0.00  0.00    +0.131 A 
ATOM      8  C   UNL     1       7.828   2.829  25.311  0.00  0.00    +0.092 A 
ATOM      9  O   UNL     1       7.641  -0.965  23.611  0.00  0.00    -0.451 OA
ATOM     10  C   UNL     1       7.490   1.733  26.118  0.00  0.00    +0.135 A 
ATOM     11  C   UNL     1       7.105  -2.083  24.260  0.00  0.00    +0.181 A 
ENDROOT
BRANCH  11  12
ATOM     12  C   UNL     1       6.977  -3.210  23.258  0.00  0.00    +0.025 A 
ATOM     13  C   UNL     1       7.461  -4.496  23.496  0.00  0.00    +0.015 A 
ATOM     14  C   UNL     1       6.973  -5.616  22.809  0.00  0.00    +0.050 A 
ATOM     15  C   UNL     1       6.265  -5.424  21.649  0.00  0.00    +0.158 A 
ATOM     16  C   UNL     1       6.101  -4.129  21.179  0.00  0.00    +0.159 A 
ATOM     17  C   UNL     1       6.402  -3.024  21.989  0.00  0.00    +0.060 A 
BRANCH  16  18
ATOM     18  O   UNL     1       5.686  -3.976  19.887  0.00  0.00    -0.503 OA
ATOM     19  H   UNL     1       5.257  -4.818  19.640  0.00  0.00    +0.292 HD
ENDBRANCH  16  18
BRANCH  15  20
ATOM     20  O   UNL     1       5.822  -6.499  20.944  0.00  0.00    -0.503 OA
ATOM     21  H   UNL     1       6.620  -7.024  20.741  0.00  0.00    +0.292 HD
ENDBRANCH  15  20
ENDBRANCH  11  12
BRANCH  10  22
ATOM     22  O   UNL     1       7.247   1.957  27.446  0.00  0.00    -0.506 OA
ATOM     23  H   UNL     1       6.304   2.143  27.596  0.00  0.00    +0.292 HD
ENDBRANCH  10  22
BRANCH   7  24
ATOM     24  O   UNL     1       8.333   3.788  23.230  0.00  0.00    -0.461 OA
BRANCH  24  25
ATOM     25  C   UNL     1       7.301   4.182  22.310  0.00  0.00    +0.339 C 
ATOM     26  O   UNL     1       7.610   5.382  21.596  0.00  0.00    -0.331 OA
ATOM     27  C   UNL     1       7.427   6.624  22.297  0.00  0.00    +0.179 C 
ATOM     28  C   UNL     1       5.984   6.743  22.816  0.00  0.00    +0.177 C 
ATOM     29  C   UNL     1       5.636   5.563  23.734  0.00  0.00    +0.180 C 
ATOM     30  C   UNL     1       5.922   4.228  23.021  0.00  0.00    +0.214 C 
BRANCH  29  31
ATOM     31  O   UNL     1       6.294   5.709  24.989  0.00  0.00    -0.386 OA
ATOM     32  H   UNL     1       6.415   6.655  25.190  0.00  0.00    +0.210 HD
ENDBRANCH  29  31
BRANCH  30  33
ATOM     33  O   UNL     1       4.882   4.013  22.046  0.00  0.00    -0.383 OA
ATOM     34  H   UNL     1       4.171   4.657  22.252  0.00  0.00    +0.210 HD
ENDBRANCH  30  33
BRANCH  28  35
ATOM     35  O   UNL     1       5.098   6.737  21.681  0.00  0.00    -0.386 OA
ATOM     36  H   UNL     1       5.577   6.325  20.936  0.00  0.00    +0.210 HD
ENDBRANCH  28  35
BRANCH  27  37
ATOM     37  C   UNL     1       8.495   6.890  23.377  0.00  0.00    +0.190 C 
BRANCH  37  38
ATOM     38  O   UNL     1       9.745   6.288  23.047  0.00  0.00    -0.392 OA
ATOM     39  H   UNL     1       9.673   5.332  23.211  0.00  0.00    +0.210 HD
ENDBRANCH  37  38
ENDBRANCH  27  37
ENDBRANCH  24  25
ENDBRANCH   7  24
BRANCH   1  40
ATOM     40  O   UNL     1       6.062  -2.944  26.413  0.00  0.00    -0.453 OA
BRANCH  40  44
ATOM     41  C   UNL     1       5.907  -6.140  26.445  0.00  0.00    +0.041 C 
ATOM     42  C   UNL     1       4.482  -5.619  26.295  0.00  0.00    +0.150 C 
ATOM     43  O   UNL     1       4.366  -4.351  25.666  0.00  0.00    -0.334 OA
ATOM     44  C   UNL     1       4.667  -3.148  26.366  0.00  0.00    +0.339 C 
ATOM     45  C   UNL     1       3.957  -3.098  27.737  0.00  0.00    +0.214 C 
ATOM     46  C   UNL     1       4.004  -4.441  28.480  0.00  0.00    +0.180 C 
ATOM     47  C   UNL     1       3.605  -5.591  27.538  0.00  0.00    +0.174 C 
BRANCH  47  48
ATOM     48  O   UNL     1       2.248  -5.371  27.076  0.00  0.00    -0.387 OA
ATOM     49  H   UNL     1       1.725  -5.057  27.833  0.00  0.00    +0.210 HD
ENDBRANCH  47  48
BRANCH  46  50
ATOM     50  O   UNL     1       5.277  -4.667  29.090  0.00  0.00    -0.386 OA
ATOM     51  H   UNL     1       5.439  -5.624  29.175  0.00  0.00    +0.210 HD
ENDBRANCH  46  50
BRANCH  45  52
ATOM     52  O   UNL     1       4.393  -2.007  28.548  0.00  0.00    -0.383 OA
ATOM     53  H   UNL     1       3.980  -1.198  28.198  0.00  0.00    +0.210 HD
ENDBRANCH  45  52
ENDBRANCH  40  44
ENDBRANCH   1  40
TORSDOF 16
ENDMDL
MODEL 3
REMARK VINA RESULT:      -6.9      2.580     10.400
REMARK  Name = 
REMARK  17 active torsions:
REMARK  status: ('A' for Active; 'I' for Inactive)
REMARK    1  A    between atoms: C_1  and  C_2
REMARK    2  A    between atoms: C_4  and  O_53
REMARK    3  A    between atoms: C_6  and  O_52
REMARK    4  A    between atoms: C_8  and  O_51
REMARK    5  A    between atoms: C_10  and  O_13
REMARK    6  A    between atoms: O_13  and  C_14
REMARK    7  A    between atoms: C_15  and  C_43
REMARK    8  A    between atoms: C_19  and  O_26
REMARK    9  A    between atoms: C_21  and  O_25
REMARK   10  A    between atoms: O_26  and  C_27
REMARK   11  A    between atoms: C_29  and  O_42
REMARK   12  A    between atoms: C_31  and  O_41
REMARK   13  A    between atoms: C_33  and  O_40
REMARK   14  A    between atoms: C_35  and  C_38
REMARK   15  A    between atoms: C_38  and  O_39
REMARK   16  A    between atoms: C_45  and  O_50
REMARK   17  A    between atoms: C_46  and  O_49
REMARK                            x       y       z     vdW  Elec       q    Type
REMARK                         _______ _______ _______ _____ _____    ______ ____
ROOT
ATOM      1  C   UNL     1       6.203  -2.387  25.517  0.00  0.00    +0.214 A 
ATOM      2  C   UNL     1       6.342  -1.176  26.409  0.00  0.00    +0.238 A 
ATOM      3  O   UNL     1       6.073  -1.258  27.596  0.00  0.00    -0.283 OA
ATOM      4  C   UNL     1       6.775   0.103  25.784  0.00  0.00    +0.109 A 
ATOM      5  C   UNL     1       7.220   0.046  24.474  0.00  0.00    +0.147 A 
ATOM      6  C   UNL     1       7.608   1.215  23.800  0.00  0.00    +0.093 A 
ATOM      7  C   UNL     1       7.559   2.458  24.437  0.00  0.00    +0.131 A 
ATOM      8  C   UNL     1       7.156   2.516  25.773  0.00  0.00    +0.092 A 
ATOM      9  O   UNL     1       7.336  -1.130  23.773  0.00  0.00    -0.451 OA
ATOM     10  C   UNL     1       6.752   1.349  26.438  0.00  0.00    +0.135 A 
ATOM     11  C   UNL     1       6.757  -2.311  24.254  0.00  0.00    +0.181 A 
ENDROOT
BRANCH  11  12
ATOM     12  C   UNL     1       6.806  -3.354  23.159  0.00  0.00    +0.025 A 
ATOM     13  C   UNL     1       7.482  -4.566  23.295  0.00  0.00    +0.015 A 
ATOM     14  C   UNL     1       7.173  -5.686  22.510  0.00  0.00    +0.050 A 
ATOM     15  C   UNL     1       6.445  -5.507  21.360  0.00  0.00    +0.158 A 
ATOM     16  C   UNL     1       6.084  -4.216  20.998  0.00  0.00    +0.159 A 
ATOM     17  C   UNL     1       6.211  -3.151  21.902  0.00  0.00    +0.060 A 
BRANCH  16  18
ATOM     18  O   UNL     1       5.653  -4.020  19.717  0.00  0.00    -0.503 OA
ATOM     19  H   UNL     1       5.819  -3.079  19.518  0.00  0.00    +0.292 HD
ENDBRANCH  16  18
BRANCH  15  20
ATOM     20  O   UNL     1       6.174  -6.572  20.561  0.00  0.00    -0.503 OA
ATOM     21  H   UNL     1       6.394  -7.360  21.094  0.00  0.00    +0.292 HD
ENDBRANCH  15  20
ENDBRANCH  11  12
BRANCH  10  22
ATOM     22  O   UNL     1       6.325   1.457  27.733  0.00  0.00    -0.506 OA
ATOM     23  H   UNL     1       6.268   0.581  28.151  0.00  0.00    +0.292 HD
ENDBRANCH  10  22
BRANCH   7  24
ATOM     24  O   UNL     1       7.902   3.655  23.861  0.00  0.00    -0.461 OA
BRANCH  24  25
ATOM     25  C   UNL     1       7.037   4.056  22.787  0.00  0.00    +0.339 C 
ATOM     26  O   UNL     1       7.642   4.998  21.896  0.00  0.00    -0.331 OA
ATOM     27  C   UNL     1       7.699   6.366  22.333  0.00  0.00    +0.179 C 
ATOM     28  C   UNL     1       6.290   6.881  22.675  0.00  0.00    +0.177 C 
ATOM     29  C   UNL     1       5.639   6.009  23.757  0.00  0.00    +0.180 C 
ATOM     30  C   UNL     1       5.663   4.527  23.337  0.00  0.00    +0.214 C 
BRANCH  29  31
ATOM     31  O   UNL     1       6.240   6.268  25.023  0.00  0.00    -0.386 OA
ATOM     32  H   UNL     1       5.562   6.237  25.721  0.00  0.00    +0.210 HD
ENDBRANCH  29  31
BRANCH  30  33
ATOM     33  O   UNL     1       4.659   4.337  22.320  0.00  0.00    -0.383 OA
ATOM     34  H   UNL     1       3.861   3.994  22.779  0.00  0.00    +0.210 HD
ENDBRANCH  30  33
BRANCH  28  35
ATOM     35  O   UNL     1       5.490   6.827  21.479  0.00  0.00    -0.386 OA
ATOM     36  H   UNL     1       4.602   6.511  21.733  0.00  0.00    +0.210 HD
ENDBRANCH  28  35
BRANCH  27  37
ATOM     37  C   UNL     1       8.735   6.621  23.445  0.00  0.00    +0.190 C 
BRANCH  37  38
ATOM     38  O   UNL     1       9.968   5.953  23.184  0.00  0.00    -0.392 OA
ATOM     39  H   UNL     1       9.816   4.996  23.264  0.00  0.00    +0.210 HD
ENDBRANCH  37  38
ENDBRANCH  27  37
ENDBRANCH  24  25
ENDBRANCH   7  24
BRANCH   1  40
ATOM     40  O   UNL     1       5.466  -3.370  26.170  0.00  0.00    -0.453 OA
BRANCH  40  44
ATOM     41  C   UNL     1       4.501  -3.867  29.181  0.00  0.00    +0.041 C 
ATOM     42  C   UNL     1       5.314  -5.085  28.759  0.00  0.00    +0.150 C 
ATOM     43  O   UNL     1       6.302  -4.838  27.770  0.00  0.00    -0.334 OA
ATOM     44  C   UNL     1       5.953  -4.674  26.399  0.00  0.00    +0.339 C 
ATOM     45  C   UNL     1       5.023  -5.808  25.913  0.00  0.00    +0.214 C 
ATOM     46  C   UNL     1       3.937  -6.167  26.936  0.00  0.00    +0.180 C 
ATOM     47  C   UNL     1       4.552  -6.333  28.337  0.00  0.00    +0.174 C 
BRANCH  47  48
ATOM     48  O   UNL     1       5.520  -7.411  28.301  0.00  0.00    -0.387 OA
ATOM     49  H   UNL     1       6.090  -7.324  29.083  0.00  0.00    +0.210 HD
ENDBRANCH  47  48
BRANCH  46  50
ATOM     50  O   UNL     1       2.867  -5.219  26.930  0.00  0.00    -0.386 OA
ATOM     51  H   UNL     1       3.177  -4.371  26.561  0.00  0.00    +0.210 HD
ENDBRANCH  46  50
BRANCH  45  52
ATOM     52  O   UNL     1       4.492  -5.569  24.609  0.00  0.00    -0.383 OA
ATOM     53  H   UNL     1       4.459  -4.605  24.478  0.00  0.00    +0.210 HD
ENDBRANCH  45  52
ENDBRANCH  40  44
ENDBRANCH   1  40
TORSDOF 16
ENDMDL
MODEL 4
REMARK VINA RESULT:      -6.7      1.299      1.714
REMARK  Name = 
REMARK  17 active torsions:
REMARK  status: ('A' for Active; 'I' for Inactive)
REMARK    1  A    between atoms: C_1  and  C_2
REMARK    2  A    between atoms: C_4  and  O_53
REMARK    3  A    between atoms: C_6  and  O_52
REMARK    4  A    between atoms: C_8  and  O_51
REMARK    5  A    between atoms: C_10  and  O_13
REMARK    6  A    between atoms: O_13  and  C_14
REMARK    7  A    between atoms: C_15  and  C_43
REMARK    8  A    between atoms: C_19  and  O_26
REMARK    9  A    between atoms: C_21  and  O_25
REMARK   10  A    between atoms: O_26  and  C_27
REMARK   11  A    between atoms: C_29  and  O_42
REMARK   12  A    between atoms: C_31  and  O_41
REMARK   13  A    between atoms: C_33  and  O_40
REMARK   14  A    between atoms: C_35  and  C_38
REMARK   15  A    between atoms: C_38  and  O_39
REMARK   16  A    between atoms: C_45  and  O_50
REMARK   17  A    between atoms: C_46  and  O_49
REMARK                            x       y       z     vdW  Elec       q    Type
REMARK                         _______ _______ _______ _____ _____    ______ ____
ROOT
ATOM      1  C   UNL     1       7.290  -1.383  25.189  0.00  0.00    +0.214 A 
ATOM      2  C   UNL     1       7.649  -2.709  24.562  0.00  0.00    +0.238 A 
ATOM      3  O   UNL     1       8.776  -2.896  24.131  0.00  0.00    -0.283 OA
ATOM      4  C   UNL     1       6.584  -3.742  24.458  0.00  0.00    +0.109 A 
ATOM      5  C   UNL     1       5.398  -3.494  25.129  0.00  0.00    +0.147 A 
ATOM      6  C   UNL     1       4.329  -4.401  25.048  0.00  0.00    +0.093 A 
ATOM      7  C   UNL     1       4.439  -5.573  24.294  0.00  0.00    +0.131 A 
ATOM      8  C   UNL     1       5.649  -5.851  23.654  0.00  0.00    +0.092 A 
ATOM      9  O   UNL     1       5.202  -2.389  25.921  0.00  0.00    -0.451 OA
ATOM     10  C   UNL     1       6.709  -4.935  23.722  0.00  0.00    +0.135 A 
ATOM     11  C   UNL     1       6.097  -1.313  25.882  0.00  0.00    +0.181 A 
ENDROOT
BRANCH  11  12
ATOM     12  C   UNL     1       5.487  -0.149  26.633  0.00  0.00    +0.025 A 
ATOM     13  C   UNL     1       5.376  -0.116  28.023  0.00  0.00    +0.015 A 
ATOM     14  C   UNL     1       5.242   1.085  28.733  0.00  0.00    +0.050 A 
ATOM     15  C   UNL     1       4.865   2.216  28.053  0.00  0.00    +0.158 A 
ATOM     16  C   UNL     1       4.587   2.113  26.698  0.00  0.00    +0.159 A 
ATOM     17  C   UNL     1       4.939   0.964  25.973  0.00  0.00    +0.060 A 
BRANCH  16  18
ATOM     18  O   UNL     1       3.914   3.149  26.113  0.00  0.00    -0.503 OA
ATOM     19  H   UNL     1       3.329   2.746  25.444  0.00  0.00    +0.292 HD
ENDBRANCH  16  18
BRANCH  15  20
ATOM     20  O   UNL     1       4.684   3.381  28.730  0.00  0.00    -0.503 OA
ATOM     21  H   UNL     1       5.100   4.071  28.177  0.00  0.00    +0.292 HD
ENDBRANCH  15  20
ENDBRANCH  11  12
BRANCH  10  22
ATOM     22  O   UNL     1       7.862  -5.228  23.045  0.00  0.00    -0.506 OA
ATOM     23  H   UNL     1       7.710  -5.211  22.084  0.00  0.00    +0.292 HD
ENDBRANCH  10  22
BRANCH   7  24
ATOM     24  O   UNL     1       3.450  -6.510  24.142  0.00  0.00    -0.461 OA
BRANCH  24  25
ATOM     25  C   UNL     1       3.386  -7.471  25.209  0.00  0.00    +0.339 C 
ATOM     26  O   UNL     1       2.900  -8.749  24.789  0.00  0.00    -0.331 OA
ATOM     27  C   UNL     1       1.480  -8.882  24.615  0.00  0.00    +0.179 C 
ATOM     28  C   UNL     1       0.739  -8.498  25.907  0.00  0.00    +0.177 C 
ATOM     29  C   UNL     1       1.087  -7.064  26.329  0.00  0.00    +0.180 C 
ATOM     30  C   UNL     1       2.614  -6.889  26.424  0.00  0.00    +0.214 C 
BRANCH  29  31
ATOM     31  O   UNL     1       0.443  -6.130  25.467  0.00  0.00    -0.386 OA
ATOM     32  H   UNL     1      -0.371  -5.800  25.889  0.00  0.00    +0.210 HD
ENDBRANCH  29  31
BRANCH  30  33
ATOM     33  O   UNL     1       3.063  -7.546  27.626  0.00  0.00    -0.383 OA
ATOM     34  H   UNL     1       2.609  -8.416  27.653  0.00  0.00    +0.210 HD
ENDBRANCH  30  33
BRANCH  28  35
ATOM     35  O   UNL     1       1.148  -9.409  26.945  0.00  0.00    -0.386 OA
ATOM     36  H   UNL     1       1.041  -8.949  27.799  0.00  0.00    +0.210 HD
ENDBRANCH  28  35
BRANCH  27  37
ATOM     37  C   UNL     1       0.939  -8.168  23.360  0.00  0.00    +0.190 C 
BRANCH  37  38
ATOM     38  O   UNL     1       1.840  -8.274  22.259  0.00  0.00    -0.392 OA
ATOM     39  H   UNL     1       2.067  -7.375  21.967  0.00  0.00    +0.210 HD
ENDBRANCH  37  38
ENDBRANCH  27  37
ENDBRANCH  24  25
ENDBRANCH   7  24
BRANCH   1  40
ATOM     40  O   UNL     1       8.267  -0.440  24.887  0.00  0.00    -0.453 OA
BRANCH  40  44
ATOM     41  C   UNL     1      11.243   0.687  24.544  0.00  0.00    +0.041 C 
ATOM     42  C   UNL     1      10.315   1.618  23.774  0.00  0.00    +0.150 C 
ATOM     43  O   UNL     1       8.984   1.685  24.263  0.00  0.00    -0.334 OA
ATOM     44  C   UNL     1       8.048   0.642  24.008  0.00  0.00    +0.339 C 
ATOM     45  C   UNL     1       8.017   0.265  22.510  0.00  0.00    +0.214 C 
ATOM     46  C   UNL     1       9.417   0.199  21.884  0.00  0.00    +0.180 C 
ATOM     47  C   UNL     1      10.234   1.447  22.264  0.00  0.00    +0.174 C 
BRANCH  47  48
ATOM     48  O   UNL     1       9.560   2.625  21.754  0.00  0.00    -0.387 OA
ATOM     49  H   UNL     1       8.711   2.340  21.376  0.00  0.00    +0.210 HD
ENDBRANCH  47  48
BRANCH  46  50
ATOM     50  O   UNL     1      10.096  -1.010  22.227  0.00  0.00    -0.386 OA
ATOM     51  H   UNL     1       9.711  -1.389  23.038  0.00  0.00    +0.210 HD
ENDBRANCH  46  50
BRANCH  45  52
ATOM     52  O   UNL     1       7.244  -0.907  22.249  0.00  0.00    -0.383 OA
ATOM     53  H   UNL     1       6.427  -0.626  21.801  0.00  0.00    +0.210 HD
ENDBRANCH  45  52
ENDBRANCH  40  44
ENDBRANCH   1  40
TORSDOF 16
ENDMDL
MODEL 5
REMARK VINA RESULT:      -6.6      2.433      4.346
REMARK  Name = 
REMARK  17 active torsions:
REMARK  status: ('A' for Active; 'I' for Inactive)
REMARK    1  A    between atoms: C_1  and  C_2
REMARK    2  A    between atoms: C_4  and  O_53
REMARK    3  A    between atoms: C_6  and  O_52
REMARK    4  A    between atoms: C_8  and  O_51
REMARK    5  A    between atoms: C_10  and  O_13
REMARK    6  A    between atoms: O_13  and  C_14
REMARK    7  A    between atoms: C_15  and  C_43
REMARK    8  A    between atoms: C_19  and  O_26
REMARK    9  A    between atoms: C_21  and  O_25
REMARK   10  A    between atoms: O_26  and  C_27
REMARK   11  A    between atoms: C_29  and  O_42
REMARK   12  A    between atoms: C_31  and  O_41
REMARK   13  A    between atoms: C_33  and  O_40
REMARK   14  A    between atoms: C_35  and  C_38
REMARK   15  A    between atoms: C_38  and  O_39
REMARK   16  A    between atoms: C_45  and  O_50
REMARK   17  A    between atoms: C_46  and  O_49
REMARK                            x       y       z     vdW  Elec       q    Type
REMARK                         _______ _______ _______ _____ _____    ______ ____
ROOT
ATOM      1  C   UNL     1       8.524   1.782  25.238  0.00  0.00    +0.214 A 
ATOM      2  C   UNL     1       9.282   0.666  24.561  0.00  0.00    +0.238 A 
ATOM      3  O   UNL     1      10.345   0.898  24.006  0.00  0.00    -0.283 OA
ATOM      4  C   UNL     1       8.674  -0.691  24.564  0.00  0.00    +0.109 A 
ATOM      5  C   UNL     1       7.560  -0.882  25.366  0.00  0.00    +0.147 A 
ATOM      6  C   UNL     1       6.904  -2.122  25.393  0.00  0.00    +0.093 A 
ATOM      7  C   UNL     1       7.362  -3.193  24.619  0.00  0.00    +0.131 A 
ATOM      8  C   UNL     1       8.513  -3.021  23.847  0.00  0.00    +0.092 A 
ATOM      9  O   UNL     1       7.052   0.096  26.186  0.00  0.00    -0.451 OA
ATOM     10  C   UNL     1       9.156  -1.776  23.807  0.00  0.00    +0.135 A 
ATOM     11  C   UNL     1       7.472   1.426  26.060  0.00  0.00    +0.181 A 
ENDROOT
BRANCH  11  12
ATOM     12  C   UNL     1       6.555   2.302  26.886  0.00  0.00    +0.025 A 
ATOM     13  C   UNL     1       6.888   2.759  28.161  0.00  0.00    +0.015 A 
ATOM     14  C   UNL     1       6.286   3.890  28.730  0.00  0.00    +0.050 A 
ATOM     15  C   UNL     1       5.114   4.358  28.189  0.00  0.00    +0.158 A 
ATOM     16  C   UNL     1       4.550   3.663  27.129  0.00  0.00    +0.159 A 
ATOM     17  C   UNL     1       5.276   2.678  26.443  0.00  0.00    +0.060 A 
BRANCH  16  18
ATOM     18  O   UNL     1       3.249   3.940  26.816  0.00  0.00    -0.503 OA
ATOM     19  H   UNL     1       2.752   3.882  27.654  0.00  0.00    +0.292 HD
ENDBRANCH  16  18
BRANCH  15  20
ATOM     20  O   UNL     1       4.490   5.425  28.753  0.00  0.00    -0.503 OA
ATOM     21  H   UNL     1       5.106   6.175  28.643  0.00  0.00    +0.292 HD
ENDBRANCH  15  20
ENDBRANCH  11  12
BRANCH  10  22
ATOM     22  O   UNL     1      10.255  -1.640  23.003  0.00  0.00    -0.506 OA
ATOM     23  H   UNL     1       9.995  -1.360  22.109  0.00  0.00    +0.292 HD
ENDBRANCH  10  22
BRANCH   7  24
ATOM     24  O   UNL     1       6.783  -4.435  24.568  0.00  0.00    -0.461 OA
BRANCH  24  25
ATOM     25  C   UNL     1       5.887  -4.617  23.460  0.00  0.00    +0.339 C 
ATOM     26  O   UNL     1       4.699  -3.827  23.560  0.00  0.00    -0.331 OA
ATOM     27  C   UNL     1       3.670  -4.304  24.443  0.00  0.00    +0.179 C 
ATOM     28  C   UNL     1       3.252  -5.734  24.061  0.00  0.00    +0.177 C 
ATOM     29  C   UNL     1       4.459  -6.682  24.097  0.00  0.00    +0.180 C 
ATOM     30  C   UNL     1       5.603  -6.126  23.228  0.00  0.00    +0.214 C 
BRANCH  29  31
ATOM     31  O   UNL     1       4.828  -6.954  25.446  0.00  0.00    -0.386 OA
ATOM     32  H   UNL     1       5.473  -6.290  25.751  0.00  0.00    +0.210 HD
ENDBRANCH  29  31
BRANCH  30  33
ATOM     33  O   UNL     1       5.251  -6.331  21.845  0.00  0.00    -0.383 OA
ATOM     34  H   UNL     1       5.028  -5.447  21.482  0.00  0.00    +0.210 HD
ENDBRANCH  30  33
BRANCH  28  35
ATOM     35  O   UNL     1       2.715  -5.702  22.725  0.00  0.00    -0.386 OA
ATOM     36  H   UNL     1       2.584  -6.627  22.439  0.00  0.00    +0.210 HD
ENDBRANCH  28  35
BRANCH  27  37
ATOM     37  C   UNL     1       4.008  -4.139  25.938  0.00  0.00    +0.190 C 
BRANCH  37  38
ATOM     38  O   UNL     1       3.112  -4.873  26.769  0.00  0.00    -0.392 OA
ATOM     39  H   UNL     1       3.520  -4.965  27.646  0.00  0.00    +0.210 HD
ENDBRANCH  37  38
ENDBRANCH  27  37
ENDBRANCH  24  25
ENDBRANCH   7  24
BRANCH   1  40
ATOM     40  O   UNL     1       9.040   3.011  24.840  0.00  0.00    -0.453 OA
BRANCH  40  44
ATOM     41  C   UNL     1       7.407   5.657  25.601  0.00  0.00    +0.041 C 
ATOM     42  C   UNL     1       7.465   5.582  24.079  0.00  0.00    +0.150 C 
ATOM     43  O   UNL     1       7.575   4.272  23.543  0.00  0.00    -0.334 OA
ATOM     44  C   UNL     1       8.812   3.566  23.563  0.00  0.00    +0.339 C 
ATOM     45  C   UNL     1       9.968   4.434  23.017  0.00  0.00    +0.214 C 
ATOM     46  C   UNL     1       9.912   5.883  23.521  0.00  0.00    +0.180 C 
ATOM     47  C   UNL     1       8.489   6.451  23.366  0.00  0.00    +0.174 C 
BRANCH  47  48
ATOM     48  O   UNL     1       8.129   6.441  21.962  0.00  0.00    -0.387 OA
ATOM     49  H   UNL     1       8.582   5.690  21.545  0.00  0.00    +0.210 HD
ENDBRANCH  47  48
BRANCH  46  50
ATOM     50  O   UNL     1      10.391   5.998  24.862  0.00  0.00    -0.386 OA
ATOM     51  H   UNL     1      10.846   6.853  24.979  0.00  0.00    +0.210 HD
ENDBRANCH  46  50
BRANCH  45  52
ATOM     52  O   UNL     1      11.250   3.836  23.209  0.00  0.00    -0.383 OA
ATOM     53  H   UNL     1      11.845   4.523  23.558  0.00  0.00    +0.210 HD
ENDBRANCH  45  52
ENDBRANCH  40  44
ENDBRANCH   1  40
TORSDOF 16
ENDMDL
MODEL 6
REMARK VINA RESULT:      -6.6      2.691     10.445
REMARK  Name = 
REMARK  17 active torsions:
REMARK  status: ('A' for Active; 'I' for Inactive)
REMARK    1  A    between atoms: C_1  and  C_2
REMARK    2  A    between atoms: C_4  and  O_53
REMARK    3  A    between atoms: C_6  and  O_52
REMARK    4  A    between atoms: C_8  and  O_51
REMARK    5  A    between atoms: C_10  and  O_13
REMARK    6  A    between atoms: O_13  and  C_14
REMARK    7  A    between atoms: C_15  and  C_43
REMARK    8  A    between atoms: C_19  and  O_26
REMARK    9  A    between atoms: C_21  and  O_25
REMARK   10  A    between atoms: O_26  and  C_27
REMARK   11  A    between atoms: C_29  and  O_42
REMARK   12  A    between atoms: C_31  and  O_41
REMARK   13  A    between atoms: C_33  and  O_40
REMARK   14  A    between atoms: C_35  and  C_38
REMARK   15  A    between atoms: C_38  and  O_39
REMARK   16  A    between atoms: C_45  and  O_50
REMARK   17  A    between atoms: C_46  and  O_49
REMARK                            x       y       z     vdW  Elec       q    Type
REMARK                         _______ _______ _______ _____ _____    ______ ____
ROOT
ATOM      1  C   UNL     1       5.529  -2.109  26.009  0.00  0.00    +0.214 A 
ATOM      2  C   UNL     1       5.297  -0.876  26.849  0.00  0.00    +0.238 A 
ATOM      3  O   UNL     1       4.941  -0.987  28.011  0.00  0.00    -0.283 OA
ATOM      4  C   UNL     1       5.480   0.451  26.203  0.00  0.00    +0.109 A 
ATOM      5  C   UNL     1       6.051   0.466  24.942  0.00  0.00    +0.147 A 
ATOM      6  C   UNL     1       6.220   1.674  24.249  0.00  0.00    +0.093 A 
ATOM      7  C   UNL     1       5.823   2.888  24.817  0.00  0.00    +0.131 A 
ATOM      8  C   UNL     1       5.292   2.885  26.108  0.00  0.00    +0.092 A 
ATOM      9  O   UNL     1       6.502  -0.668  24.311  0.00  0.00    -0.451 OA
ATOM     10  C   UNL     1       5.107   1.675  26.792  0.00  0.00    +0.135 A 
ATOM     11  C   UNL     1       6.170  -1.938  24.796  0.00  0.00    +0.181 A 
ENDROOT
BRANCH  11  12
ATOM     12  C   UNL     1       6.564  -2.970  23.762  0.00  0.00    +0.025 A 
ATOM     13  C   UNL     1       7.570  -3.912  23.974  0.00  0.00    +0.015 A 
ATOM     14  C   UNL     1       7.638  -5.109  23.249  0.00  0.00    +0.050 A 
ATOM     15  C   UNL     1       6.924  -5.216  22.081  0.00  0.00    +0.158 A 
ATOM     16  C   UNL     1       6.201  -4.115  21.643  0.00  0.00    +0.159 A 
ATOM     17  C   UNL     1       5.972  -3.019  22.488  0.00  0.00    +0.060 A 
BRANCH  16  18
ATOM     18  O   UNL     1       5.768  -4.122  20.347  0.00  0.00    -0.503 OA
ATOM     19  H   UNL     1       6.290  -3.439  19.886  0.00  0.00    +0.292 HD
ENDBRANCH  16  18
BRANCH  15  20
ATOM     20  O   UNL     1       7.011  -6.351  21.338  0.00  0.00    -0.503 OA
ATOM     21  H   UNL     1       7.730  -6.188  20.697  0.00  0.00    +0.292 HD
ENDBRANCH  15  20
ENDBRANCH  11  12
BRANCH  10  22
ATOM     22  O   UNL     1       4.543   1.714  28.038  0.00  0.00    -0.506 OA
ATOM     23  H   UNL     1       4.302   0.820  28.335  0.00  0.00    +0.292 HD
ENDBRANCH  10  22
BRANCH   7  24
ATOM     24  O   UNL     1       5.935   4.116  24.216  0.00  0.00    -0.461 OA
BRANCH  24  25
ATOM     25  C   UNL     1       6.721   5.062  24.959  0.00  0.00    +0.339 C 
ATOM     26  O   UNL     1       6.712   6.374  24.390  0.00  0.00    -0.331 OA
ATOM     27  C   UNL     1       7.559   6.597  23.251  0.00  0.00    +0.179 C 
ATOM     28  C   UNL     1       9.018   6.240  23.585  0.00  0.00    +0.177 C 
ATOM     29  C   UNL     1       9.129   4.781  24.047  0.00  0.00    +0.180 C 
ATOM     30  C   UNL     1       8.152   4.510  25.206  0.00  0.00    +0.214 C 
BRANCH  29  31
ATOM     31  O   UNL     1       8.977   3.902  22.936  0.00  0.00    -0.386 OA
ATOM     32  H   UNL     1       8.131   3.423  23.008  0.00  0.00    +0.210 HD
ENDBRANCH  29  31
BRANCH  30  33
ATOM     33  O   UNL     1       8.692   5.119  26.396  0.00  0.00    -0.383 OA
ATOM     34  H   UNL     1       8.577   6.088  26.288  0.00  0.00    +0.210 HD
ENDBRANCH  30  33
BRANCH  28  35
ATOM     35  O   UNL     1       9.459   7.108  24.647  0.00  0.00    -0.386 OA
ATOM     36  H   UNL     1       8.663   7.490  25.064  0.00  0.00    +0.210 HD
ENDBRANCH  28  35
BRANCH  27  37
ATOM     37  C   UNL     1       7.045   5.938  21.955  0.00  0.00    +0.190 C 
BRANCH  37  38
ATOM     38  O   UNL     1       5.622   5.979  21.868  0.00  0.00    -0.392 OA
ATOM     39  H   UNL     1       5.380   6.609  21.168  0.00  0.00    +0.210 HD
ENDBRANCH  37  38
ENDBRANCH  27  37
ENDBRANCH  24  25
ENDBRANCH   7  24
BRANCH   1  40
ATOM     40  O   UNL     1       4.980  -3.220  26.642  0.00  0.00    -0.453 OA
BRANCH  40  44
ATOM     41  C   UNL     1       4.048  -4.184  29.548  0.00  0.00    +0.041 C 
ATOM     42  C   UNL     1       5.038  -5.218  29.023  0.00  0.00    +0.150 C 
ATOM     43  O   UNL     1       5.995  -4.723  28.100  0.00  0.00    -0.334 OA
ATOM     44  C   UNL     1       5.649  -4.458  26.744  0.00  0.00    +0.339 C 
ATOM     45  C   UNL     1       4.904  -5.652  26.107  0.00  0.00    +0.214 C 
ATOM     46  C   UNL     1       3.865  -6.276  27.049  0.00  0.00    +0.180 C 
ATOM     47  C   UNL     1       4.474  -6.507  28.444  0.00  0.00    +0.174 C 
BRANCH  47  48
ATOM     48  O   UNL     1       5.590  -7.424  28.323  0.00  0.00    -0.387 OA
ATOM     49  H   UNL     1       6.409  -6.909  28.412  0.00  0.00    +0.210 HD
ENDBRANCH  47  48
BRANCH  46  50
ATOM     50  O   UNL     1       2.668  -5.497  27.111  0.00  0.00    -0.386 OA
ATOM     51  H   UNL     1       2.750  -4.716  26.533  0.00  0.00    +0.210 HD
ENDBRANCH  46  50
BRANCH  45  52
ATOM     52  O   UNL     1       4.364  -5.348  24.820  0.00  0.00    -0.383 OA
ATOM     53  H   UNL     1       4.904  -4.633  24.438  0.00  0.00    +0.210 HD
ENDBRANCH  45  52
ENDBRANCH  40  44
ENDBRANCH   1  40
TORSDOF 16
ENDMDL
MODEL 7
REMARK VINA RESULT:      -6.5      2.756     10.164
REMARK  Name = 
REMARK  17 active torsions:
REMARK  status: ('A' for Active; 'I' for Inactive)
REMARK    1  A    between atoms: C_1  and  C_2
REMARK    2  A    between atoms: C_4  and  O_53
REMARK    3  A    between atoms: C_6  and  O_52
REMARK    4  A    between atoms: C_8  and  O_51
REMARK    5  A    between atoms: C_10  and  O_13
REMARK    6  A    between atoms: O_13  and  C_14
REMARK    7  A    between atoms: C_15  and  C_43
REMARK    8  A    between atoms: C_19  and  O_26
REMARK    9  A    between atoms: C_21  and  O_25
REMARK   10  A    between atoms: O_26  and  C_27
REMARK   11  A    between atoms: C_29  and  O_42
REMARK   12  A    between atoms: C_31  and  O_41
REMARK   13  A    between atoms: C_33  and  O_40
REMARK   14  A    between atoms: C_35  and  C_38
REMARK   15  A    between atoms: C_38  and  O_39
REMARK   16  A    between atoms: C_45  and  O_50
REMARK   17  A    between atoms: C_46  and  O_49
REMARK                            x       y       z     vdW  Elec       q    Type
REMARK                         _______ _______ _______ _____ _____    ______ ____
ROOT
ATOM      1  C   UNL     1       5.036  -1.950  26.254  0.00  0.00    +0.214 A 
ATOM      2  C   UNL     1       4.072  -0.810  26.480  0.00  0.00    +0.238 A 
ATOM      3  O   UNL     1       2.925  -1.038  26.828  0.00  0.00    -0.283 OA
ATOM      4  C   UNL     1       4.559   0.573  26.226  0.00  0.00    +0.109 A 
ATOM      5  C   UNL     1       5.917   0.733  26.004  0.00  0.00    +0.147 A 
ATOM      6  C   UNL     1       6.449   2.000  25.718  0.00  0.00    +0.093 A 
ATOM      7  C   UNL     1       5.623   3.127  25.656  0.00  0.00    +0.131 A 
ATOM      8  C   UNL     1       4.261   2.979  25.926  0.00  0.00    +0.092 A 
ATOM      9  O   UNL     1       6.814  -0.304  26.075  0.00  0.00    -0.451 OA
ATOM     10  C   UNL     1       3.729   1.710  26.194  0.00  0.00    +0.135 A 
ATOM     11  C   UNL     1       6.373  -1.632  26.113  0.00  0.00    +0.181 A 
ENDROOT
BRANCH  11  12
ATOM     12  C   UNL     1       7.563  -2.544  25.909  0.00  0.00    +0.025 A 
ATOM     13  C   UNL     1       7.848  -3.620  26.749  0.00  0.00    +0.015 A 
ATOM     14  C   UNL     1       8.641  -4.700  26.336  0.00  0.00    +0.050 A 
ATOM     15  C   UNL     1       9.436  -4.551  25.227  0.00  0.00    +0.158 A 
ATOM     16  C   UNL     1       9.456  -3.320  24.586  0.00  0.00    +0.159 A 
ATOM     17  C   UNL     1       8.498  -2.337  24.881  0.00  0.00    +0.060 A 
BRANCH  16  18
ATOM     18  O   UNL     1      10.471  -3.088  23.701  0.00  0.00    -0.503 OA
ATOM     19  H   UNL     1      10.089  -3.222  22.813  0.00  0.00    +0.292 HD
ENDBRANCH  16  18
BRANCH  15  20
ATOM     20  O   UNL     1      10.247  -5.570  24.836  0.00  0.00    -0.503 OA
ATOM     21  H   UNL     1      11.121  -5.369  25.223  0.00  0.00    +0.292 HD
ENDBRANCH  15  20
ENDBRANCH  11  12
BRANCH  10  22
ATOM     22  O   UNL     1       2.382   1.605  26.411  0.00  0.00    -0.506 OA
ATOM     23  H   UNL     1       2.075   0.698  26.237  0.00  0.00    +0.292 HD
ENDBRANCH  10  22
BRANCH   7  24
ATOM     24  O   UNL     1       6.045   4.400  25.371  0.00  0.00    -0.461 OA
BRANCH  24  25
ATOM     25  C   UNL     1       5.859   4.785  23.999  0.00  0.00    +0.339 C 
ATOM     26  O   UNL     1       6.774   4.145  23.105  0.00  0.00    -0.331 OA
ATOM     27  C   UNL     1       8.109   4.674  23.049  0.00  0.00    +0.179 C 
ATOM     28  C   UNL     1       8.081   6.173  22.701  0.00  0.00    +0.177 C 
ATOM     29  C   UNL     1       7.247   6.954  23.725  0.00  0.00    +0.180 C 
ATOM     30  C   UNL     1       5.845   6.331  23.860  0.00  0.00    +0.214 C 
BRANCH  29  31
ATOM     31  O   UNL     1       7.958   7.066  24.954  0.00  0.00    -0.386 OA
ATOM     32  H   UNL     1       8.893   7.278  24.775  0.00  0.00    +0.210 HD
ENDBRANCH  29  31
BRANCH  30  33
ATOM     33  O   UNL     1       5.082   6.692  22.691  0.00  0.00    -0.383 OA
ATOM     34  H   UNL     1       5.256   7.644  22.530  0.00  0.00    +0.210 HD
ENDBRANCH  30  33
BRANCH  28  35
ATOM     35  O   UNL     1       7.488   6.318  21.397  0.00  0.00    -0.386 OA
ATOM     36  H   UNL     1       7.130   5.448  21.139  0.00  0.00    +0.210 HD
ENDBRANCH  28  35
BRANCH  27  37
ATOM     37  C   UNL     1       8.960   4.346  24.292  0.00  0.00    +0.190 C 
BRANCH  37  38
ATOM     38  O   UNL     1       9.496   3.025  24.235  0.00  0.00    -0.392 OA
ATOM     39  H   UNL     1      10.462   3.095  24.152  0.00  0.00    +0.210 HD
ENDBRANCH  37  38
ENDBRANCH  27  37
ENDBRANCH  24  25
ENDBRANCH   7  24
BRANCH   1  40
ATOM     40  O   UNL     1       4.336  -3.151  26.188  0.00  0.00    -0.453 OA
BRANCH  40  44
ATOM     41  C   UNL     1       5.115  -6.137  27.036  0.00  0.00    +0.041 C 
ATOM     42  C   UNL     1       4.783  -6.161  25.548  0.00  0.00    +0.150 C 
ATOM     43  O   UNL     1       5.009  -4.940  24.860  0.00  0.00    -0.334 OA
ATOM     44  C   UNL     1       4.107  -3.844  24.980  0.00  0.00    +0.339 C 
ATOM     45  C   UNL     1       2.644  -4.289  24.755  0.00  0.00    +0.214 C 
ATOM     46  C   UNL     1       2.316  -5.622  25.440  0.00  0.00    +0.180 C 
ATOM     47  C   UNL     1       3.407  -6.665  25.138  0.00  0.00    +0.174 C 
BRANCH  47  48
ATOM     48  O   UNL     1       3.463  -6.887  23.707  0.00  0.00    -0.387 OA
ATOM     49  H   UNL     1       4.297  -7.343  23.510  0.00  0.00    +0.210 HD
ENDBRANCH  47  48
BRANCH  46  50
ATOM     50  O   UNL     1       2.103  -5.461  26.843  0.00  0.00    -0.386 OA
ATOM     51  H   UNL     1       2.959  -5.469  27.312  0.00  0.00    +0.210 HD
ENDBRANCH  46  50
BRANCH  45  52
ATOM     52  O   UNL     1       1.699  -3.265  25.066  0.00  0.00    -0.383 OA
ATOM     53  H   UNL     1       1.606  -3.236  26.035  0.00  0.00    +0.210 HD
ENDBRANCH  45  52
ENDBRANCH  40  44
ENDBRANCH   1  40
TORSDOF 16
ENDMDL
MODEL 8
REMARK VINA RESULT:      -6.5      3.122      4.530
REMARK  Name = 
REMARK  17 active torsions:
REMARK  status: ('A' for Active; 'I' for Inactive)
REMARK    1  A    between atoms: C_1  and  C_2
REMARK    2  A    between atoms: C_4  and  O_53
REMARK    3  A    between atoms: C_6  and  O_52
REMARK    4  A    between atoms: C_8  and  O_51
REMARK    5  A    between atoms: C_10  and  O_13
REMARK    6  A    between atoms: O_13  and  C_14
REMARK    7  A    between atoms: C_15  and  C_43
REMARK    8  A    between atoms: C_19  and  O_26
REMARK    9  A    between atoms: C_21  and  O_25
REMARK   10  A    between atoms: O_26  and  C_27
REMARK   11  A    between atoms: C_29  and  O_42
REMARK   12  A    between atoms: C_31  and  O_41
REMARK   13  A    between atoms: C_33  and  O_40
REMARK   14  A    between atoms: C_35  and  C_38
REMARK   15  A    between atoms: C_38  and  O_39
REMARK   16  A    between atoms: C_45  and  O_50
REMARK   17  A    between atoms: C_46  and  O_49
REMARK                            x       y       z     vdW  Elec       q    Type
REMARK                         _______ _______ _______ _____ _____    ______ ____
ROOT
ATOM      1  C   UNL     1       6.701   2.053  24.877  0.00  0.00    +0.214 A 
ATOM      2  C   UNL     1       7.722   0.945  24.976  0.00  0.00    +0.238 A 
ATOM      3  O   UNL     1       8.912   1.214  25.032  0.00  0.00    -0.283 OA
ATOM      4  C   UNL     1       7.230  -0.459  24.963  0.00  0.00    +0.109 A 
ATOM      5  C   UNL     1       5.863  -0.649  25.073  0.00  0.00    +0.147 A 
ATOM      6  C   UNL     1       5.316  -1.940  25.029  0.00  0.00    +0.093 A 
ATOM      7  C   UNL     1       6.137  -3.062  24.880  0.00  0.00    +0.131 A 
ATOM      8  C   UNL     1       7.520  -2.880  24.817  0.00  0.00    +0.092 A 
ATOM      9  O   UNL     1       4.975   0.384  25.255  0.00  0.00    -0.451 OA
ATOM     10  C   UNL     1       8.063  -1.587  24.843  0.00  0.00    +0.135 A 
ATOM     11  C   UNL     1       5.376   1.713  25.074  0.00  0.00    +0.181 A 
ENDROOT
BRANCH  11  12
ATOM     12  C   UNL     1       4.145   2.594  25.067  0.00  0.00    +0.025 A 
ATOM     13  C   UNL     1       3.525   3.040  26.234  0.00  0.00    +0.015 A 
ATOM     14  C   UNL     1       2.700   4.173  26.254  0.00  0.00    +0.050 A 
ATOM     15  C   UNL     1       2.209   4.655  25.066  0.00  0.00    +0.158 A 
ATOM     16  C   UNL     1       2.512   3.971  23.898  0.00  0.00    +0.159 A 
ATOM     17  C   UNL     1       3.508   2.983  23.877  0.00  0.00    +0.060 A 
BRANCH  16  18
ATOM     18  O   UNL     1       1.769   4.261  22.788  0.00  0.00    -0.503 OA
ATOM     19  H   UNL     1       1.015   3.642  22.799  0.00  0.00    +0.292 HD
ENDBRANCH  16  18
BRANCH  15  20
ATOM     20  O   UNL     1       1.370   5.725  25.068  0.00  0.00    -0.503 OA
ATOM     21  H   UNL     1       1.765   6.366  24.446  0.00  0.00    +0.292 HD
ENDBRANCH  15  20
ENDBRANCH  11  12
BRANCH  10  22
ATOM     22  O   UNL     1       9.420  -1.453  24.736  0.00  0.00    -0.506 OA
ATOM     23  H   UNL     1       9.859  -2.317  24.815  0.00  0.00    +0.292 HD
ENDBRANCH  10  22
BRANCH   7  24
ATOM     24  O   UNL     1       5.698  -4.359  24.812  0.00  0.00    -0.461 OA
BRANCH  24  25
ATOM     25  C   UNL     1       6.249  -5.216  25.826  0.00  0.00    +0.339 C 
ATOM     26  O   UNL     1       5.979  -6.602  25.600  0.00  0.00    -0.331 OA
ATOM     27  C   UNL     1       4.667  -7.077  25.944  0.00  0.00    +0.179 C 
ATOM     28  C   UNL     1       4.352  -6.771  27.418  0.00  0.00    +0.177 C 
ATOM     29  C   UNL     1       4.459  -5.266  27.697  0.00  0.00    +0.180 C 
ATOM     30  C   UNL     1       5.830  -4.732  27.240  0.00  0.00    +0.214 C 
BRANCH  29  31
ATOM     31  O   UNL     1       3.346  -4.582  27.128  0.00  0.00    -0.386 OA
ATOM     32  H   UNL     1       3.137  -4.963  26.255  0.00  0.00    +0.210 HD
ENDBRANCH  29  31
BRANCH  30  33
ATOM     33  O   UNL     1       6.817  -5.164  28.197  0.00  0.00    -0.383 OA
ATOM     34  H   UNL     1       7.074  -6.076  27.938  0.00  0.00    +0.210 HD
ENDBRANCH  30  33
BRANCH  28  35
ATOM     35  O   UNL     1       5.309  -7.472  28.235  0.00  0.00    -0.386 OA
ATOM     36  H   UNL     1       4.815  -8.110  28.785  0.00  0.00    +0.210 HD
ENDBRANCH  28  35
BRANCH  27  37
ATOM     37  C   UNL     1       3.565  -6.615  24.970  0.00  0.00    +0.190 C 
BRANCH  37  38
ATOM     38  O   UNL     1       3.979  -6.725  23.609  0.00  0.00    -0.392 OA
ATOM     39  H   UNL     1       4.940  -6.867  23.597  0.00  0.00    +0.210 HD
ENDBRANCH  37  38
ENDBRANCH  27  37
ENDBRANCH  24  25
ENDBRANCH   7  24
BRANCH   1  40
ATOM     40  O   UNL     1       7.333   3.248  24.547  0.00  0.00    -0.453 OA
BRANCH  40  44
ATOM     41  C   UNL     1       5.694   5.995  24.483  0.00  0.00    +0.041 C 
ATOM     42  C   UNL     1       6.224   5.752  23.075  0.00  0.00    +0.150 C 
ATOM     43  O   UNL     1       6.424   4.388  22.733  0.00  0.00    -0.334 OA
ATOM     44  C   UNL     1       7.551   3.662  23.215  0.00  0.00    +0.339 C 
ATOM     45  C   UNL     1       8.866   4.440  22.985  0.00  0.00    +0.214 C 
ATOM     46  C   UNL     1       8.735   5.936  23.300  0.00  0.00    +0.180 C 
ATOM     47  C   UNL     1       7.468   6.515  22.644  0.00  0.00    +0.174 C 
BRANCH  47  48
ATOM     48  O   UNL     1       7.568   6.357  21.207  0.00  0.00    -0.387 OA
ATOM     49  H   UNL     1       8.243   5.682  21.029  0.00  0.00    +0.210 HD
ENDBRANCH  47  48
BRANCH  46  50
ATOM     50  O   UNL     1       8.772   6.189  24.706  0.00  0.00    -0.386 OA
ATOM     51  H   UNL     1       9.239   5.464  25.161  0.00  0.00    +0.210 HD
ENDBRANCH  46  50
BRANCH  45  52
ATOM     52  O   UNL     1       9.987   3.839  23.634  0.00  0.00    -0.383 OA
ATOM     53  H   UNL     1      10.542   4.557  23.985  0.00  0.00    +0.210 HD
ENDBRANCH  45  52
ENDBRANCH  40  44
ENDBRANCH   1  40
TORSDOF 16
ENDMDL
MODEL 9
REMARK VINA RESULT:      -6.5      2.689      4.002
REMARK  Name = 
REMARK  17 active torsions:
REMARK  status: ('A' for Active; 'I' for Inactive)
REMARK    1  A    between atoms: C_1  and  C_2
REMARK    2  A    between atoms: C_4  and  O_53
REMARK    3  A    between atoms: C_6  and  O_52
REMARK    4  A    between atoms: C_8  and  O_51
REMARK    5  A    between atoms: C_10  and  O_13
REMARK    6  A    between atoms: O_13  and  C_14
REMARK    7  A    between atoms: C_15  and  C_43
REMARK    8  A    between atoms: C_19  and  O_26
REMARK    9  A    between atoms: C_21  and  O_25
REMARK   10  A    between atoms: O_26  and  C_27
REMARK   11  A    between atoms: C_29  and  O_42
REMARK   12  A    between atoms: C_31  and  O_41
REMARK   13  A    between atoms: C_33  and  O_40
REMARK   14  A    between atoms: C_35  and  C_38
REMARK   15  A    between atoms: C_38  and  O_39
REMARK   16  A    between atoms: C_45  and  O_50
REMARK   17  A    between atoms: C_46  and  O_49
REMARK                            x       y       z     vdW  Elec       q    Type
REMARK                         _______ _______ _______ _____ _____    ______ ____
ROOT
ATOM      1  C   UNL     1       8.287   1.502  25.384  0.00  0.00    +0.214 A 
ATOM      2  C   UNL     1       8.818   0.246  24.736  0.00  0.00    +0.238 A 
ATOM      3  O   UNL     1       9.860   0.280  24.101  0.00  0.00    -0.283 OA
ATOM      4  C   UNL     1       8.014  -0.998  24.868  0.00  0.00    +0.109 A 
ATOM      5  C   UNL     1       6.946  -0.969  25.749  0.00  0.00    +0.147 A 
ATOM      6  C   UNL     1       6.115  -2.090  25.900  0.00  0.00    +0.093 A 
ATOM      7  C   UNL     1       6.349  -3.260  25.172  0.00  0.00    +0.131 A 
ATOM      8  C   UNL     1       7.453  -3.312  24.318  0.00  0.00    +0.092 A 
ATOM      9  O   UNL     1       6.652   0.120  26.533  0.00  0.00    -0.451 OA
ATOM     10  C   UNL     1       8.271  -2.185  24.155  0.00  0.00    +0.135 A 
ATOM     11  C   UNL     1       7.256   1.360  26.293  0.00  0.00    +0.181 A 
ENDROOT
BRANCH  11  12
ATOM     12  C   UNL     1       6.545   2.412  27.116  0.00  0.00    +0.025 A 
ATOM     13  C   UNL     1       6.912   2.730  28.423  0.00  0.00    +0.015 A 
ATOM     14  C   UNL     1       6.582   3.958  29.013  0.00  0.00    +0.050 A 
ATOM     15  C   UNL     1       5.595   4.722  28.442  0.00  0.00    +0.158 A 
ATOM     16  C   UNL     1       4.932   4.225  27.329  0.00  0.00    +0.159 A 
ATOM     17  C   UNL     1       5.426   3.111  26.633  0.00  0.00    +0.060 A 
BRANCH  16  18
ATOM     18  O   UNL     1       3.761   4.830  26.972  0.00  0.00    -0.503 OA
ATOM     19  H   UNL     1       3.947   5.310  26.143  0.00  0.00    +0.292 HD
ENDBRANCH  16  18
BRANCH  15  20
ATOM     20  O   UNL     1       5.227   5.894  29.025  0.00  0.00    -0.503 OA
ATOM     21  H   UNL     1       5.679   5.907  29.891  0.00  0.00    +0.292 HD
ENDBRANCH  15  20
ENDBRANCH  11  12
BRANCH  10  22
ATOM     22  O   UNL     1       9.317  -2.266  23.276  0.00  0.00    -0.506 OA
ATOM     23  H   UNL     1       9.733  -1.395  23.155  0.00  0.00    +0.292 HD
ENDBRANCH  10  22
BRANCH   7  24
ATOM     24  O   UNL     1       5.588  -4.399  25.240  0.00  0.00    -0.461 OA
BRANCH  24  25
ATOM     25  C   UNL     1       6.239  -5.498  25.898  0.00  0.00    +0.339 C 
ATOM     26  O   UNL     1       5.464  -6.700  25.887  0.00  0.00    -0.331 OA
ATOM     27  C   UNL     1       4.392  -6.795  26.839  0.00  0.00    +0.179 C 
ATOM     28  C   UNL     1       4.920  -6.589  28.269  0.00  0.00    +0.177 C 
ATOM     29  C   UNL     1       5.624  -5.231  28.399  0.00  0.00    +0.180 C 
ATOM     30  C   UNL     1       6.711  -5.085  27.318  0.00  0.00    +0.214 C 
BRANCH  29  31
ATOM     31  O   UNL     1       4.662  -4.180  28.408  0.00  0.00    -0.386 OA
ATOM     32  H   UNL     1       4.872  -3.536  27.708  0.00  0.00    +0.210 HD
ENDBRANCH  29  31
BRANCH  30  33
ATOM     33  O   UNL     1       7.831  -5.908  27.699  0.00  0.00    -0.383 OA
ATOM     34  H   UNL     1       8.602  -5.305  27.785  0.00  0.00    +0.210 HD
ENDBRANCH  30  33
BRANCH  28  35
ATOM     35  O   UNL     1       5.863  -7.640  28.553  0.00  0.00    -0.386 OA
ATOM     36  H   UNL     1       5.925  -8.202  27.757  0.00  0.00    +0.210 HD
ENDBRANCH  28  35
BRANCH  27  37
ATOM     37  C   UNL     1       3.178  -5.908  26.497  0.00  0.00    +0.190 C 
BRANCH  37  38
ATOM     38  O   UNL     1       2.936  -5.857  25.092  0.00  0.00    -0.392 OA
ATOM     39  H   UNL     1       1.999  -6.064  24.939  0.00  0.00    +0.210 HD
ENDBRANCH  37  38
ENDBRANCH  27  37
ENDBRANCH  24  25
ENDBRANCH   7  24
BRANCH   1  40
ATOM     40  O   UNL     1       8.952   2.613  24.873  0.00  0.00    -0.453 OA
BRANCH  40  44
ATOM     41  C   UNL     1       8.300   5.521  26.038  0.00  0.00    +0.041 C 
ATOM     42  C   UNL     1       7.931   5.533  24.559  0.00  0.00    +0.150 C 
ATOM     43  O   UNL     1       7.562   4.272  24.020  0.00  0.00    -0.334 OA
ATOM     44  C   UNL     1       8.541   3.287  23.704  0.00  0.00    +0.339 C 
ATOM     45  C   UNL     1       9.691   3.882  22.860  0.00  0.00    +0.214 C 
ATOM     46  C   UNL     1      10.136   5.265  23.353  0.00  0.00    +0.180 C 
ATOM     47  C   UNL     1       8.915   6.171  23.589  0.00  0.00    +0.174 C 
BRANCH  47  48
ATOM     48  O   UNL     1       8.204   6.339  22.337  0.00  0.00    -0.387 OA
ATOM     49  H   UNL     1       7.419   6.882  22.513  0.00  0.00    +0.210 HD
ENDBRANCH  47  48
BRANCH  46  50
ATOM     50  O   UNL     1      10.967   5.174  24.512  0.00  0.00    -0.386 OA
ATOM     51  H   UNL     1      11.165   4.239  24.706  0.00  0.00    +0.210 HD
ENDBRANCH  46  50
BRANCH  45  52
ATOM     52  O   UNL     1      10.784   2.978  22.698  0.00  0.00    -0.383 OA
ATOM     53  H   UNL     1      10.412   2.099  22.508  0.00  0.00    +0.210 HD
ENDBRANCH  45  52
ENDBRANCH  40  44
ENDBRANCH   1  40
TORSDOF 16
ENDMDL
