MODEL 1
REMARK VINA RESULT:      -8.0      0.000      0.000
REMARK  Name = 
REMARK  6 active torsions:
REMARK  status: ('A' for Active; 'I' for Inactive)
REMARK    1  A    between atoms: C_3  and  O_27
REMARK    2  A    between atoms: C_4  and  O_26
REMARK    3  A    between atoms: C_6  and  C_7
REMARK    4  A    between atoms: C_8  and  O_25
REMARK    5  A    between atoms: C_12  and  O_24
REMARK    6  A    between atoms: C_14  and  O_23
REMARK                            x       y       z     vdW  Elec       q    Type
REMARK                         _______ _______ _______ _____ _____    ______ ____
ROOT
ATOM      1  C   UNL     1       7.888  -3.749  25.209  0.00  0.00    +0.181 A 
ATOM      2  O   UNL     1       6.808  -4.037  24.380  0.00  0.00    -0.447 OA
ATOM      3  C   UNL     1       6.014  -5.102  24.707  0.00  0.00    +0.191 A 
ATOM      4  C   UNL     1       6.127  -5.769  25.921  0.00  0.00    +0.117 A 
ATOM      5  C   UNL     1       5.047  -6.545  26.342  0.00  0.00    +0.180 A 
ATOM      6  C   UNL     1       3.978  -6.700  25.460  0.00  0.00    +0.247 A 
ATOM      7  O   UNL     1       2.908  -5.757  25.718  0.00  0.00    -0.309 OA
ATOM      8  S   UNL     1       2.607  -4.573  24.557  0.00  0.00    +0.300 S 
ATOM      9  O   UNL     1       1.535  -5.063  23.711  0.00  0.00    -0.097 OA
ATOM     10  O   UNL     1       2.448  -3.308  25.254  0.00  0.00    -0.097 OA
ATOM     11  O   UNL     1       4.001  -4.451  23.637  0.00  0.00    -0.309 OA
ATOM     12  C   UNL     1       4.301  -6.673  24.131  0.00  0.00    +0.215 A 
ATOM     13  C   UNL     1       7.290  -5.516  26.766  0.00  0.00    +0.238 A 
ATOM     14  O   UNL     1       7.455  -6.194  27.774  0.00  0.00    -0.283 OA
ATOM     15  C   UNL     1       4.947  -5.481  23.875  0.00  0.00    +0.247 A 
ATOM     16  C   UNL     1       8.201  -4.421  26.338  0.00  0.00    +0.208 A 
ENDROOT
BRANCH   1  18
ATOM     17  C   UNL     1       8.737  -1.412  25.522  0.00  0.00    +0.015 A 
ATOM     18  C   UNL     1       8.689  -2.596  24.764  0.00  0.00    +0.025 A 
ATOM     19  C   UNL     1       9.354  -2.649  23.532  0.00  0.00    +0.060 A 
ATOM     20  C   UNL     1      10.035  -1.531  23.071  0.00  0.00    +0.159 A 
ATOM     21  C   UNL     1      10.068  -0.355  23.814  0.00  0.00    +0.158 A 
ATOM     22  C   UNL     1       9.429  -0.289  25.047  0.00  0.00    +0.050 A 
BRANCH  20  23
ATOM     23  O   UNL     1      10.664  -1.591  21.859  0.00  0.00    -0.503 OA
ATOM     24  H   UNL     1      10.046  -1.162  21.234  0.00  0.00    +0.292 HD
ENDBRANCH  20  23
BRANCH  21  25
ATOM     25  O   UNL     1      10.731   0.714  23.278  0.00  0.00    -0.503 OA
ATOM     26  H   UNL     1      10.120   1.197  22.697  0.00  0.00    +0.292 HD
ENDBRANCH  21  25
ENDBRANCH   1  18
BRANCH   5  27
ATOM     27  O   UNL     1       4.960  -7.101  27.585  0.00  0.00    -0.503 OA
ATOM     28  H   UNL     1       5.873  -7.289  27.905  0.00  0.00    +0.292 HD
ENDBRANCH   5  27
BRANCH  12  29
ATOM     29  O   UNL     1       3.407  -7.144  23.209  0.00  0.00    -0.501 OA
ATOM     30  H   UNL     1       3.882  -7.645  22.519  0.00  0.00    +0.292 HD
ENDBRANCH  12  29
BRANCH  16  31
ATOM     31  O   UNL     1       9.288  -4.149  27.149  0.00  0.00    -0.501 OA
ATOM     32  H   UNL     1       9.812  -3.428  26.763  0.00  0.00    +0.292 HD
ENDBRANCH  16  31
TORSDOF 6
ENDMDL
MODEL 2
REMARK VINA RESULT:      -7.9      2.954      4.171
REMARK  Name = 
REMARK  6 active torsions:
REMARK  status: ('A' for Active; 'I' for Inactive)
REMARK    1  A    between atoms: C_3  and  O_27
REMARK    2  A    between atoms: C_4  and  O_26
REMARK    3  A    between atoms: C_6  and  C_7
REMARK    4  A    between atoms: C_8  and  O_25
REMARK    5  A    between atoms: C_12  and  O_24
REMARK    6  A    between atoms: C_14  and  O_23
REMARK                            x       y       z     vdW  Elec       q    Type
REMARK                         _______ _______ _______ _____ _____    ______ ____
ROOT
ATOM      1  C   UNL     1       7.936  -0.904  23.016  0.00  0.00    +0.181 A 
ATOM      2  O   UNL     1       6.930  -1.680  22.449  0.00  0.00    -0.447 OA
ATOM      3  C   UNL     1       7.098  -3.038  22.437  0.00  0.00    +0.191 A 
ATOM      4  C   UNL     1       8.121  -3.667  23.135  0.00  0.00    +0.117 A 
ATOM      5  C   UNL     1       7.984  -5.029  23.407  0.00  0.00    +0.180 A 
ATOM      6  C   UNL     1       6.890  -5.693  22.853  0.00  0.00    +0.247 A 
ATOM      7  O   UNL     1       5.777  -5.788  23.776  0.00  0.00    -0.309 OA
ATOM      8  S   UNL     1       4.376  -4.925  23.407  0.00  0.00    +0.300 S 
ATOM      9  O   UNL     1       3.475  -5.838  22.731  0.00  0.00    -0.097 OA
ATOM     10  O   UNL     1       3.942  -4.259  24.623  0.00  0.00    -0.097 OA
ATOM     11  O   UNL     1       4.832  -3.726  22.330  0.00  0.00    -0.309 OA
ATOM     12  C   UNL     1       6.451  -5.206  21.653  0.00  0.00    +0.215 A 
ATOM     13  C   UNL     1       9.211  -2.863  23.679  0.00  0.00    +0.238 A 
ATOM     14  O   UNL     1      10.176  -3.426  24.184  0.00  0.00    -0.283 OA
ATOM     15  C   UNL     1       6.148  -3.871  21.821  0.00  0.00    +0.247 A 
ATOM     16  C   UNL     1       9.060  -1.386  23.590  0.00  0.00    +0.208 A 
ENDROOT
BRANCH   1  18
ATOM     17  C   UNL     1       8.171   1.339  21.921  0.00  0.00    +0.015 A 
ATOM     18  C   UNL     1       7.669   0.544  22.968  0.00  0.00    +0.025 A 
ATOM     19  C   UNL     1       6.967   1.154  24.016  0.00  0.00    +0.060 A 
ATOM     20  C   UNL     1       6.793   2.530  24.016  0.00  0.00    +0.159 A 
ATOM     21  C   UNL     1       7.304   3.317  22.989  0.00  0.00    +0.158 A 
ATOM     22  C   UNL     1       7.988   2.728  21.931  0.00  0.00    +0.050 A 
BRANCH  20  23
ATOM     23  O   UNL     1       6.122   3.114  25.054  0.00  0.00    -0.503 OA
ATOM     24  H   UNL     1       5.673   3.888  24.659  0.00  0.00    +0.292 HD
ENDBRANCH  20  23
BRANCH  21  25
ATOM     25  O   UNL     1       7.121   4.669  23.076  0.00  0.00    -0.503 OA
ATOM     26  H   UNL     1       6.681   4.868  23.920  0.00  0.00    +0.292 HD
ENDBRANCH  21  25
ENDBRANCH   1  18
BRANCH   5  27
ATOM     27  O   UNL     1       8.825  -5.720  24.231  0.00  0.00    -0.503 OA
ATOM     28  H   UNL     1       9.651  -5.193  24.342  0.00  0.00    +0.292 HD
ENDBRANCH   5  27
BRANCH  12  29
ATOM     29  O   UNL     1       5.626  -5.972  20.875  0.00  0.00    -0.501 OA
ATOM     30  H   UNL     1       5.319  -6.744  21.387  0.00  0.00    +0.292 HD
ENDBRANCH  12  29
BRANCH  16  31
ATOM     31  O   UNL     1      10.069  -0.613  24.133  0.00  0.00    -0.501 OA
ATOM     32  H   UNL     1      10.814  -1.180  24.392  0.00  0.00    +0.292 HD
ENDBRANCH  16  31
TORSDOF 6
ENDMDL
MODEL 3
REMARK VINA RESULT:      -7.7      2.316      3.875
REMARK  Name = 
REMARK  6 active torsions:
REMARK  status: ('A' for Active; 'I' for Inactive)
REMARK    1  A    between atoms: C_3  and  O_27
REMARK    2  A    between atoms: C_4  and  O_26
REMARK    3  A    between atoms: C_6  and  C_7
REMARK    4  A    between atoms: C_8  and  O_25
REMARK    5  A    between atoms: C_12  and  O_24
REMARK    6  A    between atoms: C_14  and  O_23
REMARK                            x       y       z     vdW  Elec       q    Type
REMARK                         _______ _______ _______ _____ _____    ______ ____
ROOT
ATOM      1  C   UNL     1       6.227  -2.963  23.410  0.00  0.00    +0.181 A 
ATOM      2  O   UNL     1       6.031  -3.036  24.786  0.00  0.00    -0.447 OA
ATOM      3  C   UNL     1       5.236  -4.039  25.268  0.00  0.00    +0.191 A 
ATOM      4  C   UNL     1       4.790  -5.084  24.468  0.00  0.00    +0.117 A 
ATOM      5  C   UNL     1       4.350  -6.247  25.100  0.00  0.00    +0.180 A 
ATOM      6  C   UNL     1       4.269  -6.238  26.492  0.00  0.00    +0.247 A 
ATOM      7  O   UNL     1       5.448  -6.803  27.117  0.00  0.00    -0.309 OA
ATOM      8  S   UNL     1       6.440  -5.767  28.002  0.00  0.00    +0.300 S 
ATOM      9  O   UNL     1       6.046  -5.877  29.393  0.00  0.00    -0.097 OA
ATOM     10  O   UNL     1       7.814  -6.048  27.623  0.00  0.00    -0.097 OA
ATOM     11  O   UNL     1       6.096  -4.216  27.470  0.00  0.00    -0.309 OA
ATOM     12  C   UNL     1       3.987  -5.025  27.058  0.00  0.00    +0.215 A 
ATOM     13  C   UNL     1       4.938  -4.985  23.019  0.00  0.00    +0.238 A 
ATOM     14  O   UNL     1       4.433  -5.845  22.306  0.00  0.00    -0.283 OA
ATOM     15  C   UNL     1       4.949  -4.128  26.640  0.00  0.00    +0.247 A 
ATOM     16  C   UNL     1       5.718  -3.827  22.506  0.00  0.00    +0.208 A 
ENDROOT
BRANCH   1  18
ATOM     17  C   UNL     1       6.628  -0.513  23.063  0.00  0.00    +0.015 A 
ATOM     18  C   UNL     1       7.085  -1.841  22.990  0.00  0.00    +0.025 A 
ATOM     19  C   UNL     1       8.347  -2.104  22.440  0.00  0.00    +0.060 A 
ATOM     20  C   UNL     1       9.118  -1.054  21.962  0.00  0.00    +0.159 A 
ATOM     21  C   UNL     1       8.659   0.258  22.020  0.00  0.00    +0.158 A 
ATOM     22  C   UNL     1       7.417   0.540  22.578  0.00  0.00    +0.050 A 
BRANCH  20  23
ATOM     23  O   UNL     1      10.340  -1.326  21.411  0.00  0.00    -0.503 OA
ATOM     24  H   UNL     1      10.313  -0.914  20.525  0.00  0.00    +0.292 HD
ENDBRANCH  20  23
BRANCH  21  25
ATOM     25  O   UNL     1       9.462   1.233  21.498  0.00  0.00    -0.503 OA
ATOM     26  H   UNL     1       9.061   2.099  21.688  0.00  0.00    +0.292 HD
ENDBRANCH  21  25
ENDBRANCH   1  18
BRANCH   5  27
ATOM     27  O   UNL     1       4.057  -7.401  24.432  0.00  0.00    -0.503 OA
ATOM     28  H   UNL     1       3.195  -7.280  23.968  0.00  0.00    +0.292 HD
ENDBRANCH   5  27
BRANCH  12  29
ATOM     29  O   UNL     1       3.558  -4.969  28.356  0.00  0.00    -0.501 OA
ATOM     30  H   UNL     1       4.184  -4.436  28.884  0.00  0.00    +0.292 HD
ENDBRANCH  12  29
BRANCH  16  31
ATOM     31  O   UNL     1       5.894  -3.740  21.137  0.00  0.00    -0.501 OA
ATOM     32  H   UNL     1       6.751  -3.324  20.942  0.00  0.00    +0.292 HD
ENDBRANCH  16  31
TORSDOF 6
ENDMDL
MODEL 4
REMARK VINA RESULT:      -7.5      1.871      2.629
REMARK  Name = 
REMARK  6 active torsions:
REMARK  status: ('A' for Active; 'I' for Inactive)
REMARK    1  A    between atoms: C_3  and  O_27
REMARK    2  A    between atoms: C_4  and  O_26
REMARK    3  A    between atoms: C_6  and  C_7
REMARK    4  A    between atoms: C_8  and  O_25
REMARK    5  A    between atoms: C_12  and  O_24
REMARK    6  A    between atoms: C_14  and  O_23
REMARK                            x       y       z     vdW  Elec       q    Type
REMARK                         _______ _______ _______ _____ _____    ______ ____
ROOT
ATOM      1  C   UNL     1       7.946  -2.383  23.816  0.00  0.00    +0.181 A 
ATOM      2  O   UNL     1       6.557  -2.400  23.893  0.00  0.00    -0.447 OA
ATOM      3  C   UNL     1       5.957  -3.508  24.426  0.00  0.00    +0.191 A 
ATOM      4  C   UNL     1       6.679  -4.510  25.064  0.00  0.00    +0.117 A 
ATOM      5  C   UNL     1       5.988  -5.369  25.919  0.00  0.00    +0.180 A 
ATOM      6  C   UNL     1       4.600  -5.244  25.980  0.00  0.00    +0.247 A 
ATOM      7  O   UNL     1       4.169  -4.414  27.088  0.00  0.00    -0.309 OA
ATOM      8  S   UNL     1       3.448  -2.934  26.726  0.00  0.00    +0.300 S 
ATOM      9  O   UNL     1       2.013  -3.139  26.741  0.00  0.00    -0.097 OA
ATOM     10  O   UNL     1       4.039  -1.935  27.601  0.00  0.00    -0.097 OA
ATOM     11  O   UNL     1       3.917  -2.551  25.164  0.00  0.00    -0.309 OA
ATOM     12  C   UNL     1       3.995  -4.821  24.828  0.00  0.00    +0.215 A 
ATOM     13  C   UNL     1       8.132  -4.532  24.935  0.00  0.00    +0.238 A 
ATOM     14  O   UNL     1       8.759  -5.482  25.390  0.00  0.00    -0.283 OA
ATOM     15  C   UNL     1       4.557  -3.612  24.472  0.00  0.00    +0.247 A 
ATOM     16  C   UNL     1       8.760  -3.366  24.258  0.00  0.00    +0.208 A 
ENDROOT
BRANCH   1  18
ATOM     17  C   UNL     1       8.854  -1.113  21.855  0.00  0.00    +0.015 A 
ATOM     18  C   UNL     1       8.493  -1.155  23.214  0.00  0.00    +0.025 A 
ATOM     19  C   UNL     1       8.729  -0.034  24.021  0.00  0.00    +0.060 A 
ATOM     20  C   UNL     1       9.327   1.091  23.474  0.00  0.00    +0.159 A 
ATOM     21  C   UNL     1       9.698   1.126  22.133  0.00  0.00    +0.158 A 
ATOM     22  C   UNL     1       9.457   0.030  21.312  0.00  0.00    +0.050 A 
BRANCH  20  23
ATOM     23  O   UNL     1       9.568   2.171  24.277  0.00  0.00    -0.503 OA
ATOM     24  H   UNL     1       9.026   2.892  23.898  0.00  0.00    +0.292 HD
ENDBRANCH  20  23
BRANCH  21  25
ATOM     25  O   UNL     1      10.313   2.258  21.675  0.00  0.00    -0.503 OA
ATOM     26  H   UNL     1      10.431   2.179  20.713  0.00  0.00    +0.292 HD
ENDBRANCH  21  25
ENDBRANCH   1  18
BRANCH   5  27
ATOM     27  O   UNL     1       6.603  -6.272  26.736  0.00  0.00    -0.503 OA
ATOM     28  H   UNL     1       7.350  -6.680  26.239  0.00  0.00    +0.292 HD
ENDBRANCH   5  27
BRANCH  12  29
ATOM     29  O   UNL     1       2.646  -4.987  24.675  0.00  0.00    -0.501 OA
ATOM     30  H   UNL     1       2.386  -4.730  23.770  0.00  0.00    +0.292 HD
ENDBRANCH  12  29
BRANCH  16  31
ATOM     31  O   UNL     1      10.140  -3.358  24.160  0.00  0.00    -0.501 OA
ATOM     32  H   UNL     1      10.531  -3.251  25.043  0.00  0.00    +0.292 HD
ENDBRANCH  16  31
TORSDOF 6
ENDMDL
MODEL 5
REMARK VINA RESULT:      -7.3      2.854      4.350
REMARK  Name = 
REMARK  6 active torsions:
REMARK  status: ('A' for Active; 'I' for Inactive)
REMARK    1  A    between atoms: C_3  and  O_27
REMARK    2  A    between atoms: C_4  and  O_26
REMARK    3  A    between atoms: C_6  and  C_7
REMARK    4  A    between atoms: C_8  and  O_25
REMARK    5  A    between atoms: C_12  and  O_24
REMARK    6  A    between atoms: C_14  and  O_23
REMARK                            x       y       z     vdW  Elec       q    Type
REMARK                         _______ _______ _______ _____ _____    ______ ____
ROOT
ATOM      1  C   UNL     1       8.261  -0.054  23.591  0.00  0.00    +0.181 A 
ATOM      2  O   UNL     1       7.008  -0.652  23.503  0.00  0.00    -0.447 OA
ATOM      3  C   UNL     1       6.954  -2.013  23.373  0.00  0.00    +0.191 A 
ATOM      4  C   UNL     1       8.075  -2.819  23.526  0.00  0.00    +0.117 A 
ATOM      5  C   UNL     1       7.874  -4.175  23.787  0.00  0.00    +0.180 A 
ATOM      6  C   UNL     1       6.564  -4.653  23.752  0.00  0.00    +0.247 A 
ATOM      7  O   UNL     1       5.959  -4.703  25.069  0.00  0.00    -0.309 OA
ATOM      8  S   UNL     1       4.680  -3.653  25.385  0.00  0.00    +0.300 S 
ATOM      9  O   UNL     1       3.452  -4.387  25.148  0.00  0.00    -0.097 OA
ATOM     10  O   UNL     1       4.917  -3.056  26.689  0.00  0.00    -0.097 OA
ATOM     11  O   UNL     1       4.792  -2.420  24.257  0.00  0.00    -0.309 OA
ATOM     12  C   UNL     1       5.724  -4.009  22.887  0.00  0.00    +0.215 A 
ATOM     13  C   UNL     1       9.397  -2.201  23.559  0.00  0.00    +0.238 A 
ATOM     14  O   UNL     1      10.392  -2.918  23.567  0.00  0.00    -0.283 OA
ATOM     15  C   UNL     1       5.722  -2.669  23.215  0.00  0.00    +0.247 A 
ATOM     16  C   UNL     1       9.439  -0.715  23.593  0.00  0.00    +0.208 A 
ENDROOT
BRANCH   1  18
ATOM     17  C   UNL     1       8.442   2.046  24.948  0.00  0.00    +0.015 A 
ATOM     18  C   UNL     1       8.213   1.413  23.713  0.00  0.00    +0.025 A 
ATOM     19  C   UNL     1       7.861   2.189  22.600  0.00  0.00    +0.060 A 
ATOM     20  C   UNL     1       7.728   3.563  22.735  0.00  0.00    +0.159 A 
ATOM     21  C   UNL     1       7.939   4.186  23.962  0.00  0.00    +0.158 A 
ATOM     22  C   UNL     1       8.305   3.435  25.073  0.00  0.00    +0.050 A 
BRANCH  20  23
ATOM     23  O   UNL     1       7.368   4.305  21.646  0.00  0.00    -0.503 OA
ATOM     24  H   UNL     1       7.936   3.978  20.920  0.00  0.00    +0.292 HD
ENDBRANCH  20  23
BRANCH  21  25
ATOM     25  O   UNL     1       7.757   5.539  24.024  0.00  0.00    -0.503 OA
ATOM     26  H   UNL     1       8.417   5.913  24.632  0.00  0.00    +0.292 HD
ENDBRANCH  21  25
ENDBRANCH   1  18
BRANCH   5  27
ATOM     27  O   UNL     1       8.878  -5.032  24.132  0.00  0.00    -0.503 OA
ATOM     28  H   UNL     1       9.185  -5.493  23.316  0.00  0.00    +0.292 HD
ENDBRANCH   5  27
BRANCH  12  29
ATOM     29  O   UNL     1       4.541  -4.597  22.529  0.00  0.00    -0.501 OA
ATOM     30  H   UNL     1       3.822  -3.940  22.575  0.00  0.00    +0.292 HD
ENDBRANCH  12  29
BRANCH  16  31
ATOM     31  O   UNL     1      10.685  -0.118  23.658  0.00  0.00    -0.501 OA
ATOM     32  H   UNL     1      11.192  -0.499  24.394  0.00  0.00    +0.292 HD
ENDBRANCH  16  31
TORSDOF 6
ENDMDL
MODEL 6
REMARK VINA RESULT:      -7.2      3.282      4.596
REMARK  Name = 
REMARK  6 active torsions:
REMARK  status: ('A' for Active; 'I' for Inactive)
REMARK    1  A    between atoms: C_3  and  O_27
REMARK    2  A    between atoms: C_4  and  O_26
REMARK    3  A    between atoms: C_6  and  C_7
REMARK    4  A    between atoms: C_8  and  O_25
REMARK    5  A    between atoms: C_12  and  O_24
REMARK    6  A    between atoms: C_14  and  O_23
REMARK                            x       y       z     vdW  Elec       q    Type
REMARK                         _______ _______ _______ _____ _____    ______ ____
ROOT
ATOM      1  C   UNL     1       7.500   0.135  24.686  0.00  0.00    +0.181 A 
ATOM      2  O   UNL     1       7.982  -0.942  23.948  0.00  0.00    -0.447 OA
ATOM      3  C   UNL     1       7.716  -2.204  24.406  0.00  0.00    +0.191 A 
ATOM      4  C   UNL     1       6.831  -2.445  25.449  0.00  0.00    +0.117 A 
ATOM      5  C   UNL     1       6.310  -3.733  25.578  0.00  0.00    +0.180 A 
ATOM      6  C   UNL     1       6.809  -4.722  24.729  0.00  0.00    +0.247 A 
ATOM      7  O   UNL     1       5.976  -4.915  23.558  0.00  0.00    -0.309 OA
ATOM      8  S   UNL     1       6.615  -4.483  22.060  0.00  0.00    +0.300 S 
ATOM      9  O   UNL     1       7.169  -5.684  21.466  0.00  0.00    -0.097 OA
ATOM     10  O   UNL     1       5.590  -3.738  21.348  0.00  0.00    -0.097 OA
ATOM     11  O   UNL     1       7.865  -3.414  22.372  0.00  0.00    -0.309 OA
ATOM     12  C   UNL     1       8.111  -4.565  24.343  0.00  0.00    +0.215 A 
ATOM     13  C   UNL     1       6.369  -1.326  26.264  0.00  0.00    +0.238 A 
ATOM     14  O   UNL     1       5.689  -1.552  27.260  0.00  0.00    -0.283 OA
ATOM     15  C   UNL     1       8.231  -3.330  23.741  0.00  0.00    +0.247 A 
ATOM     16  C   UNL     1       6.757   0.036  25.809  0.00  0.00    +0.208 A 
ENDROOT
BRANCH   1  18
ATOM     17  C   UNL     1       8.993   2.144  24.556  0.00  0.00    +0.015 A 
ATOM     18  C   UNL     1       7.850   1.448  24.120  0.00  0.00    +0.025 A 
ATOM     19  C   UNL     1       6.995   2.051  23.187  0.00  0.00    +0.060 A 
ATOM     20  C   UNL     1       7.278   3.326  22.721  0.00  0.00    +0.159 A 
ATOM     21  C   UNL     1       8.400   4.020  23.165  0.00  0.00    +0.158 A 
ATOM     22  C   UNL     1       9.269   3.432  24.077  0.00  0.00    +0.050 A 
BRANCH  20  23
ATOM     23  O   UNL     1       6.426   3.909  21.825  0.00  0.00    -0.503 OA
ATOM     24  H   UNL     1       5.617   3.361  21.854  0.00  0.00    +0.292 HD
ENDBRANCH  20  23
BRANCH  21  25
ATOM     25  O   UNL     1       8.593   5.285  22.685  0.00  0.00    -0.503 OA
ATOM     26  H   UNL     1       9.515   5.543  22.856  0.00  0.00    +0.292 HD
ENDBRANCH  21  25
ENDBRANCH   1  18
BRANCH   5  27
ATOM     27  O   UNL     1       5.303  -4.055  26.441  0.00  0.00    -0.503 OA
ATOM     28  H   UNL     1       4.495  -4.255  25.913  0.00  0.00    +0.292 HD
ENDBRANCH   5  27
BRANCH  12  29
ATOM     29  O   UNL     1       8.788  -5.625  23.804  0.00  0.00    -0.501 OA
ATOM     30  H   UNL     1       8.257  -6.438  23.907  0.00  0.00    +0.292 HD
ENDBRANCH  12  29
BRANCH  16  31
ATOM     31  O   UNL     1       6.297   1.106  26.554  0.00  0.00    -0.501 OA
ATOM     32  H   UNL     1       6.823   1.191  27.367  0.00  0.00    +0.292 HD
ENDBRANCH  16  31
TORSDOF 6
ENDMDL
MODEL 7
REMARK VINA RESULT:      -7.2      3.748      7.573
REMARK  Name = 
REMARK  6 active torsions:
REMARK  status: ('A' for Active; 'I' for Inactive)
REMARK    1  A    between atoms: C_3  and  O_27
REMARK    2  A    between atoms: C_4  and  O_26
REMARK    3  A    between atoms: C_6  and  C_7
REMARK    4  A    between atoms: C_8  and  O_25
REMARK    5  A    between atoms: C_12  and  O_24
REMARK    6  A    between atoms: C_14  and  O_23
REMARK                            x       y       z     vdW  Elec       q    Type
REMARK                         _______ _______ _______ _____ _____    ______ ____
ROOT
ATOM      1  C   UNL     1       8.174  -1.452  23.185  0.00  0.00    +0.181 A 
ATOM      2  O   UNL     1       7.544  -0.804  24.243  0.00  0.00    -0.447 OA
ATOM      3  C   UNL     1       7.894   0.493  24.500  0.00  0.00    +0.191 A 
ATOM      4  C   UNL     1       8.692   1.233  23.637  0.00  0.00    +0.117 A 
ATOM      5  C   UNL     1       8.662   2.624  23.750  0.00  0.00    +0.180 A 
ATOM      6  C   UNL     1       7.930   3.172  24.804  0.00  0.00    +0.247 A 
ATOM      7  O   UNL     1       6.592   3.558  24.402  0.00  0.00    -0.309 OA
ATOM      8  S   UNL     1       5.297   2.698  25.054  0.00  0.00    +0.300 S 
ATOM      9  O   UNL     1       4.820   3.444  26.203  0.00  0.00    -0.097 OA
ATOM     10  O   UNL     1       4.383   2.395  23.966  0.00  0.00    -0.097 OA
ATOM     11  O   UNL     1       5.922   1.238  25.586  0.00  0.00    -0.309 OA
ATOM     12  C   UNL     1       7.866   2.409  25.937  0.00  0.00    +0.215 A 
ATOM     13  C   UNL     1       9.405   0.548  22.563  0.00  0.00    +0.238 A 
ATOM     14  O   UNL     1      10.206   1.177  21.880  0.00  0.00    -0.283 OA
ATOM     15  C   UNL     1       7.340   1.181  25.593  0.00  0.00    +0.247 A 
ATOM     16  C   UNL     1       9.088  -0.892  22.364  0.00  0.00    +0.208 A 
ENDROOT
BRANCH   1  18
ATOM     17  C   UNL     1       8.250  -3.879  23.808  0.00  0.00    +0.015 A 
ATOM     18  C   UNL     1       7.740  -2.848  22.999  0.00  0.00    +0.025 A 
ATOM     19  C   UNL     1       6.863  -3.166  21.953  0.00  0.00    +0.060 A 
ATOM     20  C   UNL     1       6.524  -4.491  21.722  0.00  0.00    +0.159 A 
ATOM     21  C   UNL     1       7.042  -5.512  22.512  0.00  0.00    +0.158 A 
ATOM     22  C   UNL     1       7.900  -5.214  23.565  0.00  0.00    +0.050 A 
BRANCH  20  23
ATOM     23  O   UNL     1       5.681  -4.789  20.688  0.00  0.00    -0.503 OA
ATOM     24  H   UNL     1       6.109  -4.405  19.896  0.00  0.00    +0.292 HD
ENDBRANCH  20  23
BRANCH  21  25
ATOM     25  O   UNL     1       6.687  -6.795  22.201  0.00  0.00    -0.503 OA
ATOM     26  H   UNL     1       7.256  -7.404  22.703  0.00  0.00    +0.292 HD
ENDBRANCH  21  25
ENDBRANCH   1  18
BRANCH   5  27
ATOM     27  O   UNL     1       9.256   3.465  22.855  0.00  0.00    -0.503 OA
ATOM     28  H   UNL     1       8.951   4.383  23.044  0.00  0.00    +0.292 HD
ENDBRANCH   5  27
BRANCH  12  29
ATOM     29  O   UNL     1       7.474   2.983  27.115  0.00  0.00    -0.501 OA
ATOM     30  H   UNL     1       7.407   3.950  27.001  0.00  0.00    +0.292 HD
ENDBRANCH  12  29
BRANCH  16  31
ATOM     31  O   UNL     1       9.731  -1.543  21.328  0.00  0.00    -0.501 OA
ATOM     32  H   UNL     1       9.551  -2.497  21.378  0.00  0.00    +0.292 HD
ENDBRANCH  16  31
TORSDOF 6
ENDMDL
MODEL 8
REMARK VINA RESULT:      -7.2      3.350      7.704
REMARK  Name = 
REMARK  6 active torsions:
REMARK  status: ('A' for Active; 'I' for Inactive)
REMARK    1  A    between atoms: C_3  and  O_27
REMARK    2  A    between atoms: C_4  and  O_26
REMARK    3  A    between atoms: C_6  and  C_7
REMARK    4  A    between atoms: C_8  and  O_25
REMARK    5  A    between atoms: C_12  and  O_24
REMARK    6  A    between atoms: C_14  and  O_23
REMARK                            x       y       z     vdW  Elec       q    Type
REMARK                         _______ _______ _______ _____ _____    ______ ____
ROOT
ATOM      1  C   UNL     1       8.070  -1.791  24.204  0.00  0.00    +0.181 A 
ATOM      2  O   UNL     1       7.678  -0.658  24.910  0.00  0.00    -0.447 OA
ATOM      3  C   UNL     1       8.153   0.555  24.491  0.00  0.00    +0.191 A 
ATOM      4  C   UNL     1       8.836   0.712  23.292  0.00  0.00    +0.117 A 
ATOM      5  C   UNL     1       8.918   1.996  22.751  0.00  0.00    +0.180 A 
ATOM      6  C   UNL     1       8.419   3.053  23.512  0.00  0.00    +0.247 A 
ATOM      7  O   UNL     1       7.060   3.401  23.147  0.00  0.00    -0.309 OA
ATOM      8  S   UNL     1       5.845   3.112  24.279  0.00  0.00    +0.300 S 
ATOM      9  O   UNL     1       5.625   4.351  25.000  0.00  0.00    -0.097 OA
ATOM     10  O   UNL     1       4.737   2.485  23.578  0.00  0.00    -0.097 OA
ATOM     11  O   UNL     1       6.454   1.973  25.344  0.00  0.00    -0.309 OA
ATOM     12  C   UNL     1       8.503   2.894  24.868  0.00  0.00    +0.215 A 
ATOM     13  C   UNL     1       9.303  -0.472  22.578  0.00  0.00    +0.238 A 
ATOM     14  O   UNL     1      10.013  -0.333  21.588  0.00  0.00    -0.283 OA
ATOM     15  C   UNL     1       7.845   1.728  25.201  0.00  0.00    +0.247 A 
ATOM     16  C   UNL     1       8.862  -1.789  23.110  0.00  0.00    +0.208 A 
ENDROOT
BRANCH   1  18
ATOM     17  C   UNL     1       6.242  -3.499  24.360  0.00  0.00    +0.015 A 
ATOM     18  C   UNL     1       7.518  -3.047  24.740  0.00  0.00    +0.025 A 
ATOM     19  C   UNL     1       8.242  -3.766  25.701  0.00  0.00    +0.060 A 
ATOM     20  C   UNL     1       7.685  -4.901  26.273  0.00  0.00    +0.159 A 
ATOM     21  C   UNL     1       6.415  -5.338  25.907  0.00  0.00    +0.158 A 
ATOM     22  C   UNL     1       5.689  -4.647  24.943  0.00  0.00    +0.050 A 
BRANCH  20  23
ATOM     23  O   UNL     1       8.395  -5.583  27.221  0.00  0.00    -0.503 OA
ATOM     24  H   UNL     1       8.086  -5.220  28.075  0.00  0.00    +0.292 HD
ENDBRANCH  20  23
BRANCH  21  25
ATOM     25  O   UNL     1       5.920  -6.444  26.539  0.00  0.00    -0.503 OA
ATOM     26  H   UNL     1       5.003  -6.583  26.248  0.00  0.00    +0.292 HD
ENDBRANCH  21  25
ENDBRANCH   1  18
BRANCH   5  27
ATOM     27  O   UNL     1       9.402   2.257  21.502  0.00  0.00    -0.503 OA
ATOM     28  H   UNL     1       9.019   1.596  20.878  0.00  0.00    +0.292 HD
ENDBRANCH   5  27
BRANCH  12  29
ATOM     29  O   UNL     1       8.361   3.982  25.685  0.00  0.00    -0.501 OA
ATOM     30  H   UNL     1       9.232   4.237  26.043  0.00  0.00    +0.292 HD
ENDBRANCH  12  29
BRANCH  16  31
ATOM     31  O   UNL     1       9.270  -2.918  22.422  0.00  0.00    -0.501 OA
ATOM     32  H   UNL     1       9.419  -3.647  23.047  0.00  0.00    +0.292 HD
ENDBRANCH  16  31
TORSDOF 6
ENDMDL
MODEL 9
REMARK VINA RESULT:      -7.1      2.635      6.965
REMARK  Name = 
REMARK  6 active torsions:
REMARK  status: ('A' for Active; 'I' for Inactive)
REMARK    1  A    between atoms: C_3  and  O_27
REMARK    2  A    between atoms: C_4  and  O_26
REMARK    3  A    between atoms: C_6  and  C_7
REMARK    4  A    between atoms: C_8  and  O_25
REMARK    5  A    between atoms: C_12  and  O_24
REMARK    6  A    between atoms: C_14  and  O_23
REMARK                            x       y       z     vdW  Elec       q    Type
REMARK                         _______ _______ _______ _____ _____    ______ ____
ROOT
ATOM      1  C   UNL     1       7.081  -3.781  24.666  0.00  0.00    +0.181 A 
ATOM      2  O   UNL     1       6.623  -2.541  25.102  0.00  0.00    -0.447 OA
ATOM      3  C   UNL     1       7.523  -1.513  25.169  0.00  0.00    +0.191 A 
ATOM      4  C   UNL     1       8.803  -1.609  24.638  0.00  0.00    +0.117 A 
ATOM      5  C   UNL     1       9.494  -0.424  24.380  0.00  0.00    +0.180 A 
ATOM      6  C   UNL     1       8.903   0.772  24.789  0.00  0.00    +0.247 A 
ATOM      7  O   UNL     1       8.167   1.417  23.719  0.00  0.00    -0.309 OA
ATOM      8  S   UNL     1       6.491   1.511  23.866  0.00  0.00    +0.300 S 
ATOM      9  O   UNL     1       6.181   2.812  24.428  0.00  0.00    -0.097 OA
ATOM     10  O   UNL     1       5.919   1.130  22.586  0.00  0.00    -0.097 OA
ATOM     11  O   UNL     1       6.047   0.332  24.969  0.00  0.00    -0.309 OA
ATOM     12  C   UNL     1       8.114   0.689  25.902  0.00  0.00    +0.215 A 
ATOM     13  C   UNL     1       9.311  -2.917  24.235  0.00  0.00    +0.238 A 
ATOM     14  O   UNL     1      10.481  -3.023  23.885  0.00  0.00    -0.283 OA
ATOM     15  C   UNL     1       7.137  -0.255  25.662  0.00  0.00    +0.247 A 
ATOM     16  C   UNL     1       8.344  -4.047  24.269  0.00  0.00    +0.208 A 
ENDROOT
BRANCH   1  18
ATOM     17  C   UNL     1       5.822  -5.654  25.757  0.00  0.00    +0.015 A 
ATOM     18  C   UNL     1       6.041  -4.824  24.643  0.00  0.00    +0.025 A 
ATOM     19  C   UNL     1       5.308  -5.045  23.469  0.00  0.00    +0.060 A 
ATOM     20  C   UNL     1       4.392  -6.085  23.418  0.00  0.00    +0.159 A 
ATOM     21  C   UNL     1       4.188  -6.916  24.516  0.00  0.00    +0.158 A 
ATOM     22  C   UNL     1       4.894  -6.702  25.695  0.00  0.00    +0.050 A 
BRANCH  20  23
ATOM     23  O   UNL     1       3.696  -6.301  22.261  0.00  0.00    -0.503 OA
ATOM     24  H   UNL     1       3.557  -5.410  21.882  0.00  0.00    +0.292 HD
ENDBRANCH  20  23
BRANCH  21  25
ATOM     25  O   UNL     1       3.293  -7.940  24.378  0.00  0.00    -0.503 OA
ATOM     26  H   UNL     1       2.414  -7.621  24.645  0.00  0.00    +0.292 HD
ENDBRANCH  21  25
ENDBRANCH   1  18
BRANCH   5  27
ATOM     27  O   UNL     1      10.676  -0.375  23.700  0.00  0.00    -0.503 OA
ATOM     28  H   UNL     1      10.800   0.543  23.362  0.00  0.00    +0.292 HD
ENDBRANCH   5  27
BRANCH  12  29
ATOM     29  O   UNL     1       7.771   1.831  26.573  0.00  0.00    -0.501 OA
ATOM     30  H   UNL     1       7.177   2.371  26.016  0.00  0.00    +0.292 HD
ENDBRANCH  12  29
BRANCH  16  31
ATOM     31  O   UNL     1       8.803  -5.285  23.857  0.00  0.00    -0.501 OA
ATOM     32  H   UNL     1       8.977  -5.269  22.901  0.00  0.00    +0.292 HD
ENDBRANCH  16  31
TORSDOF 6
ENDMDL
