MODEL 1
REMARK VINA RESULT:      -6.9      0.000      0.000
REMARK  Name = 
REMARK  14 active torsions:
REMARK  status: ('A' for Active; 'I' for Inactive)
REMARK    1  A    between atoms: C_3  and  O_40
REMARK    2  A    between atoms: C_4  and  O_39
REMARK    3  A    between atoms: C_6  and  C_7
REMARK    4  A    between atoms: C_8  and  O_20
REMARK    5  A    between atoms: C_12  and  O_19
REMARK    6  A    between atoms: C_14  and  O_18
REMARK    7  A    between atoms: O_20  and  C_21
REMARK    8  A    between atoms: C_23  and  O_38
REMARK    9  A    between atoms: C_25  and  O_33
REMARK   10  A    between atoms: C_26  and  O_32
REMARK   11  A    between atoms: C_28  and  C_30
REMARK   12  A    between atoms: C_30  and  O_31
REMARK   13  A    between atoms: O_33  and  S_34
REMARK   14  A    between atoms: S_34  and  O_37
REMARK                            x       y       z     vdW  Elec       q    Type
REMARK                         _______ _______ _______ _____ _____    ______ ____
ROOT
ATOM      1  C   UNL     1       6.906  -1.303  23.331  0.00  0.00    +0.181 A 
ATOM      2  O   UNL     1       7.217  -2.540  22.792  0.00  0.00    -0.451 OA
ATOM      3  C   UNL     1       6.424  -3.611  23.063  0.00  0.00    +0.147 A 
ATOM      4  C   UNL     1       5.426  -3.582  24.026  0.00  0.00    +0.109 A 
ATOM      5  C   UNL     1       4.701  -4.756  24.280  0.00  0.00    +0.135 A 
ATOM      6  C   UNL     1       4.957  -5.925  23.553  0.00  0.00    +0.091 A 
ATOM      7  C   UNL     1       5.931  -5.911  22.560  0.00  0.00    +0.124 A 
ATOM      8  C   UNL     1       5.148  -2.292  24.689  0.00  0.00    +0.238 A 
ATOM      9  O   UNL     1       4.274  -2.230  25.551  0.00  0.00    -0.283 OA
ATOM     10  C   UNL     1       6.668  -4.762  22.313  0.00  0.00    +0.092 A 
ATOM     11  C   UNL     1       5.903  -1.080  24.208  0.00  0.00    +0.214 A 
ENDROOT
BRANCH   1  13
ATOM     12  C   UNL     1       9.149  -0.640  22.617  0.00  0.00    +0.015 A 
ATOM     13  C   UNL     1       7.785  -0.295  22.717  0.00  0.00    +0.025 A 
ATOM     14  C   UNL     1       7.377   1.006  22.404  0.00  0.00    +0.060 A 
ATOM     15  C   UNL     1       8.348   1.947  22.071  0.00  0.00    +0.159 A 
ATOM     16  C   UNL     1       9.701   1.610  22.043  0.00  0.00    +0.158 A 
ATOM     17  C   UNL     1      10.108   0.309  22.278  0.00  0.00    +0.050 A 
BRANCH  15  18
ATOM     18  O   UNL     1       7.980   3.241  21.826  0.00  0.00    -0.503 OA
ATOM     19  H   UNL     1       7.841   3.277  20.858  0.00  0.00    +0.292 HD
ENDBRANCH  15  18
BRANCH  16  20
ATOM     20  O   UNL     1      10.608   2.609  21.819  0.00  0.00    -0.503 OA
ATOM     21  H   UNL     1      10.708   3.110  22.648  0.00  0.00    +0.292 HD
ENDBRANCH  16  20
ENDBRANCH   1  13
BRANCH   5  22
ATOM     22  O   UNL     1       3.719  -4.836  25.229  0.00  0.00    -0.506 OA
ATOM     23  H   UNL     1       3.067  -4.122  25.054  0.00  0.00    +0.292 HD
ENDBRANCH   5  22
BRANCH   7  24
ATOM     24  O   UNL     1       6.201  -7.005  21.795  0.00  0.00    -0.507 OA
ATOM     25  H   UNL     1       6.609  -7.692  22.349  0.00  0.00    +0.292 HD
ENDBRANCH   7  24
BRANCH  11  26
ATOM     26  O   UNL     1       5.519   0.152  24.716  0.00  0.00    -0.453 OA
BRANCH  26  27
ATOM     27  C   UNL     1       5.932   0.432  26.069  0.00  0.00    +0.340 C 
ATOM     28  O   UNL     1       4.925   1.223  26.697  0.00  0.00    -0.331 OA
ATOM     29  C   UNL     1       5.210   2.482  27.326  0.00  0.00    +0.179 C 
ATOM     30  C   UNL     1       6.503   3.222  26.916  0.00  0.00    +0.179 C 
ATOM     31  C   UNL     1       7.172   2.547  25.718  0.00  0.00    +0.217 C 
ATOM     32  C   UNL     1       7.333   1.061  26.049  0.00  0.00    +0.216 C 
BRANCH  30  33
ATOM     33  O   UNL     1       7.421   3.323  28.019  0.00  0.00    -0.386 OA
ATOM     34  H   UNL     1       8.317   3.489  27.652  0.00  0.00    +0.210 HD
ENDBRANCH  30  33
BRANCH  32  35
ATOM     35  O   UNL     1       8.004   0.897  27.322  0.00  0.00    -0.383 OA
ATOM     36  H   UNL     1       8.881   1.333  27.291  0.00  0.00    +0.210 HD
ENDBRANCH  32  35
BRANCH  29  37
ATOM     37  C   UNL     1       5.059   2.360  28.858  0.00  0.00    +0.190 C 
BRANCH  37  38
ATOM     38  O   UNL     1       5.910   1.359  29.415  0.00  0.00    -0.392 OA
ATOM     39  H   UNL     1       5.436   0.936  30.152  0.00  0.00    +0.210 HD
ENDBRANCH  37  38
ENDBRANCH  29  37
BRANCH  31  40
ATOM     40  O   UNL     1       8.458   3.110  25.453  0.00  0.00    -0.207 OA
BRANCH  40  41
ATOM     41  S   UNL     1       8.525   4.655  24.954  0.00  0.00    +0.208 S 
ATOM     42  O   UNL     1       8.853   5.502  26.074  0.00  0.00    -0.118 OA
ATOM     43  O   UNL     1       7.370   4.906  24.120  0.00  0.00    -0.118 OA
BRANCH  41  44
ATOM     44  O   UNL     1       9.781   4.643  23.949  0.00  0.00    -0.231 OA
ATOM     45  H   UNL     1      10.152   5.548  23.933  0.00  0.00    +0.247 HD
ENDBRANCH  41  44
ENDBRANCH  40  41
ENDBRANCH  31  40
ENDBRANCH  26  27
ENDBRANCH  11  26
TORSDOF 14
ENDMDL
MODEL 2
REMARK VINA RESULT:      -6.6      3.332      7.370
REMARK  Name = 
REMARK  14 active torsions:
REMARK  status: ('A' for Active; 'I' for Inactive)
REMARK    1  A    between atoms: C_3  and  O_40
REMARK    2  A    between atoms: C_4  and  O_39
REMARK    3  A    between atoms: C_6  and  C_7
REMARK    4  A    between atoms: C_8  and  O_20
REMARK    5  A    between atoms: C_12  and  O_19
REMARK    6  A    between atoms: C_14  and  O_18
REMARK    7  A    between atoms: O_20  and  C_21
REMARK    8  A    between atoms: C_23  and  O_38
REMARK    9  A    between atoms: C_25  and  O_33
REMARK   10  A    between atoms: C_26  and  O_32
REMARK   11  A    between atoms: C_28  and  C_30
REMARK   12  A    between atoms: C_30  and  O_31
REMARK   13  A    between atoms: O_33  and  S_34
REMARK   14  A    between atoms: S_34  and  O_37
REMARK                            x       y       z     vdW  Elec       q    Type
REMARK                         _______ _______ _______ _____ _____    ______ ____
ROOT
ATOM      1  C   UNL     1       7.057  -1.849  24.393  0.00  0.00    +0.181 A 
ATOM      2  O   UNL     1       7.579  -1.169  23.306  0.00  0.00    -0.451 OA
ATOM      3  C   UNL     1       8.123   0.065  23.481  0.00  0.00    +0.147 A 
ATOM      4  C   UNL     1       7.998   0.781  24.663  0.00  0.00    +0.109 A 
ATOM      5  C   UNL     1       8.537   2.073  24.729  0.00  0.00    +0.135 A 
ATOM      6  C   UNL     1       9.219   2.620  23.634  0.00  0.00    +0.091 A 
ATOM      7  C   UNL     1       9.371   1.861  22.479  0.00  0.00    +0.124 A 
ATOM      8  C   UNL     1       7.348   0.108  25.807  0.00  0.00    +0.238 A 
ATOM      9  O   UNL     1       7.215   0.713  26.869  0.00  0.00    -0.283 OA
ATOM     10  C   UNL     1       8.824   0.589  22.394  0.00  0.00    +0.092 A 
ATOM     11  C   UNL     1       6.951  -1.336  25.639  0.00  0.00    +0.214 A 
ENDROOT
BRANCH   1  13
ATOM     12  C   UNL     1       7.835  -4.087  23.789  0.00  0.00    +0.015 A 
ATOM     13  C   UNL     1       6.736  -3.221  23.971  0.00  0.00    +0.025 A 
ATOM     14  C   UNL     1       5.456  -3.638  23.588  0.00  0.00    +0.060 A 
ATOM     15  C   UNL     1       5.318  -4.876  22.966  0.00  0.00    +0.159 A 
ATOM     16  C   UNL     1       6.423  -5.693  22.728  0.00  0.00    +0.158 A 
ATOM     17  C   UNL     1       7.680  -5.323  23.170  0.00  0.00    +0.050 A 
BRANCH  15  18
ATOM     18  O   UNL     1       4.087  -5.276  22.522  0.00  0.00    -0.503 OA
ATOM     19  H   UNL     1       3.618  -4.440  22.321  0.00  0.00    +0.292 HD
ENDBRANCH  15  18
BRANCH  16  20
ATOM     20  O   UNL     1       6.230  -6.842  22.012  0.00  0.00    -0.503 OA
ATOM     21  H   UNL     1       5.616  -6.640  21.284  0.00  0.00    +0.292 HD
ENDBRANCH  16  20
ENDBRANCH   1  13
BRANCH   5  22
ATOM     22  O   UNL     1       8.440   2.868  25.839  0.00  0.00    -0.506 OA
ATOM     23  H   UNL     1       7.819   2.438  26.467  0.00  0.00    +0.292 HD
ENDBRANCH   5  22
BRANCH   7  24
ATOM     24  O   UNL     1      10.053   2.323  21.394  0.00  0.00    -0.507 OA
ATOM     25  H   UNL     1      11.008   2.230  21.550  0.00  0.00    +0.292 HD
ENDBRANCH   7  24
BRANCH  11  26
ATOM     26  O   UNL     1       6.498  -2.006  26.764  0.00  0.00    -0.453 OA
BRANCH  26  27
ATOM     27  C   UNL     1       5.067  -2.077  26.922  0.00  0.00    +0.340 C 
ATOM     28  O   UNL     1       4.686  -1.229  28.004  0.00  0.00    -0.331 OA
ATOM     29  C   UNL     1       3.908  -1.696  29.117  0.00  0.00    +0.179 C 
ATOM     30  C   UNL     1       3.883  -3.215  29.398  0.00  0.00    +0.179 C 
ATOM     31  C   UNL     1       4.894  -3.958  28.523  0.00  0.00    +0.217 C 
ATOM     32  C   UNL     1       4.646  -3.546  27.070  0.00  0.00    +0.216 C 
BRANCH  30  33
ATOM     33  O   UNL     1       2.564  -3.759  29.220  0.00  0.00    -0.386 OA
ATOM     34  H   UNL     1       2.407  -3.863  28.256  0.00  0.00    +0.210 HD
ENDBRANCH  30  33
BRANCH  32  35
ATOM     35  O   UNL     1       3.253  -3.734  26.723  0.00  0.00    -0.383 OA
ATOM     36  H   UNL     1       2.697  -3.633  27.524  0.00  0.00    +0.210 HD
ENDBRANCH  32  35
BRANCH  29  37
ATOM     37  C   UNL     1       2.494  -1.079  29.077  0.00  0.00    +0.190 C 
BRANCH  37  38
ATOM     38  O   UNL     1       1.799  -1.379  27.868  0.00  0.00    -0.392 OA
ATOM     39  H   UNL     1       2.407  -1.225  27.124  0.00  0.00    +0.210 HD
ENDBRANCH  37  38
ENDBRANCH  29  37
BRANCH  31  40
ATOM     40  O   UNL     1       4.745  -5.374  28.641  0.00  0.00    -0.207 OA
BRANCH  40  41
ATOM     41  S   UNL     1       6.061  -6.250  29.019  0.00  0.00    +0.208 S 
ATOM     42  O   UNL     1       6.288  -6.176  30.441  0.00  0.00    -0.118 OA
ATOM     43  O   UNL     1       7.099  -5.932  28.063  0.00  0.00    -0.118 OA
BRANCH  41  44
ATOM     44  O   UNL     1       5.597  -7.748  28.661  0.00  0.00    -0.231 OA
ATOM     45  H   UNL     1       4.694  -7.867  29.015  0.00  0.00    +0.247 HD
ENDBRANCH  41  44
ENDBRANCH  40  41
ENDBRANCH  31  40
ENDBRANCH  26  27
ENDBRANCH  11  26
TORSDOF 14
ENDMDL
MODEL 3
REMARK VINA RESULT:      -6.6      3.005      7.242
REMARK  Name = 
REMARK  14 active torsions:
REMARK  status: ('A' for Active; 'I' for Inactive)
REMARK    1  A    between atoms: C_3  and  O_40
REMARK    2  A    between atoms: C_4  and  O_39
REMARK    3  A    between atoms: C_6  and  C_7
REMARK    4  A    between atoms: C_8  and  O_20
REMARK    5  A    between atoms: C_12  and  O_19
REMARK    6  A    between atoms: C_14  and  O_18
REMARK    7  A    between atoms: O_20  and  C_21
REMARK    8  A    between atoms: C_23  and  O_38
REMARK    9  A    between atoms: C_25  and  O_33
REMARK   10  A    between atoms: C_26  and  O_32
REMARK   11  A    between atoms: C_28  and  C_30
REMARK   12  A    between atoms: C_30  and  O_31
REMARK   13  A    between atoms: O_33  and  S_34
REMARK   14  A    between atoms: S_34  and  O_37
REMARK                            x       y       z     vdW  Elec       q    Type
REMARK                         _______ _______ _______ _____ _____    ______ ____
ROOT
ATOM      1  C   UNL     1       8.068   0.458  24.649  0.00  0.00    +0.181 A 
ATOM      2  O   UNL     1       8.647   1.411  23.828  0.00  0.00    -0.451 OA
ATOM      3  C   UNL     1       8.761   2.695  24.262  0.00  0.00    +0.147 A 
ATOM      4  C   UNL     1       8.137   3.157  25.413  0.00  0.00    +0.109 A 
ATOM      5  C   UNL     1       8.259   4.513  25.747  0.00  0.00    +0.135 A 
ATOM      6  C   UNL     1       9.024   5.378  24.954  0.00  0.00    +0.091 A 
ATOM      7  C   UNL     1       9.678   4.876  23.834  0.00  0.00    +0.124 A 
ATOM      8  C   UNL     1       7.424   2.171  26.250  0.00  0.00    +0.238 A 
ATOM      9  O   UNL     1       6.855   2.545  27.274  0.00  0.00    -0.283 OA
ATOM     10  C   UNL     1       9.548   3.541  23.481  0.00  0.00    +0.092 A 
ATOM     11  C   UNL     1       7.502   0.721  25.847  0.00  0.00    +0.214 A 
ENDROOT
BRANCH   1  13
ATOM     12  C   UNL     1       7.341  -1.221  23.027  0.00  0.00    +0.015 A 
ATOM     13  C   UNL     1       8.263  -0.864  24.034  0.00  0.00    +0.025 A 
ATOM     14  C   UNL     1       9.174  -1.816  24.506  0.00  0.00    +0.060 A 
ATOM     15  C   UNL     1       9.092  -3.116  24.014  0.00  0.00    +0.159 A 
ATOM     16  C   UNL     1       8.131  -3.473  23.069  0.00  0.00    +0.158 A 
ATOM     17  C   UNL     1       7.275  -2.523  22.542  0.00  0.00    +0.050 A 
BRANCH  15  18
ATOM     18  O   UNL     1       9.928  -4.079  24.510  0.00  0.00    -0.503 OA
ATOM     19  H   UNL     1      10.608  -3.580  25.007  0.00  0.00    +0.292 HD
ENDBRANCH  15  18
BRANCH  16  20
ATOM     20  O   UNL     1       8.035  -4.791  22.717  0.00  0.00    -0.503 OA
ATOM     21  H   UNL     1       8.750  -5.273  23.168  0.00  0.00    +0.292 HD
ENDBRANCH  16  20
ENDBRANCH   1  13
BRANCH   5  22
ATOM     22  O   UNL     1       7.658   5.069  26.843  0.00  0.00    -0.506 OA
ATOM     23  H   UNL     1       7.353   5.970  26.599  0.00  0.00    +0.292 HD
ENDBRANCH   5  22
BRANCH   7  24
ATOM     24  O   UNL     1      10.465   5.660  23.044  0.00  0.00    -0.507 OA
ATOM     25  H   UNL     1      10.473   6.566  23.395  0.00  0.00    +0.292 HD
ENDBRANCH   7  24
BRANCH  11  26
ATOM     26  O   UNL     1       6.974  -0.213  26.726  0.00  0.00    -0.453 OA
BRANCH  26  27
ATOM     27  C   UNL     1       5.609  -0.607  26.482  0.00  0.00    +0.340 C 
ATOM     28  O   UNL     1       4.860  -0.419  27.680  0.00  0.00    -0.331 OA
ATOM     29  C   UNL     1       4.087  -1.469  28.283  0.00  0.00    +0.179 C 
ATOM     30  C   UNL     1       4.437  -2.928  27.917  0.00  0.00    +0.179 C 
ATOM     31  C   UNL     1       5.727  -3.002  27.099  0.00  0.00    +0.217 C 
ATOM     32  C   UNL     1       5.588  -2.036  25.920  0.00  0.00    +0.216 C 
BRANCH  30  33
ATOM     33  O   UNL     1       3.355  -3.565  27.215  0.00  0.00    -0.386 OA
ATOM     34  H   UNL     1       2.523  -3.103  27.457  0.00  0.00    +0.210 HD
ENDBRANCH  30  33
BRANCH  32  35
ATOM     35  O   UNL     1       4.364  -2.300  25.193  0.00  0.00    -0.383 OA
ATOM     36  H   UNL     1       3.681  -2.639  25.809  0.00  0.00    +0.210 HD
ENDBRANCH  32  35
BRANCH  29  37
ATOM     37  C   UNL     1       2.579  -1.169  28.143  0.00  0.00    +0.190 C 
BRANCH  37  38
ATOM     38  O   UNL     1       2.175  -1.012  26.784  0.00  0.00    -0.392 OA
ATOM     39  H   UNL     1       2.556  -0.182  26.450  0.00  0.00    +0.210 HD
ENDBRANCH  37  38
ENDBRANCH  29  37
BRANCH  31  40
ATOM     40  O   UNL     1       5.954  -4.321  26.600  0.00  0.00    -0.207 OA
BRANCH  40  41
ATOM     41  S   UNL     1       7.347  -5.057  26.998  0.00  0.00    +0.208 S 
ATOM     42  O   UNL     1       7.100  -5.997  28.063  0.00  0.00    -0.118 OA
ATOM     43  O   UNL     1       8.375  -4.044  27.098  0.00  0.00    -0.118 OA
BRANCH  41  44
ATOM     44  O   UNL     1       7.696  -5.887  25.666  0.00  0.00    -0.231 OA
ATOM     45  H   UNL     1       6.964  -5.747  25.033  0.00  0.00    +0.247 HD
ENDBRANCH  41  44
ENDBRANCH  40  41
ENDBRANCH  31  40
ENDBRANCH  26  27
ENDBRANCH  11  26
TORSDOF 14
ENDMDL
MODEL 4
REMARK VINA RESULT:      -6.5      1.935      2.773
REMARK  Name = 
REMARK  14 active torsions:
REMARK  status: ('A' for Active; 'I' for Inactive)
REMARK    1  A    between atoms: C_3  and  O_40
REMARK    2  A    between atoms: C_4  and  O_39
REMARK    3  A    between atoms: C_6  and  C_7
REMARK    4  A    between atoms: C_8  and  O_20
REMARK    5  A    between atoms: C_12  and  O_19
REMARK    6  A    between atoms: C_14  and  O_18
REMARK    7  A    between atoms: O_20  and  C_21
REMARK    8  A    between atoms: C_23  and  O_38
REMARK    9  A    between atoms: C_25  and  O_33
REMARK   10  A    between atoms: C_26  and  O_32
REMARK   11  A    between atoms: C_28  and  C_30
REMARK   12  A    between atoms: C_30  and  O_31
REMARK   13  A    between atoms: O_33  and  S_34
REMARK   14  A    between atoms: S_34  and  O_37
REMARK                            x       y       z     vdW  Elec       q    Type
REMARK                         _______ _______ _______ _____ _____    ______ ____
ROOT
ATOM      1  C   UNL     1       6.211  -3.127  24.341  0.00  0.00    +0.181 A 
ATOM      2  O   UNL     1       5.999  -4.495  24.335  0.00  0.00    -0.451 OA
ATOM      3  C   UNL     1       4.796  -4.991  24.731  0.00  0.00    +0.147 A 
ATOM      4  C   UNL     1       3.826  -4.211  25.345  0.00  0.00    +0.109 A 
ATOM      5  C   UNL     1       2.642  -4.824  25.778  0.00  0.00    +0.135 A 
ATOM      6  C   UNL     1       2.426  -6.191  25.564  0.00  0.00    +0.091 A 
ATOM      7  C   UNL     1       3.395  -6.939  24.902  0.00  0.00    +0.124 A 
ATOM      8  C   UNL     1       4.081  -2.759  25.455  0.00  0.00    +0.238 A 
ATOM      9  O   UNL     1       3.247  -2.037  25.998  0.00  0.00    -0.283 OA
ATOM     10  C   UNL     1       4.580  -6.347  24.489  0.00  0.00    +0.092 A 
ATOM     11  C   UNL     1       5.331  -2.216  24.812  0.00  0.00    +0.214 A 
ENDROOT
BRANCH   1  13
ATOM     12  C   UNL     1       8.653  -3.251  24.375  0.00  0.00    +0.015 A 
ATOM     13  C   UNL     1       7.495  -2.854  23.675  0.00  0.00    +0.025 A 
ATOM     14  C   UNL     1       7.619  -2.091  22.508  0.00  0.00    +0.060 A 
ATOM     15  C   UNL     1       8.890  -1.683  22.113  0.00  0.00    +0.159 A 
ATOM     16  C   UNL     1      10.022  -2.023  22.853  0.00  0.00    +0.158 A 
ATOM     17  C   UNL     1       9.917  -2.839  23.965  0.00  0.00    +0.050 A 
BRANCH  15  18
ATOM     18  O   UNL     1       9.031  -0.880  21.014  0.00  0.00    -0.503 OA
ATOM     19  H   UNL     1       8.622  -0.031  21.279  0.00  0.00    +0.292 HD
ENDBRANCH  15  18
BRANCH  16  20
ATOM     20  O   UNL     1      11.224  -1.493  22.471  0.00  0.00    -0.503 OA
ATOM     21  H   UNL     1      11.047  -0.643  22.031  0.00  0.00    +0.292 HD
ENDBRANCH  16  20
ENDBRANCH   1  13
BRANCH   5  22
ATOM     22  O   UNL     1       1.641  -4.146  26.419  0.00  0.00    -0.506 OA
ATOM     23  H   UNL     1       0.790  -4.379  25.987  0.00  0.00    +0.292 HD
ENDBRANCH   5  22
BRANCH   7  24
ATOM     24  O   UNL     1       3.228  -8.264  24.634  0.00  0.00    -0.507 OA
ATOM     25  H   UNL     1       4.098  -8.684  24.534  0.00  0.00    +0.292 HD
ENDBRANCH   7  24
BRANCH  11  26
ATOM     26  O   UNL     1       5.479  -0.838  24.773  0.00  0.00    -0.453 OA
BRANCH  26  27
ATOM     27  C   UNL     1       6.306  -0.264  25.805  0.00  0.00    +0.340 C 
ATOM     28  O   UNL     1       5.501   0.601  26.604  0.00  0.00    -0.331 OA
ATOM     29  C   UNL     1       5.845   1.974  26.845  0.00  0.00    +0.179 C 
ATOM     30  C   UNL     1       6.819   2.661  25.863  0.00  0.00    +0.179 C 
ATOM     31  C   UNL     1       7.098   1.776  24.647  0.00  0.00    +0.217 C 
ATOM     32  C   UNL     1       7.531   0.401  25.160  0.00  0.00    +0.216 C 
BRANCH  30  33
ATOM     33  O   UNL     1       8.048   3.027  26.516  0.00  0.00    -0.386 OA
ATOM     34  H   UNL     1       8.470   3.740  25.988  0.00  0.00    +0.210 HD
ENDBRANCH  30  33
BRANCH  32  35
ATOM     35  O   UNL     1       8.619   0.534  26.106  0.00  0.00    -0.383 OA
ATOM     36  H   UNL     1       9.459   0.260  25.683  0.00  0.00    +0.210 HD
ENDBRANCH  32  35
BRANCH  29  37
ATOM     37  C   UNL     1       6.255   2.170  28.320  0.00  0.00    +0.190 C 
BRANCH  37  38
ATOM     38  O   UNL     1       7.454   1.472  28.654  0.00  0.00    -0.392 OA
ATOM     39  H   UNL     1       8.204   1.967  28.280  0.00  0.00    +0.210 HD
ENDBRANCH  37  38
ENDBRANCH  29  37
BRANCH  31  40
ATOM     40  O   UNL     1       8.137   2.322  23.832  0.00  0.00    -0.207 OA
BRANCH  40  41
ATOM     41  S   UNL     1       7.856   2.474  22.239  0.00  0.00    +0.208 S 
ATOM     42  O   UNL     1       7.484   3.837  21.951  0.00  0.00    -0.118 OA
ATOM     43  O   UNL     1       7.039   1.356  21.821  0.00  0.00    -0.118 OA
BRANCH  41  44
ATOM     44  O   UNL     1       9.307   2.204  21.601  0.00  0.00    -0.231 OA
ATOM     45  H   UNL     1       9.368   2.729  20.779  0.00  0.00    +0.247 HD
ENDBRANCH  41  44
ENDBRANCH  40  41
ENDBRANCH  31  40
ENDBRANCH  26  27
ENDBRANCH  11  26
TORSDOF 14
ENDMDL
MODEL 5
REMARK VINA RESULT:      -6.4      2.871      7.516
REMARK  Name = 
REMARK  14 active torsions:
REMARK  status: ('A' for Active; 'I' for Inactive)
REMARK    1  A    between atoms: C_3  and  O_40
REMARK    2  A    between atoms: C_4  and  O_39
REMARK    3  A    between atoms: C_6  and  C_7
REMARK    4  A    between atoms: C_8  and  O_20
REMARK    5  A    between atoms: C_12  and  O_19
REMARK    6  A    between atoms: C_14  and  O_18
REMARK    7  A    between atoms: O_20  and  C_21
REMARK    8  A    between atoms: C_23  and  O_38
REMARK    9  A    between atoms: C_25  and  O_33
REMARK   10  A    between atoms: C_26  and  O_32
REMARK   11  A    between atoms: C_28  and  C_30
REMARK   12  A    between atoms: C_30  and  O_31
REMARK   13  A    between atoms: O_33  and  S_34
REMARK   14  A    between atoms: S_34  and  O_37
REMARK                            x       y       z     vdW  Elec       q    Type
REMARK                         _______ _______ _______ _____ _____    ______ ____
ROOT
ATOM      1  C   UNL     1       7.754  -0.513  26.181  0.00  0.00    +0.181 A 
ATOM      2  O   UNL     1       7.837   0.581  25.336  0.00  0.00    -0.451 OA
ATOM      3  C   UNL     1       8.323   0.423  24.076  0.00  0.00    +0.147 A 
ATOM      4  C   UNL     1       8.943  -0.744  23.650  0.00  0.00    +0.109 A 
ATOM      5  C   UNL     1       9.471  -0.792  22.352  0.00  0.00    +0.135 A 
ATOM      6  C   UNL     1       9.347   0.305  21.490  0.00  0.00    +0.091 A 
ATOM      7  C   UNL     1       8.677   1.443  21.927  0.00  0.00    +0.124 A 
ATOM      8  C   UNL     1       8.957  -1.892  24.580  0.00  0.00    +0.238 A 
ATOM      9  O   UNL     1       9.502  -2.940  24.240  0.00  0.00    -0.283 OA
ATOM     10  C   UNL     1       8.169   1.510  23.216  0.00  0.00    +0.092 A 
ATOM     11  C   UNL     1       8.220  -1.747  25.886  0.00  0.00    +0.214 A 
ENDROOT
BRANCH   1  13
ATOM     12  C   UNL     1       5.605  -0.254  27.318  0.00  0.00    +0.015 A 
ATOM     13  C   UNL     1       7.007  -0.114  27.384  0.00  0.00    +0.025 A 
ATOM     14  C   UNL     1       7.585   0.537  28.480  0.00  0.00    +0.060 A 
ATOM     15  C   UNL     1       6.747   1.095  29.441  0.00  0.00    +0.159 A 
ATOM     16  C   UNL     1       5.359   1.010  29.328  0.00  0.00    +0.158 A 
ATOM     17  C   UNL     1       4.780   0.304  28.289  0.00  0.00    +0.050 A 
BRANCH  15  18
ATOM     18  O   UNL     1       7.287   1.795  30.485  0.00  0.00    -0.503 OA
ATOM     19  H   UNL     1       8.049   2.268  30.093  0.00  0.00    +0.292 HD
ENDBRANCH  15  18
BRANCH  16  20
ATOM     20  O   UNL     1       4.597   1.677  30.246  0.00  0.00    -0.503 OA
ATOM     21  H   UNL     1       3.946   2.213  29.760  0.00  0.00    +0.292 HD
ENDBRANCH  16  20
ENDBRANCH   1  13
BRANCH   5  22
ATOM     22  O   UNL     1      10.125  -1.884  21.852  0.00  0.00    -0.506 OA
ATOM     23  H   UNL     1      10.106  -1.828  20.872  0.00  0.00    +0.292 HD
ENDBRANCH   5  22
BRANCH   7  24
ATOM     24  O   UNL     1       8.493   2.528  21.123  0.00  0.00    -0.507 OA
ATOM     25  H   UNL     1       7.556   2.588  20.874  0.00  0.00    +0.292 HD
ENDBRANCH   7  24
BRANCH  11  26
ATOM     26  O   UNL     1       8.095  -2.879  26.676  0.00  0.00    -0.453 OA
BRANCH  26  27
ATOM     27  C   UNL     1       6.750  -3.342  26.907  0.00  0.00    +0.340 C 
ATOM     28  O   UNL     1       6.802  -4.492  27.748  0.00  0.00    -0.331 OA
ATOM     29  C   UNL     1       6.188  -5.740  27.393  0.00  0.00    +0.179 C 
ATOM     30  C   UNL     1       5.882  -5.999  25.901  0.00  0.00    +0.179 C 
ATOM     31  C   UNL     1       6.496  -4.916  25.012  0.00  0.00    +0.217 C 
ATOM     32  C   UNL     1       6.050  -3.557  25.556  0.00  0.00    +0.216 C 
BRANCH  30  33
ATOM     33  O   UNL     1       4.467  -6.103  25.667  0.00  0.00    -0.386 OA
ATOM     34  H   UNL     1       4.085  -6.672  26.372  0.00  0.00    +0.210 HD
ENDBRANCH  30  33
BRANCH  32  35
ATOM     35  O   UNL     1       4.609  -3.517  25.696  0.00  0.00    -0.383 OA
ATOM     36  H   UNL     1       4.314  -4.251  26.273  0.00  0.00    +0.210 HD
ENDBRANCH  32  35
BRANCH  29  37
ATOM     37  C   UNL     1       4.972  -6.015  28.302  0.00  0.00    +0.190 C 
BRANCH  37  38
ATOM     38  O   UNL     1       4.747  -7.409  28.510  0.00  0.00    -0.392 OA
ATOM     39  H   UNL     1       4.122  -7.506  29.250  0.00  0.00    +0.210 HD
ENDBRANCH  37  38
ENDBRANCH  29  37
BRANCH  31  40
ATOM     40  O   UNL     1       6.062  -5.044  23.657  0.00  0.00    -0.207 OA
BRANCH  40  41
ATOM     41  S   UNL     1       7.192  -5.271  22.512  0.00  0.00    +0.208 S 
ATOM     42  O   UNL     1       6.588  -5.908  21.369  0.00  0.00    -0.118 OA
ATOM     43  O   UNL     1       8.373  -5.811  23.151  0.00  0.00    -0.118 OA
BRANCH  41  44
ATOM     44  O   UNL     1       7.581  -3.765  22.102  0.00  0.00    -0.231 OA
ATOM     45  H   UNL     1       8.242  -3.819  21.384  0.00  0.00    +0.247 HD
ENDBRANCH  41  44
ENDBRANCH  40  41
ENDBRANCH  31  40
ENDBRANCH  26  27
ENDBRANCH  11  26
TORSDOF 14
ENDMDL
MODEL 6
REMARK VINA RESULT:      -6.4      2.224      4.670
REMARK  Name = 
REMARK  14 active torsions:
REMARK  status: ('A' for Active; 'I' for Inactive)
REMARK    1  A    between atoms: C_3  and  O_40
REMARK    2  A    between atoms: C_4  and  O_39
REMARK    3  A    between atoms: C_6  and  C_7
REMARK    4  A    between atoms: C_8  and  O_20
REMARK    5  A    between atoms: C_12  and  O_19
REMARK    6  A    between atoms: C_14  and  O_18
REMARK    7  A    between atoms: O_20  and  C_21
REMARK    8  A    between atoms: C_23  and  O_38
REMARK    9  A    between atoms: C_25  and  O_33
REMARK   10  A    between atoms: C_26  and  O_32
REMARK   11  A    between atoms: C_28  and  C_30
REMARK   12  A    between atoms: C_30  and  O_31
REMARK   13  A    between atoms: O_33  and  S_34
REMARK   14  A    between atoms: S_34  and  O_37
REMARK                            x       y       z     vdW  Elec       q    Type
REMARK                         _______ _______ _______ _____ _____    ______ ____
ROOT
ATOM      1  C   UNL     1       6.311  -0.768  25.292  0.00  0.00    +0.181 A 
ATOM      2  O   UNL     1       6.347  -1.758  26.259  0.00  0.00    -0.451 OA
ATOM      3  C   UNL     1       6.779  -3.006  25.929  0.00  0.00    +0.147 A 
ATOM      4  C   UNL     1       6.991  -3.404  24.616  0.00  0.00    +0.109 A 
ATOM      5  C   UNL     1       7.374  -4.730  24.369  0.00  0.00    +0.135 A 
ATOM      6  C   UNL     1       7.572  -5.626  25.427  0.00  0.00    +0.091 A 
ATOM      7  C   UNL     1       7.399  -5.185  26.735  0.00  0.00    +0.124 A 
ATOM      8  C   UNL     1       6.854  -2.383  23.558  0.00  0.00    +0.238 A 
ATOM      9  O   UNL     1       7.030  -2.701  22.383  0.00  0.00    -0.283 OA
ATOM     10  C   UNL     1       6.999  -3.881  26.991  0.00  0.00    +0.092 A 
ATOM     11  C   UNL     1       6.585  -0.963  23.983  0.00  0.00    +0.214 A 
ENDROOT
BRANCH   1  13
ATOM     12  C   UNL     1       4.911   1.231  25.450  0.00  0.00    +0.015 A 
ATOM     13  C   UNL     1       6.017   0.514  25.953  0.00  0.00    +0.025 A 
ATOM     14  C   UNL     1       6.856   1.112  26.900  0.00  0.00    +0.060 A 
ATOM     15  C   UNL     1       6.613   2.434  27.264  0.00  0.00    +0.159 A 
ATOM     16  C   UNL     1       5.557   3.155  26.707  0.00  0.00    +0.158 A 
ATOM     17  C   UNL     1       4.678   2.550  25.827  0.00  0.00    +0.050 A 
BRANCH  15  18
ATOM     18  O   UNL     1       7.460   3.061  28.136  0.00  0.00    -0.503 OA
ATOM     19  H   UNL     1       7.217   2.699  29.013  0.00  0.00    +0.292 HD
ENDBRANCH  15  18
BRANCH  16  20
ATOM     20  O   UNL     1       5.446   4.480  27.024  0.00  0.00    -0.503 OA
ATOM     21  H   UNL     1       6.281   4.916  26.777  0.00  0.00    +0.292 HD
ENDBRANCH  16  20
ENDBRANCH   1  13
BRANCH   5  22
ATOM     22  O   UNL     1       7.579  -5.226  23.110  0.00  0.00    -0.506 OA
ATOM     23  H   UNL     1       8.410  -4.837  22.760  0.00  0.00    +0.292 HD
ENDBRANCH   5  22
BRANCH   7  24
ATOM     24  O   UNL     1       7.610  -5.999  27.807  0.00  0.00    -0.507 OA
ATOM     25  H   UNL     1       7.420  -6.918  27.556  0.00  0.00    +0.292 HD
ENDBRANCH   7  24
BRANCH  11  26
ATOM     26  O   UNL     1       6.624   0.014  23.001  0.00  0.00    -0.453 OA
BRANCH  26  27
ATOM     27  C   UNL     1       7.930   0.535  22.682  0.00  0.00    +0.340 C 
ATOM     28  O   UNL     1       8.704   0.587  23.879  0.00  0.00    -0.331 OA
ATOM     29  C   UNL     1       9.348   1.788  24.332  0.00  0.00    +0.179 C 
ATOM     30  C   UNL     1       8.823   3.139  23.799  0.00  0.00    +0.179 C 
ATOM     31  C   UNL     1       7.528   2.957  23.005  0.00  0.00    +0.217 C 
ATOM     32  C   UNL     1       7.776   1.876  21.950  0.00  0.00    +0.216 C 
BRANCH  30  33
ATOM     33  O   UNL     1       9.815   3.808  23.002  0.00  0.00    -0.386 OA
ATOM     34  H   UNL     1      10.540   3.170  22.822  0.00  0.00    +0.210 HD
ENDBRANCH  30  33
BRANCH  32  35
ATOM     35  O   UNL     1       8.955   2.192  21.171  0.00  0.00    -0.383 OA
ATOM     36  H   UNL     1       8.982   3.154  20.989  0.00  0.00    +0.210 HD
ENDBRANCH  32  35
BRANCH  29  37
ATOM     37  C   UNL     1      10.880   1.654  24.199  0.00  0.00    +0.190 C 
BRANCH  37  38
ATOM     38  O   UNL     1      11.384   0.472  24.820  0.00  0.00    -0.392 OA
ATOM     39  H   UNL     1      11.921  -0.006  24.164  0.00  0.00    +0.210 HD
ENDBRANCH  37  38
ENDBRANCH  29  37
BRANCH  31  40
ATOM     40  O   UNL     1       7.140   4.168  22.354  0.00  0.00    -0.207 OA
BRANCH  40  41
ATOM     41  S   UNL     1       5.866   4.979  22.950  0.00  0.00    +0.208 S 
ATOM     42  O   UNL     1       6.203   5.506  24.249  0.00  0.00    -0.118 OA
ATOM     43  O   UNL     1       4.683   4.173  22.738  0.00  0.00    -0.118 OA
BRANCH  41  44
ATOM     44  O   UNL     1       5.728   6.214  21.928  0.00  0.00    -0.231 OA
ATOM     45  H   UNL     1       4.931   6.718  22.184  0.00  0.00    +0.247 HD
ENDBRANCH  41  44
ENDBRANCH  40  41
ENDBRANCH  31  40
ENDBRANCH  26  27
ENDBRANCH  11  26
TORSDOF 14
ENDMDL
MODEL 7
REMARK VINA RESULT:      -6.3      2.715      7.121
REMARK  Name = 
REMARK  14 active torsions:
REMARK  status: ('A' for Active; 'I' for Inactive)
REMARK    1  A    between atoms: C_3  and  O_40
REMARK    2  A    between atoms: C_4  and  O_39
REMARK    3  A    between atoms: C_6  and  C_7
REMARK    4  A    between atoms: C_8  and  O_20
REMARK    5  A    between atoms: C_12  and  O_19
REMARK    6  A    between atoms: C_14  and  O_18
REMARK    7  A    between atoms: O_20  and  C_21
REMARK    8  A    between atoms: C_23  and  O_38
REMARK    9  A    between atoms: C_25  and  O_33
REMARK   10  A    between atoms: C_26  and  O_32
REMARK   11  A    between atoms: C_28  and  C_30
REMARK   12  A    between atoms: C_30  and  O_31
REMARK   13  A    between atoms: O_33  and  S_34
REMARK   14  A    between atoms: S_34  and  O_37
REMARK                            x       y       z     vdW  Elec       q    Type
REMARK                         _______ _______ _______ _____ _____    ______ ____
ROOT
ATOM      1  C   UNL     1       8.918   1.495  23.501  0.00  0.00    +0.181 A 
ATOM      2  O   UNL     1      10.186   2.021  23.325  0.00  0.00    -0.451 OA
ATOM      3  C   UNL     1      10.389   3.357  23.479  0.00  0.00    +0.147 A 
ATOM      4  C   UNL     1       9.347   4.265  23.600  0.00  0.00    +0.109 A 
ATOM      5  C   UNL     1       9.651   5.631  23.690  0.00  0.00    +0.135 A 
ATOM      6  C   UNL     1      10.982   6.069  23.691  0.00  0.00    +0.091 A 
ATOM      7  C   UNL     1      12.007   5.131  23.617  0.00  0.00    +0.124 A 
ATOM      8  C   UNL     1       7.973   3.728  23.685  0.00  0.00    +0.238 A 
ATOM      9  O   UNL     1       7.025   4.503  23.788  0.00  0.00    -0.283 OA
ATOM     10  C   UNL     1      11.718   3.779  23.507  0.00  0.00    +0.092 A 
ATOM     11  C   UNL     1       7.807   2.231  23.727  0.00  0.00    +0.214 A 
ENDROOT
BRANCH   1  13
ATOM     12  C   UNL     1       8.827  -0.598  22.239  0.00  0.00    +0.015 A 
ATOM     13  C   UNL     1       9.019   0.027  23.490  0.00  0.00    +0.025 A 
ATOM     14  C   UNL     1       9.115  -0.756  24.646  0.00  0.00    +0.060 A 
ATOM     15  C   UNL     1       8.945  -2.133  24.533  0.00  0.00    +0.159 A 
ATOM     16  C   UNL     1       8.687  -2.732  23.300  0.00  0.00    +0.158 A 
ATOM     17  C   UNL     1       8.664  -1.976  22.142  0.00  0.00    +0.050 A 
BRANCH  15  18
ATOM     18  O   UNL     1       8.968  -2.911  25.658  0.00  0.00    -0.503 OA
ATOM     19  H   UNL     1       8.661  -2.316  26.372  0.00  0.00    +0.292 HD
ENDBRANCH  15  18
BRANCH  16  20
ATOM     20  O   UNL     1       8.417  -4.072  23.280  0.00  0.00    -0.503 OA
ATOM     21  H   UNL     1       7.549  -4.207  23.699  0.00  0.00    +0.292 HD
ENDBRANCH  16  20
ENDBRANCH   1  13
BRANCH   5  22
ATOM     22  O   UNL     1       8.694   6.605  23.782  0.00  0.00    -0.506 OA
ATOM     23  H   UNL     1       8.844   7.250  23.057  0.00  0.00    +0.292 HD
ENDBRANCH   5  22
BRANCH   7  24
ATOM     24  O   UNL     1      13.320   5.491  23.649  0.00  0.00    -0.507 OA
ATOM     25  H   UNL     1      13.874   4.699  23.544  0.00  0.00    +0.292 HD
ENDBRANCH   7  24
BRANCH  11  26
ATOM     26  O   UNL     1       6.535   1.738  23.975  0.00  0.00    -0.453 OA
BRANCH  26  27
ATOM     27  C   UNL     1       6.093   1.797  25.346  0.00  0.00    +0.340 C 
ATOM     28  O   UNL     1       7.223   1.614  26.196  0.00  0.00    -0.331 OA
ATOM     29  C   UNL     1       7.268   0.606  27.218  0.00  0.00    +0.179 C 
ATOM     30  C   UNL     1       6.304  -0.595  27.095  0.00  0.00    +0.179 C 
ATOM     31  C   UNL     1       5.585  -0.594  25.745  0.00  0.00    +0.217 C 
ATOM     32  C   UNL     1       4.954   0.787  25.554  0.00  0.00    +0.216 C 
BRANCH  30  33
ATOM     33  O   UNL     1       5.355  -0.617  28.174  0.00  0.00    -0.386 OA
ATOM     34  H   UNL     1       5.307  -1.537  28.517  0.00  0.00    +0.210 HD
ENDBRANCH  30  33
BRANCH  32  35
ATOM     35  O   UNL     1       4.143   1.135  26.702  0.00  0.00    -0.383 OA
ATOM     36  H   UNL     1       3.837   2.062  26.620  0.00  0.00    +0.210 HD
ENDBRANCH  32  35
BRANCH  29  37
ATOM     37  C   UNL     1       7.224   1.259  28.615  0.00  0.00    +0.190 C 
BRANCH  37  38
ATOM     38  O   UNL     1       8.350   0.912  29.419  0.00  0.00    -0.392 OA
ATOM     39  H   UNL     1       8.113   1.063  30.351  0.00  0.00    +0.210 HD
ENDBRANCH  37  38
ENDBRANCH  29  37
BRANCH  31  40
ATOM     40  O   UNL     1       4.560  -1.588  25.698  0.00  0.00    -0.207 OA
BRANCH  40  41
ATOM     41  S   UNL     1       4.828  -2.918  24.804  0.00  0.00    +0.208 S 
ATOM     42  O   UNL     1       3.577  -3.598  24.578  0.00  0.00    -0.118 OA
ATOM     43  O   UNL     1       5.979  -3.601  25.353  0.00  0.00    -0.118 OA
BRANCH  41  44
ATOM     44  O   UNL     1       5.326  -2.303  23.404  0.00  0.00    -0.231 OA
ATOM     45  H   UNL     1       6.269  -2.064  23.508  0.00  0.00    +0.247 HD
ENDBRANCH  41  44
ENDBRANCH  40  41
ENDBRANCH  31  40
ENDBRANCH  26  27
ENDBRANCH  11  26
TORSDOF 14
ENDMDL
MODEL 8
REMARK VINA RESULT:      -6.2      2.240      4.006
REMARK  Name = 
REMARK  14 active torsions:
REMARK  status: ('A' for Active; 'I' for Inactive)
REMARK    1  A    between atoms: C_3  and  O_40
REMARK    2  A    between atoms: C_4  and  O_39
REMARK    3  A    between atoms: C_6  and  C_7
REMARK    4  A    between atoms: C_8  and  O_20
REMARK    5  A    between atoms: C_12  and  O_19
REMARK    6  A    between atoms: C_14  and  O_18
REMARK    7  A    between atoms: O_20  and  C_21
REMARK    8  A    between atoms: C_23  and  O_38
REMARK    9  A    between atoms: C_25  and  O_33
REMARK   10  A    between atoms: C_26  and  O_32
REMARK   11  A    between atoms: C_28  and  C_30
REMARK   12  A    between atoms: C_30  and  O_31
REMARK   13  A    between atoms: O_33  and  S_34
REMARK   14  A    between atoms: S_34  and  O_37
REMARK                            x       y       z     vdW  Elec       q    Type
REMARK                         _______ _______ _______ _____ _____    ______ ____
ROOT
ATOM      1  C   UNL     1       8.306  -1.751  24.001  0.00  0.00    +0.181 A 
ATOM      2  O   UNL     1       8.162  -2.612  22.926  0.00  0.00    -0.451 OA
ATOM      3  C   UNL     1       7.359  -3.704  23.041  0.00  0.00    +0.147 A 
ATOM      4  C   UNL     1       6.832  -4.125  24.254  0.00  0.00    +0.109 A 
ATOM      5  C   UNL     1       6.067  -5.300  24.285  0.00  0.00    +0.135 A 
ATOM      6  C   UNL     1       5.811  -6.017  23.109  0.00  0.00    +0.091 A 
ATOM      7  C   UNL     1       6.312  -5.544  21.900  0.00  0.00    +0.124 A 
ATOM      8  C   UNL     1       7.064  -3.271  25.437  0.00  0.00    +0.238 A 
ATOM      9  O   UNL     1       6.617  -3.615  26.529  0.00  0.00    -0.283 OA
ATOM     10  C   UNL     1       7.088  -4.395  21.860  0.00  0.00    +0.092 A 
ATOM     11  C   UNL     1       7.776  -1.960  25.227  0.00  0.00    +0.214 A 
ENDROOT
BRANCH   1  13
ATOM     12  C   UNL     1      10.193  -0.223  24.290  0.00  0.00    +0.015 A 
ATOM     13  C   UNL     1       9.043  -0.561  23.547  0.00  0.00    +0.025 A 
ATOM     14  C   UNL     1       8.574   0.315  22.561  0.00  0.00    +0.060 A 
ATOM     15  C   UNL     1       9.221   1.537  22.395  0.00  0.00    +0.159 A 
ATOM     16  C   UNL     1      10.315   1.889  23.185  0.00  0.00    +0.158 A 
ATOM     17  C   UNL     1      10.832   0.999  24.109  0.00  0.00    +0.050 A 
BRANCH  15  18
ATOM     18  O   UNL     1       8.740   2.437  21.485  0.00  0.00    -0.503 OA
ATOM     19  H   UNL     1       8.742   1.951  20.635  0.00  0.00    +0.292 HD
ENDBRANCH  15  18
BRANCH  16  20
ATOM     20  O   UNL     1      10.830   3.148  23.045  0.00  0.00    -0.503 OA
ATOM     21  H   UNL     1      10.304   3.748  23.603  0.00  0.00    +0.292 HD
ENDBRANCH  16  20
ENDBRANCH   1  13
BRANCH   5  22
ATOM     22  O   UNL     1       5.530  -5.811  25.435  0.00  0.00    -0.506 OA
ATOM     23  H   UNL     1       6.268  -6.123  26.003  0.00  0.00    +0.292 HD
ENDBRANCH   5  22
BRANCH   7  24
ATOM     24  O   UNL     1       6.068  -6.178  20.719  0.00  0.00    -0.507 OA
ATOM     25  H   UNL     1       5.573  -5.583  20.131  0.00  0.00    +0.292 HD
ENDBRANCH   7  24
BRANCH  11  26
ATOM     26  O   UNL     1       7.842  -1.092  26.305  0.00  0.00    -0.453 OA
BRANCH  26  27
ATOM     27  C   UNL     1       7.098   0.136  26.172  0.00  0.00    +0.340 C 
ATOM     28  O   UNL     1       7.139   0.830  27.417  0.00  0.00    -0.331 OA
ATOM     29  C   UNL     1       5.952   1.262  28.101  0.00  0.00    +0.179 C 
ATOM     30  C   UNL     1       4.618   0.568  27.748  0.00  0.00    +0.179 C 
ATOM     31  C   UNL     1       4.844  -0.641  26.840  0.00  0.00    +0.217 C 
ATOM     32  C   UNL     1       5.689  -0.180  25.650  0.00  0.00    +0.216 C 
BRANCH  30  33
ATOM     33  O   UNL     1       3.693   1.489  27.144  0.00  0.00    -0.386 OA
ATOM     34  H   UNL     1       4.061   2.394  27.238  0.00  0.00    +0.210 HD
ENDBRANCH  30  33
BRANCH  32  35
ATOM     35  O   UNL     1       5.086   0.977  25.021  0.00  0.00    -0.383 OA
ATOM     36  H   UNL     1       5.610   1.777  25.233  0.00  0.00    +0.210 HD
ENDBRANCH  32  35
BRANCH  29  37
ATOM     37  C   UNL     1       5.846   2.802  28.064  0.00  0.00    +0.190 C 
BRANCH  37  38
ATOM     38  O   UNL     1       5.825   3.319  26.735  0.00  0.00    -0.392 OA
ATOM     39  H   UNL     1       6.117   2.613  26.132  0.00  0.00    +0.210 HD
ENDBRANCH  37  38
ENDBRANCH  29  37
BRANCH  31  40
ATOM     40  O   UNL     1       3.608  -1.173  26.360  0.00  0.00    -0.207 OA
BRANCH  40  41
ATOM     41  S   UNL     1       3.184  -2.667  26.836  0.00  0.00    +0.208 S 
ATOM     42  O   UNL     1       3.380  -3.587  25.744  0.00  0.00    -0.118 OA
ATOM     43  O   UNL     1       1.921  -2.572  27.535  0.00  0.00    -0.118 OA
BRANCH  41  44
ATOM     44  O   UNL     1       4.275  -2.994  27.971  0.00  0.00    -0.231 OA
ATOM     45  H   UNL     1       5.088  -2.499  27.748  0.00  0.00    +0.247 HD
ENDBRANCH  41  44
ENDBRANCH  40  41
ENDBRANCH  31  40
ENDBRANCH  26  27
ENDBRANCH  11  26
TORSDOF 14
ENDMDL
MODEL 9
REMARK VINA RESULT:      -6.1      2.296      2.462
REMARK  Name = 
REMARK  14 active torsions:
REMARK  status: ('A' for Active; 'I' for Inactive)
REMARK    1  A    between atoms: C_3  and  O_40
REMARK    2  A    between atoms: C_4  and  O_39
REMARK    3  A    between atoms: C_6  and  C_7
REMARK    4  A    between atoms: C_8  and  O_20
REMARK    5  A    between atoms: C_12  and  O_19
REMARK    6  A    between atoms: C_14  and  O_18
REMARK    7  A    between atoms: O_20  and  C_21
REMARK    8  A    between atoms: C_23  and  O_38
REMARK    9  A    between atoms: C_25  and  O_33
REMARK   10  A    between atoms: C_26  and  O_32
REMARK   11  A    between atoms: C_28  and  C_30
REMARK   12  A    between atoms: C_30  and  O_31
REMARK   13  A    between atoms: O_33  and  S_34
REMARK   14  A    between atoms: S_34  and  O_37
REMARK                            x       y       z     vdW  Elec       q    Type
REMARK                         _______ _______ _______ _____ _____    ______ ____
ROOT
ATOM      1  C   UNL     1       8.294  -0.754  24.832  0.00  0.00    +0.181 A 
ATOM      2  O   UNL     1       9.060  -1.905  24.887  0.00  0.00    -0.451 OA
ATOM      3  C   UNL     1       8.519  -3.052  25.378  0.00  0.00    +0.147 A 
ATOM      4  C   UNL     1       7.293  -3.087  26.028  0.00  0.00    +0.109 A 
ATOM      5  C   UNL     1       6.846  -4.305  26.558  0.00  0.00    +0.135 A 
ATOM      6  C   UNL     1       7.605  -5.473  26.405  0.00  0.00    +0.091 A 
ATOM      7  C   UNL     1       8.806  -5.418  25.707  0.00  0.00    +0.124 A 
ATOM      8  C   UNL     1       6.504  -1.839  26.071  0.00  0.00    +0.238 A 
ATOM      9  O   UNL     1       5.416  -1.830  26.643  0.00  0.00    -0.283 OA
ATOM     10  C   UNL     1       9.270  -4.214  25.197  0.00  0.00    +0.092 A 
ATOM     11  C   UNL     1       7.042  -0.643  25.329  0.00  0.00    +0.214 A 
ENDROOT
BRANCH   1  13
ATOM     12  C   UNL     1      10.290   0.639  24.605  0.00  0.00    +0.015 A 
ATOM     13  C   UNL     1       9.038   0.264  24.074  0.00  0.00    +0.025 A 
ATOM     14  C   UNL     1       8.504   0.975  22.994  0.00  0.00    +0.060 A 
ATOM     15  C   UNL     1       9.198   2.086  22.520  0.00  0.00    +0.159 A 
ATOM     16  C   UNL     1      10.401   2.488  23.099  0.00  0.00    +0.158 A 
ATOM     17  C   UNL     1      10.974   1.749  24.118  0.00  0.00    +0.050 A 
BRANCH  15  18
ATOM     18  O   UNL     1       8.662   2.836  21.509  0.00  0.00    -0.503 OA
ATOM     19  H   UNL     1       8.010   3.415  21.955  0.00  0.00    +0.292 HD
ENDBRANCH  15  18
BRANCH  16  20
ATOM     20  O   UNL     1      10.969   3.651  22.659  0.00  0.00    -0.503 OA
ATOM     21  H   UNL     1      10.594   4.382  23.182  0.00  0.00    +0.292 HD
ENDBRANCH  16  20
ENDBRANCH   1  13
BRANCH   5  22
ATOM     22  O   UNL     1       5.666  -4.435  27.240  0.00  0.00    -0.506 OA
ATOM     23  H   UNL     1       5.860  -4.363  28.200  0.00  0.00    +0.292 HD
ENDBRANCH   5  22
BRANCH   7  24
ATOM     24  O   UNL     1       9.572  -6.525  25.495  0.00  0.00    -0.507 OA
ATOM     25  H   UNL     1      10.501  -6.259  25.397  0.00  0.00    +0.292 HD
ENDBRANCH   7  24
BRANCH  11  26
ATOM     26  O   UNL     1       6.219   0.469  25.234  0.00  0.00    -0.453 OA
BRANCH  26  27
ATOM     27  C   UNL     1       6.217   1.351  26.375  0.00  0.00    +0.340 C 
ATOM     28  O   UNL     1       4.878   1.777  26.618  0.00  0.00    -0.331 OA
ATOM     29  C   UNL     1       4.510   3.162  26.705  0.00  0.00    +0.179 C 
ATOM     30  C   UNL     1       5.453   4.205  26.065  0.00  0.00    +0.179 C 
ATOM     31  C   UNL     1       6.553   3.529  25.246  0.00  0.00    +0.217 C 
ATOM     32  C   UNL     1       7.226   2.485  26.140  0.00  0.00    +0.216 C 
BRANCH  30  33
ATOM     33  O   UNL     1       6.022   5.075  27.059  0.00  0.00    -0.386 OA
ATOM     34  H   UNL     1       5.388   5.808  27.219  0.00  0.00    +0.210 HD
ENDBRANCH  30  33
BRANCH  32  35
ATOM     35  O   UNL     1       7.647   3.085  27.389  0.00  0.00    -0.383 OA
ATOM     36  H   UNL     1       8.262   3.825  27.208  0.00  0.00    +0.210 HD
ENDBRANCH  32  35
BRANCH  29  37
ATOM     37  C   UNL     1       4.128   3.522  28.157  0.00  0.00    +0.190 C 
BRANCH  37  38
ATOM     38  O   UNL     1       3.347   4.714  28.239  0.00  0.00    -0.392 OA
ATOM     39  H   UNL     1       3.052   4.943  27.340  0.00  0.00    +0.210 HD
ENDBRANCH  37  38
ENDBRANCH  29  37
BRANCH  31  40
ATOM     40  O   UNL     1       7.533   4.473  24.809  0.00  0.00    -0.207 OA
BRANCH  40  41
ATOM     41  S   UNL     1       7.200   5.361  23.489  0.00  0.00    +0.208 S 
ATOM     42  O   UNL     1       6.729   6.660  23.897  0.00  0.00    -0.118 OA
ATOM     43  O   UNL     1       6.451   4.532  22.570  0.00  0.00    -0.118 OA
BRANCH  41  44
ATOM     44  O   UNL     1       8.649   5.540  22.815  0.00  0.00    -0.231 OA
ATOM     45  H   UNL     1       9.317   5.408  23.517  0.00  0.00    +0.247 HD
ENDBRANCH  41  44
ENDBRANCH  40  41
ENDBRANCH  31  40
ENDBRANCH  26  27
ENDBRANCH  11  26
TORSDOF 14
ENDMDL
