MODEL 1
REMARK VINA RESULT:      -7.4      0.000      0.000
REMARK  Name = 
REMARK  14 active torsions:
REMARK  status: ('A' for Active; 'I' for Inactive)
REMARK    1  A    between atoms: C_1  and  C_2
REMARK    2  A    between atoms: C_2  and  O_4
REMARK    3  A    between atoms: O_4  and  C_5
REMARK    4  A    between atoms: C_7  and  O_41
REMARK    5  A    between atoms: C_9  and  O_40
REMARK    6  A    between atoms: C_11  and  C_38
REMARK    7  A    between atoms: C_14  and  O_16
REMARK    8  A    between atoms: O_16  and  C_17
REMARK    9  A    between atoms: C_18  and  C_30
REMARK   10  A    between atoms: C_22  and  O_29
REMARK   11  A    between atoms: C_24  and  O_28
REMARK   12  A    between atoms: C_32  and  O_37
REMARK   13  A    between atoms: C_33  and  O_36
REMARK   14  A    between atoms: C_38  and  O_39
REMARK                            x       y       z     vdW  Elec       q    Type
REMARK                         _______ _______ _______ _____ _____    ______ ____
ROOT
ATOM      1  C   UNL     1       6.662  -1.106  24.644  0.00  0.00    +0.214 A 
ATOM      2  C   UNL     1       7.175   0.188  25.257  0.00  0.00    +0.238 A 
ATOM      3  O   UNL     1       6.857   0.556  26.381  0.00  0.00    -0.283 OA
ATOM      4  C   UNL     1       8.100   1.020  24.476  0.00  0.00    +0.109 A 
ATOM      5  C   UNL     1       8.548   0.517  23.267  0.00  0.00    +0.147 A 
ATOM      6  C   UNL     1       9.495   1.214  22.512  0.00  0.00    +0.092 A 
ATOM      7  C   UNL     1       9.985   2.422  22.984  0.00  0.00    +0.124 A 
ATOM      8  C   UNL     1       9.527   2.962  24.178  0.00  0.00    +0.091 A 
ATOM      9  O   UNL     1       8.114  -0.666  22.751  0.00  0.00    -0.451 OA
ATOM     10  C   UNL     1       8.575   2.268  24.918  0.00  0.00    +0.135 A 
ATOM     11  C   UNL     1       7.189  -1.442  23.440  0.00  0.00    +0.181 A 
ENDROOT
BRANCH  11  12
ATOM     12  C   UNL     1       6.950  -2.706  22.678  0.00  0.00    +0.025 A 
ATOM     13  C   UNL     1       5.754  -2.928  21.975  0.00  0.00    +0.015 A 
ATOM     14  C   UNL     1       5.414  -4.208  21.522  0.00  0.00    +0.050 A 
ATOM     15  C   UNL     1       6.261  -5.281  21.790  0.00  0.00    +0.158 A 
ATOM     16  C   UNL     1       7.468  -5.075  22.441  0.00  0.00    +0.159 A 
ATOM     17  C   UNL     1       7.828  -3.798  22.865  0.00  0.00    +0.060 A 
BRANCH  15  18
ATOM     18  O   UNL     1       5.871  -6.542  21.451  0.00  0.00    -0.503 OA
ATOM     19  H   UNL     1       6.675  -7.088  21.562  0.00  0.00    +0.292 HD
ENDBRANCH  15  18
BRANCH  16  20
ATOM     20  O   UNL     1       8.244  -6.173  22.696  0.00  0.00    -0.503 OA
ATOM     21  H   UNL     1       7.699  -6.841  23.148  0.00  0.00    +0.292 HD
ENDBRANCH  16  20
ENDBRANCH  11  12
BRANCH   7  22
ATOM     22  O   UNL     1      10.933   3.128  22.302  0.00  0.00    -0.507 OA
ATOM     23  H   UNL     1      11.087   3.976  22.750  0.00  0.00    +0.292 HD
ENDBRANCH   7  22
BRANCH  10  24
ATOM     24  O   UNL     1       8.109   2.835  26.071  0.00  0.00    -0.506 OA
ATOM     25  H   UNL     1       7.999   3.792  25.956  0.00  0.00    +0.292 HD
ENDBRANCH  10  24
BRANCH   1  26
ATOM     26  O   UNL     1       5.683  -1.901  25.273  0.00  0.00    -0.452 OA
BRANCH  26  28
ATOM     27  C   UNL     1       5.183  -4.212  26.054  0.00  0.00    +0.275 C 
ATOM     28  C   UNL     1       6.146  -2.992  26.099  0.00  0.00    +0.352 C 
ATOM     29  O   UNL     1       7.460  -3.468  25.700  0.00  0.00    -0.330 OA
ATOM     30  C   UNL     1       8.005  -4.328  26.743  0.00  0.00    +0.179 C 
ATOM     31  C   UNL     1       7.107  -5.551  26.984  0.00  0.00    +0.178 C 
ATOM     32  C   UNL     1       5.640  -5.153  27.175  0.00  0.00    +0.192 C 
BRANCH  31  33
ATOM     33  O   UNL     1       7.521  -6.264  28.158  0.00  0.00    -0.386 OA
ATOM     34  H   UNL     1       7.930  -7.085  27.817  0.00  0.00    +0.210 HD
ENDBRANCH  31  33
BRANCH  32  35
ATOM     35  O   UNL     1       4.878  -6.368  27.242  0.00  0.00    -0.385 OA
ATOM     36  H   UNL     1       4.136  -6.211  27.851  0.00  0.00    +0.210 HD
ENDBRANCH  32  35
BRANCH  27  37
ATOM     37  O   UNL     1       3.813  -3.814  26.284  0.00  0.00    -0.452 OA
BRANCH  37  39
ATOM     38  C   UNL     1       3.349  -4.899  24.276  0.00  0.00    +0.136 C 
ATOM     39  C   UNL     1       2.955  -3.814  25.234  0.00  0.00    +0.304 C 
ATOM     40  O   UNL     1       2.017  -3.052  25.076  0.00  0.00    -0.251 OA
ENDBRANCH  37  39
ENDBRANCH  27  37
BRANCH  30  41
ATOM     41  C   UNL     1       9.415  -4.764  26.328  0.00  0.00    +0.190 C 
BRANCH  41  42
ATOM     42  O   UNL     1       9.370  -6.000  25.620  0.00  0.00    -0.392 OA
ATOM     43  H   UNL     1       9.382  -5.759  24.676  0.00  0.00    +0.210 HD
ENDBRANCH  41  42
ENDBRANCH  30  41
ENDBRANCH  26  28
ENDBRANCH   1  26
TORSDOF 13
ENDMDL
MODEL 2
REMARK VINA RESULT:      -7.4      2.333      4.966
REMARK  Name = 
REMARK  14 active torsions:
REMARK  status: ('A' for Active; 'I' for Inactive)
REMARK    1  A    between atoms: C_1  and  C_2
REMARK    2  A    between atoms: C_2  and  O_4
REMARK    3  A    between atoms: O_4  and  C_5
REMARK    4  A    between atoms: C_7  and  O_41
REMARK    5  A    between atoms: C_9  and  O_40
REMARK    6  A    between atoms: C_11  and  C_38
REMARK    7  A    between atoms: C_14  and  O_16
REMARK    8  A    between atoms: O_16  and  C_17
REMARK    9  A    between atoms: C_18  and  C_30
REMARK   10  A    between atoms: C_22  and  O_29
REMARK   11  A    between atoms: C_24  and  O_28
REMARK   12  A    between atoms: C_32  and  O_37
REMARK   13  A    between atoms: C_33  and  O_36
REMARK   14  A    between atoms: C_38  and  O_39
REMARK                            x       y       z     vdW  Elec       q    Type
REMARK                         _______ _______ _______ _____ _____    ______ ____
ROOT
ATOM      1  C   UNL     1       7.691  -2.519  25.378  0.00  0.00    +0.214 A 
ATOM      2  C   UNL     1       8.703  -2.432  24.246  0.00  0.00    +0.238 A 
ATOM      3  O   UNL     1       9.384  -3.388  23.895  0.00  0.00    -0.283 OA
ATOM      4  C   UNL     1       8.858  -1.155  23.536  0.00  0.00    +0.109 A 
ATOM      5  C   UNL     1       7.985  -0.132  23.861  0.00  0.00    +0.147 A 
ATOM      6  C   UNL     1       8.016   1.080  23.168  0.00  0.00    +0.092 A 
ATOM      7  C   UNL     1       8.936   1.254  22.145  0.00  0.00    +0.124 A 
ATOM      8  C   UNL     1       9.844   0.254  21.823  0.00  0.00    +0.091 A 
ATOM      9  O   UNL     1       7.052  -0.240  24.847  0.00  0.00    -0.451 OA
ATOM     10  C   UNL     1       9.814  -0.946  22.525  0.00  0.00    +0.135 A 
ATOM     11  C   UNL     1       6.928  -1.417  25.579  0.00  0.00    +0.181 A 
ENDROOT
BRANCH  11  12
ATOM     12  C   UNL     1       5.790  -1.275  26.537  0.00  0.00    +0.025 A 
ATOM     13  C   UNL     1       4.511  -1.779  26.243  0.00  0.00    +0.015 A 
ATOM     14  C   UNL     1       3.395  -1.388  26.992  0.00  0.00    +0.050 A 
ATOM     15  C   UNL     1       3.548  -0.472  28.029  0.00  0.00    +0.158 A 
ATOM     16  C   UNL     1       4.807  -0.000  28.367  0.00  0.00    +0.159 A 
ATOM     17  C   UNL     1       5.927  -0.410  27.647  0.00  0.00    +0.060 A 
BRANCH  15  18
ATOM     18  O   UNL     1       2.444  -0.006  28.679  0.00  0.00    -0.503 OA
ATOM     19  H   UNL     1       2.404  -0.529  29.505  0.00  0.00    +0.292 HD
ENDBRANCH  15  18
BRANCH  16  20
ATOM     20  O   UNL     1       4.889   0.916  29.380  0.00  0.00    -0.503 OA
ATOM     21  H   UNL     1       4.630   1.788  29.033  0.00  0.00    +0.292 HD
ENDBRANCH  16  20
ENDBRANCH  11  12
BRANCH   7  22
ATOM     22  O   UNL     1       8.990   2.406  21.415  0.00  0.00    -0.507 OA
ATOM     23  H   UNL     1       9.476   2.241  20.589  0.00  0.00    +0.292 HD
ENDBRANCH   7  22
BRANCH  10  24
ATOM     24  O   UNL     1      10.740  -1.903  22.218  0.00  0.00    -0.506 OA
ATOM     25  H   UNL     1      11.634  -1.584  22.421  0.00  0.00    +0.292 HD
ENDBRANCH  10  24
BRANCH   1  26
ATOM     26  O   UNL     1       7.564  -3.667  26.187  0.00  0.00    -0.452 OA
BRANCH  26  28
ATOM     27  C   UNL     1       5.795  -5.335  26.725  0.00  0.00    +0.275 C 
ATOM     28  C   UNL     1       6.778  -4.761  25.665  0.00  0.00    +0.352 C 
ATOM     29  O   UNL     1       5.984  -4.371  24.512  0.00  0.00    -0.330 OA
ATOM     30  C   UNL     1       5.475  -5.562  23.845  0.00  0.00    +0.179 C 
ATOM     31  C   UNL     1       4.580  -6.389  24.783  0.00  0.00    +0.178 C 
ATOM     32  C   UNL     1       5.253  -6.642  26.136  0.00  0.00    +0.192 C 
BRANCH  31  33
ATOM     33  O   UNL     1       4.274  -7.664  24.203  0.00  0.00    -0.386 OA
ATOM     34  H   UNL     1       3.590  -7.471  23.530  0.00  0.00    +0.210 HD
ENDBRANCH  31  33
BRANCH  32  35
ATOM     35  O   UNL     1       4.283  -7.285  26.975  0.00  0.00    -0.385 OA
ATOM     36  H   UNL     1       3.986  -8.088  26.513  0.00  0.00    +0.210 HD
ENDBRANCH  32  35
BRANCH  27  37
ATOM     37  O   UNL     1       6.467  -5.609  27.975  0.00  0.00    -0.452 OA
BRANCH  37  39
ATOM     38  C   UNL     1       4.750  -4.299  28.846  0.00  0.00    +0.136 C 
ATOM     39  C   UNL     1       5.833  -5.297  29.132  0.00  0.00    +0.304 C 
ATOM     40  O   UNL     1       6.098  -5.739  30.236  0.00  0.00    -0.251 OA
ENDBRANCH  37  39
ENDBRANCH  27  37
BRANCH  30  41
ATOM     41  C   UNL     1       4.696  -5.127  22.598  0.00  0.00    +0.190 C 
BRANCH  41  42
ATOM     42  O   UNL     1       3.293  -5.154  22.847  0.00  0.00    -0.392 OA
ATOM     43  H   UNL     1       2.997  -6.039  22.568  0.00  0.00    +0.210 HD
ENDBRANCH  41  42
ENDBRANCH  30  41
ENDBRANCH  26  28
ENDBRANCH   1  26
TORSDOF 13
ENDMDL
MODEL 3
REMARK VINA RESULT:      -7.2      1.971      4.458
REMARK  Name = 
REMARK  14 active torsions:
REMARK  status: ('A' for Active; 'I' for Inactive)
REMARK    1  A    between atoms: C_1  and  C_2
REMARK    2  A    between atoms: C_2  and  O_4
REMARK    3  A    between atoms: O_4  and  C_5
REMARK    4  A    between atoms: C_7  and  O_41
REMARK    5  A    between atoms: C_9  and  O_40
REMARK    6  A    between atoms: C_11  and  C_38
REMARK    7  A    between atoms: C_14  and  O_16
REMARK    8  A    between atoms: O_16  and  C_17
REMARK    9  A    between atoms: C_18  and  C_30
REMARK   10  A    between atoms: C_22  and  O_29
REMARK   11  A    between atoms: C_24  and  O_28
REMARK   12  A    between atoms: C_32  and  O_37
REMARK   13  A    between atoms: C_33  and  O_36
REMARK   14  A    between atoms: C_38  and  O_39
REMARK                            x       y       z     vdW  Elec       q    Type
REMARK                         _______ _______ _______ _____ _____    ______ ____
ROOT
ATOM      1  C   UNL     1       6.564  -1.051  24.366  0.00  0.00    +0.214 A 
ATOM      2  C   UNL     1       7.465  -0.922  23.148  0.00  0.00    +0.238 A 
ATOM      3  O   UNL     1       7.425  -1.713  22.213  0.00  0.00    -0.283 OA
ATOM      4  C   UNL     1       8.408   0.202  23.083  0.00  0.00    +0.109 A 
ATOM      5  C   UNL     1       8.339   1.153  24.085  0.00  0.00    +0.147 A 
ATOM      6  C   UNL     1       9.145   2.294  24.044  0.00  0.00    +0.092 A 
ATOM      7  C   UNL     1      10.022   2.467  22.983  0.00  0.00    +0.124 A 
ATOM      8  C   UNL     1      10.132   1.510  21.983  0.00  0.00    +0.091 A 
ATOM      9  O   UNL     1       7.495   1.048  25.149  0.00  0.00    -0.451 OA
ATOM     10  C   UNL     1       9.334   0.372  22.038  0.00  0.00    +0.135 A 
ATOM     11  C   UNL     1       6.637  -0.040  25.268  0.00  0.00    +0.181 A 
ENDROOT
BRANCH  11  12
ATOM     12  C   UNL     1       5.787   0.141  26.483  0.00  0.00    +0.025 A 
ATOM     13  C   UNL     1       4.414   0.425  26.386  0.00  0.00    +0.015 A 
ATOM     14  C   UNL     1       3.695   0.886  27.496  0.00  0.00    +0.050 A 
ATOM     15  C   UNL     1       4.353   1.087  28.707  0.00  0.00    +0.158 A 
ATOM     16  C   UNL     1       5.696   0.769  28.836  0.00  0.00    +0.159 A 
ATOM     17  C   UNL     1       6.410   0.279  27.745  0.00  0.00    +0.060 A 
BRANCH  15  18
ATOM     18  O   UNL     1       3.676   1.646  29.750  0.00  0.00    -0.503 OA
ATOM     19  H   UNL     1       4.074   2.534  29.856  0.00  0.00    +0.292 HD
ENDBRANCH  15  18
BRANCH  16  20
ATOM     20  O   UNL     1       6.291   1.012  30.045  0.00  0.00    -0.503 OA
ATOM     21  H   UNL     1       7.248   0.860  29.956  0.00  0.00    +0.292 HD
ENDBRANCH  16  20
ENDBRANCH  11  12
BRANCH   7  22
ATOM     22  O   UNL     1      10.809   3.576  22.877  0.00  0.00    -0.507 OA
ATOM     23  H   UNL     1      11.699   3.313  22.587  0.00  0.00    +0.292 HD
ENDBRANCH   7  22
BRANCH  10  24
ATOM     24  O   UNL     1       9.485  -0.575  21.064  0.00  0.00    -0.506 OA
ATOM     25  H   UNL     1      10.381  -0.540  20.696  0.00  0.00    +0.292 HD
ENDBRANCH  10  24
BRANCH   1  26
ATOM     26  O   UNL     1       5.719  -2.161  24.564  0.00  0.00    -0.452 OA
BRANCH  26  28
ATOM     27  C   UNL     1       5.457  -4.543  25.244  0.00  0.00    +0.275 C 
ATOM     28  C   UNL     1       6.170  -3.181  25.483  0.00  0.00    +0.352 C 
ATOM     29  O   UNL     1       7.600  -3.423  25.382  0.00  0.00    -0.330 OA
ATOM     30  C   UNL     1       8.044  -4.207  26.527  0.00  0.00    +0.179 C 
ATOM     31  C   UNL     1       7.333  -5.568  26.582  0.00  0.00    +0.178 C 
ATOM     32  C   UNL     1       5.813  -5.423  26.447  0.00  0.00    +0.192 C 
BRANCH  31  33
ATOM     33  O   UNL     1       7.598  -6.232  27.825  0.00  0.00    -0.386 OA
ATOM     34  H   UNL     1       7.098  -7.071  27.769  0.00  0.00    +0.210 HD
ENDBRANCH  31  33
BRANCH  32  35
ATOM     35  O   UNL     1       5.269  -6.749  26.362  0.00  0.00    -0.385 OA
ATOM     36  H   UNL     1       5.270  -7.120  27.262  0.00  0.00    +0.210 HD
ENDBRANCH  32  35
BRANCH  27  37
ATOM     37  O   UNL     1       4.023  -4.382  25.169  0.00  0.00    -0.452 OA
BRANCH  37  39
ATOM     38  C   UNL     1       1.952  -4.953  24.271  0.00  0.00    +0.136 C 
ATOM     39  C   UNL     1       3.401  -4.673  24.000  0.00  0.00    +0.304 C 
ATOM     40  O   UNL     1       3.924  -4.715  22.901  0.00  0.00    -0.251 OA
ENDBRANCH  37  39
ENDBRANCH  27  37
BRANCH  30  41
ATOM     41  C   UNL     1       9.563  -4.393  26.431  0.00  0.00    +0.190 C 
BRANCH  41  42
ATOM     42  O   UNL     1       9.878  -5.603  25.747  0.00  0.00    -0.392 OA
ATOM     43  H   UNL     1       9.022  -6.040  25.585  0.00  0.00    +0.210 HD
ENDBRANCH  41  42
ENDBRANCH  30  41
ENDBRANCH  26  28
ENDBRANCH   1  26
TORSDOF 13
ENDMDL
MODEL 4
REMARK VINA RESULT:      -7.1      2.015      4.534
REMARK  Name = 
REMARK  14 active torsions:
REMARK  status: ('A' for Active; 'I' for Inactive)
REMARK    1  A    between atoms: C_1  and  C_2
REMARK    2  A    between atoms: C_2  and  O_4
REMARK    3  A    between atoms: O_4  and  C_5
REMARK    4  A    between atoms: C_7  and  O_41
REMARK    5  A    between atoms: C_9  and  O_40
REMARK    6  A    between atoms: C_11  and  C_38
REMARK    7  A    between atoms: C_14  and  O_16
REMARK    8  A    between atoms: O_16  and  C_17
REMARK    9  A    between atoms: C_18  and  C_30
REMARK   10  A    between atoms: C_22  and  O_29
REMARK   11  A    between atoms: C_24  and  O_28
REMARK   12  A    between atoms: C_32  and  O_37
REMARK   13  A    between atoms: C_33  and  O_36
REMARK   14  A    between atoms: C_38  and  O_39
REMARK                            x       y       z     vdW  Elec       q    Type
REMARK                         _______ _______ _______ _____ _____    ______ ____
ROOT
ATOM      1  C   UNL     1       7.662  -3.014  24.925  0.00  0.00    +0.214 A 
ATOM      2  C   UNL     1       8.748  -2.689  23.911  0.00  0.00    +0.238 A 
ATOM      3  O   UNL     1       9.642  -3.477  23.627  0.00  0.00    -0.283 OA
ATOM      4  C   UNL     1       8.714  -1.385  23.235  0.00  0.00    +0.109 A 
ATOM      5  C   UNL     1       7.622  -0.569  23.473  0.00  0.00    +0.147 A 
ATOM      6  C   UNL     1       7.479   0.646  22.800  0.00  0.00    +0.092 A 
ATOM      7  C   UNL     1       8.447   1.034  21.885  0.00  0.00    +0.124 A 
ATOM      8  C   UNL     1       9.567   0.247  21.654  0.00  0.00    +0.091 A 
ATOM      9  O   UNL     1       6.633  -0.894  24.351  0.00  0.00    -0.451 OA
ATOM     10  C   UNL     1       9.708  -0.956  22.338  0.00  0.00    +0.135 A 
ATOM     11  C   UNL     1       6.674  -2.094  25.053  0.00  0.00    +0.181 A 
ENDROOT
BRANCH  11  12
ATOM     12  C   UNL     1       5.437  -2.215  25.883  0.00  0.00    +0.025 A 
ATOM     13  C   UNL     1       5.468  -2.062  27.280  0.00  0.00    +0.015 A 
ATOM     14  C   UNL     1       4.386  -2.468  28.071  0.00  0.00    +0.050 A 
ATOM     15  C   UNL     1       3.273  -3.050  27.469  0.00  0.00    +0.158 A 
ATOM     16  C   UNL     1       3.203  -3.166  26.090  0.00  0.00    +0.159 A 
ATOM     17  C   UNL     1       4.262  -2.735  25.294  0.00  0.00    +0.060 A 
BRANCH  15  18
ATOM     18  O   UNL     1       2.275  -3.548  28.252  0.00  0.00    -0.503 OA
ATOM     19  H   UNL     1       2.353  -3.058  29.095  0.00  0.00    +0.292 HD
ENDBRANCH  15  18
BRANCH  16  20
ATOM     20  O   UNL     1       2.094  -3.768  25.561  0.00  0.00    -0.503 OA
ATOM     21  H   UNL     1       2.329  -4.151  24.698  0.00  0.00    +0.292 HD
ENDBRANCH  16  20
ENDBRANCH  11  12
BRANCH   7  22
ATOM     22  O   UNL     1       8.342   2.196  21.178  0.00  0.00    -0.507 OA
ATOM     23  H   UNL     1       8.717   2.925  21.699  0.00  0.00    +0.292 HD
ENDBRANCH   7  22
BRANCH  10  24
ATOM     24  O   UNL     1      10.837  -1.697  22.124  0.00  0.00    -0.506 OA
ATOM     25  H   UNL     1      11.430  -1.238  21.508  0.00  0.00    +0.292 HD
ENDBRANCH  10  24
BRANCH   1  26
ATOM     26  O   UNL     1       7.687  -4.188  25.704  0.00  0.00    -0.452 OA
BRANCH  26  28
ATOM     27  C   UNL     1       6.219  -5.871  24.601  0.00  0.00    +0.275 C 
ATOM     28  C   UNL     1       6.454  -4.933  25.819  0.00  0.00    +0.352 C 
ATOM     29  O   UNL     1       6.417  -5.762  27.012  0.00  0.00    -0.330 OA
ATOM     30  C   UNL     1       5.055  -6.227  27.241  0.00  0.00    +0.179 C 
ATOM     31  C   UNL     1       4.546  -7.068  26.059  0.00  0.00    +0.178 C 
ATOM     32  C   UNL     1       4.772  -6.363  24.718  0.00  0.00    +0.192 C 
BRANCH  31  33
ATOM     33  O   UNL     1       3.141  -7.325  26.184  0.00  0.00    -0.386 OA
ATOM     34  H   UNL     1       2.951  -8.000  25.501  0.00  0.00    +0.210 HD
ENDBRANCH  31  33
BRANCH  32  35
ATOM     35  O   UNL     1       4.401  -7.289  23.686  0.00  0.00    -0.385 OA
ATOM     36  H   UNL     1       4.049  -8.083  24.123  0.00  0.00    +0.210 HD
ENDBRANCH  32  35
BRANCH  27  37
ATOM     37  O   UNL     1       6.393  -5.168  23.350  0.00  0.00    -0.452 OA
BRANCH  37  39
ATOM     38  C   UNL     1       6.366  -5.719  21.088  0.00  0.00    +0.136 C 
ATOM     39  C   UNL     1       7.132  -5.753  22.377  0.00  0.00    +0.304 C 
ATOM     40  O   UNL     1       8.239  -6.242  22.515  0.00  0.00    -0.251 OA
ENDBRANCH  37  39
ENDBRANCH  27  37
BRANCH  30  41
ATOM     41  C   UNL     1       5.030  -7.045  28.537  0.00  0.00    +0.190 C 
BRANCH  41  42
ATOM     42  O   UNL     1       6.356  -7.318  28.984  0.00  0.00    -0.392 OA
ATOM     43  H   UNL     1       6.639  -6.516  29.461  0.00  0.00    +0.210 HD
ENDBRANCH  41  42
ENDBRANCH  30  41
ENDBRANCH  26  28
ENDBRANCH   1  26
TORSDOF 13
ENDMDL
MODEL 5
REMARK VINA RESULT:      -7.1      2.613      7.324
REMARK  Name = 
REMARK  14 active torsions:
REMARK  status: ('A' for Active; 'I' for Inactive)
REMARK    1  A    between atoms: C_1  and  C_2
REMARK    2  A    between atoms: C_2  and  O_4
REMARK    3  A    between atoms: O_4  and  C_5
REMARK    4  A    between atoms: C_7  and  O_41
REMARK    5  A    between atoms: C_9  and  O_40
REMARK    6  A    between atoms: C_11  and  C_38
REMARK    7  A    between atoms: C_14  and  O_16
REMARK    8  A    between atoms: O_16  and  C_17
REMARK    9  A    between atoms: C_18  and  C_30
REMARK   10  A    between atoms: C_22  and  O_29
REMARK   11  A    between atoms: C_24  and  O_28
REMARK   12  A    between atoms: C_32  and  O_37
REMARK   13  A    between atoms: C_33  and  O_36
REMARK   14  A    between atoms: C_38  and  O_39
REMARK                            x       y       z     vdW  Elec       q    Type
REMARK                         _______ _______ _______ _____ _____    ______ ____
ROOT
ATOM      1  C   UNL     1       6.435  -1.113  24.788  0.00  0.00    +0.214 A 
ATOM      2  C   UNL     1       5.352  -2.179  24.763  0.00  0.00    +0.238 A 
ATOM      3  O   UNL     1       4.254  -2.016  25.282  0.00  0.00    -0.283 OA
ATOM      4  C   UNL     1       5.627  -3.448  24.076  0.00  0.00    +0.109 A 
ATOM      5  C   UNL     1       6.820  -3.556  23.385  0.00  0.00    +0.147 A 
ATOM      6  C   UNL     1       7.112  -4.700  22.637  0.00  0.00    +0.092 A 
ATOM      7  C   UNL     1       6.190  -5.735  22.594  0.00  0.00    +0.124 A 
ATOM      8  C   UNL     1       5.001  -5.663  23.306  0.00  0.00    +0.091 A 
ATOM      9  O   UNL     1       7.764  -2.573  23.379  0.00  0.00    -0.451 OA
ATOM     10  C   UNL     1       4.724  -4.526  24.057  0.00  0.00    +0.135 A 
ATOM     11  C   UNL     1       7.556  -1.387  24.075  0.00  0.00    +0.181 A 
ENDROOT
BRANCH  11  12
ATOM     12  C   UNL     1       8.714  -0.474  23.837  0.00  0.00    +0.025 A 
ATOM     13  C   UNL     1       9.610  -0.135  24.865  0.00  0.00    +0.015 A 
ATOM     14  C   UNL     1      10.499   0.936  24.720  0.00  0.00    +0.050 A 
ATOM     15  C   UNL     1      10.482   1.692  23.550  0.00  0.00    +0.158 A 
ATOM     16  C   UNL     1       9.639   1.345  22.505  0.00  0.00    +0.159 A 
ATOM     17  C   UNL     1       8.775   0.260  22.630  0.00  0.00    +0.060 A 
BRANCH  15  18
ATOM     18  O   UNL     1      11.265   2.803  23.460  0.00  0.00    -0.503 OA
ATOM     19  H   UNL     1      12.172   2.483  23.643  0.00  0.00    +0.292 HD
ENDBRANCH  15  18
BRANCH  16  20
ATOM     20  O   UNL     1       9.651   2.141  21.392  0.00  0.00    -0.503 OA
ATOM     21  H   UNL     1       9.527   3.066  21.669  0.00  0.00    +0.292 HD
ENDBRANCH  16  20
ENDBRANCH  11  12
BRANCH   7  22
ATOM     22  O   UNL     1       6.410  -6.861  21.855  0.00  0.00    -0.507 OA
ATOM     23  H   UNL     1       6.795  -6.614  20.998  0.00  0.00    +0.292 HD
ENDBRANCH   7  22
BRANCH  10  24
ATOM     24  O   UNL     1       3.564  -4.492  24.780  0.00  0.00    -0.506 OA
ATOM     25  H   UNL     1       2.797  -4.479  24.187  0.00  0.00    +0.292 HD
ENDBRANCH  10  24
BRANCH   1  26
ATOM     26  O   UNL     1       6.299   0.081  25.525  0.00  0.00    -0.452 OA
BRANCH  26  28
ATOM     27  C   UNL     1       4.676   1.970  25.544  0.00  0.00    +0.275 C 
ATOM     28  C   UNL     1       5.843   1.251  24.809  0.00  0.00    +0.352 C 
ATOM     29  O   UNL     1       6.899   2.231  24.622  0.00  0.00    -0.330 OA
ATOM     30  C   UNL     1       6.479   3.220  23.636  0.00  0.00    +0.179 C 
ATOM     31  C   UNL     1       5.214   3.963  24.095  0.00  0.00    +0.178 C 
ATOM     32  C   UNL     1       4.117   2.994  24.550  0.00  0.00    +0.192 C 
BRANCH  31  33
ATOM     33  O   UNL     1       4.677   4.760  23.031  0.00  0.00    -0.386 OA
ATOM     34  H   UNL     1       3.958   5.277  23.448  0.00  0.00    +0.210 HD
ENDBRANCH  31  33
BRANCH  32  35
ATOM     35  O   UNL     1       3.051   3.789  25.091  0.00  0.00    -0.385 OA
ATOM     36  H   UNL     1       3.184   4.702  24.782  0.00  0.00    +0.210 HD
ENDBRANCH  32  35
BRANCH  27  37
ATOM     37  O   UNL     1       3.635   1.041  25.919  0.00  0.00    -0.452 OA
BRANCH  37  39
ATOM     38  C   UNL     1       3.700   0.134  28.062  0.00  0.00    +0.136 C 
ATOM     39  C   UNL     1       3.082   1.152  27.151  0.00  0.00    +0.304 C 
ATOM     40  O   UNL     1       2.212   1.941  27.478  0.00  0.00    -0.251 OA
ENDBRANCH  37  39
ENDBRANCH  27  37
BRANCH  30  41
ATOM     41  C   UNL     1       7.632   4.203  23.409  0.00  0.00    +0.190 C 
BRANCH  41  42
ATOM     42  O   UNL     1       7.754   4.525  22.026  0.00  0.00    -0.392 OA
ATOM     43  H   UNL     1       7.103   5.233  21.866  0.00  0.00    +0.210 HD
ENDBRANCH  41  42
ENDBRANCH  30  41
ENDBRANCH  26  28
ENDBRANCH   1  26
TORSDOF 13
ENDMDL
MODEL 6
REMARK VINA RESULT:      -6.6      2.670      5.963
REMARK  Name = 
REMARK  14 active torsions:
REMARK  status: ('A' for Active; 'I' for Inactive)
REMARK    1  A    between atoms: C_1  and  C_2
REMARK    2  A    between atoms: C_2  and  O_4
REMARK    3  A    between atoms: O_4  and  C_5
REMARK    4  A    between atoms: C_7  and  O_41
REMARK    5  A    between atoms: C_9  and  O_40
REMARK    6  A    between atoms: C_11  and  C_38
REMARK    7  A    between atoms: C_14  and  O_16
REMARK    8  A    between atoms: O_16  and  C_17
REMARK    9  A    between atoms: C_18  and  C_30
REMARK   10  A    between atoms: C_22  and  O_29
REMARK   11  A    between atoms: C_24  and  O_28
REMARK   12  A    between atoms: C_32  and  O_37
REMARK   13  A    between atoms: C_33  and  O_36
REMARK   14  A    between atoms: C_38  and  O_39
REMARK                            x       y       z     vdW  Elec       q    Type
REMARK                         _______ _______ _______ _____ _____    ______ ____
ROOT
ATOM      1  C   UNL     1       6.722  -1.332  26.536  0.00  0.00    +0.214 A 
ATOM      2  C   UNL     1       6.418  -0.190  27.492  0.00  0.00    +0.238 A 
ATOM      3  O   UNL     1       7.289   0.549  27.935  0.00  0.00    -0.283 OA
ATOM      4  C   UNL     1       5.023   0.046  27.888  0.00  0.00    +0.109 A 
ATOM      5  C   UNL     1       4.046  -0.715  27.272  0.00  0.00    +0.147 A 
ATOM      6  C   UNL     1       2.692  -0.487  27.535  0.00  0.00    +0.092 A 
ATOM      7  C   UNL     1       2.333   0.513  28.425  0.00  0.00    +0.124 A 
ATOM      8  C   UNL     1       3.297   1.268  29.080  0.00  0.00    +0.091 A 
ATOM      9  O   UNL     1       4.330  -1.705  26.382  0.00  0.00    -0.451 OA
ATOM     10  C   UNL     1       4.642   1.026  28.822  0.00  0.00    +0.135 A 
ATOM     11  C   UNL     1       5.647  -1.993  26.039  0.00  0.00    +0.181 A 
ENDROOT
BRANCH  11  12
ATOM     12  C   UNL     1       5.655  -3.068  25.001  0.00  0.00    +0.025 A 
ATOM     13  C   UNL     1       5.559  -2.771  23.631  0.00  0.00    +0.015 A 
ATOM     14  C   UNL     1       5.267  -3.772  22.697  0.00  0.00    +0.050 A 
ATOM     15  C   UNL     1       5.048  -5.076  23.132  0.00  0.00    +0.158 A 
ATOM     16  C   UNL     1       5.184  -5.400  24.473  0.00  0.00    +0.159 A 
ATOM     17  C   UNL     1       5.506  -4.415  25.404  0.00  0.00    +0.060 A 
BRANCH  15  18
ATOM     18  O   UNL     1       4.649  -6.022  22.235  0.00  0.00    -0.503 OA
ATOM     19  H   UNL     1       3.790  -5.698  21.898  0.00  0.00    +0.292 HD
ENDBRANCH  15  18
BRANCH  16  20
ATOM     20  O   UNL     1       4.932  -6.694  24.841  0.00  0.00    -0.503 OA
ATOM     21  H   UNL     1       5.672  -7.252  24.543  0.00  0.00    +0.292 HD
ENDBRANCH  16  20
ENDBRANCH  11  12
BRANCH   7  22
ATOM     22  O   UNL     1       1.026   0.799  28.695  0.00  0.00    -0.507 OA
ATOM     23  H   UNL     1       0.539   0.899  27.860  0.00  0.00    +0.292 HD
ENDBRANCH   7  22
BRANCH  10  24
ATOM     24  O   UNL     1       5.575   1.754  29.506  0.00  0.00    -0.506 OA
ATOM     25  H   UNL     1       6.190   1.164  29.969  0.00  0.00    +0.292 HD
ENDBRANCH  10  24
BRANCH   1  26
ATOM     26  O   UNL     1       8.040  -1.702  26.200  0.00  0.00    -0.452 OA
BRANCH  26  28
ATOM     27  C   UNL     1       9.084  -1.927  23.949  0.00  0.00    +0.275 C 
ATOM     28  C   UNL     1       8.672  -0.984  25.116  0.00  0.00    +0.352 C 
ATOM     29  O   UNL     1       7.810   0.041  24.555  0.00  0.00    -0.330 OA
ATOM     30  C   UNL     1       8.596   0.929  23.707  0.00  0.00    +0.179 C 
ATOM     31  C   UNL     1       9.244   0.161  22.544  0.00  0.00    +0.178 C 
ATOM     32  C   UNL     1       9.981  -1.092  23.028  0.00  0.00    +0.192 C 
BRANCH  31  33
ATOM     33  O   UNL     1      10.193   0.985  21.854  0.00  0.00    -0.386 OA
ATOM     34  H   UNL     1      11.053   0.771  22.269  0.00  0.00    +0.210 HD
ENDBRANCH  31  33
BRANCH  32  35
ATOM     35  O   UNL     1      10.415  -1.804  21.860  0.00  0.00    -0.385 OA
ATOM     36  H   UNL     1       9.650  -1.874  21.262  0.00  0.00    +0.210 HD
ENDBRANCH  32  35
BRANCH  27  37
ATOM     37  O   UNL     1       9.818  -3.075  24.430  0.00  0.00    -0.452 OA
BRANCH  37  39
ATOM     38  C   UNL     1       9.418  -4.892  25.830  0.00  0.00    +0.136 C 
ATOM     39  C   UNL     1       9.184  -4.271  24.485  0.00  0.00    +0.304 C 
ATOM     40  O   UNL     1       8.534  -4.779  23.588  0.00  0.00    -0.251 OA
ENDBRANCH  37  39
ENDBRANCH  27  37
BRANCH  30  41
ATOM     41  C   UNL     1       7.678   2.038  23.179  0.00  0.00    +0.190 C 
BRANCH  41  42
ATOM     42  O   UNL     1       7.231   1.734  21.860  0.00  0.00    -0.392 OA
ATOM     43  H   UNL     1       6.288   1.506  21.952  0.00  0.00    +0.210 HD
ENDBRANCH  41  42
ENDBRANCH  30  41
ENDBRANCH  26  28
ENDBRANCH   1  26
TORSDOF 13
ENDMDL
MODEL 7
REMARK VINA RESULT:      -6.5      1.854      4.601
REMARK  Name = 
REMARK  14 active torsions:
REMARK  status: ('A' for Active; 'I' for Inactive)
REMARK    1  A    between atoms: C_1  and  C_2
REMARK    2  A    between atoms: C_2  and  O_4
REMARK    3  A    between atoms: O_4  and  C_5
REMARK    4  A    between atoms: C_7  and  O_41
REMARK    5  A    between atoms: C_9  and  O_40
REMARK    6  A    between atoms: C_11  and  C_38
REMARK    7  A    between atoms: C_14  and  O_16
REMARK    8  A    between atoms: O_16  and  C_17
REMARK    9  A    between atoms: C_18  and  C_30
REMARK   10  A    between atoms: C_22  and  O_29
REMARK   11  A    between atoms: C_24  and  O_28
REMARK   12  A    between atoms: C_32  and  O_37
REMARK   13  A    between atoms: C_33  and  O_36
REMARK   14  A    between atoms: C_38  and  O_39
REMARK                            x       y       z     vdW  Elec       q    Type
REMARK                         _______ _______ _______ _____ _____    ______ ____
ROOT
ATOM      1  C   UNL     1       7.380  -2.320  25.654  0.00  0.00    +0.214 A 
ATOM      2  C   UNL     1       8.573  -1.627  25.014  0.00  0.00    +0.238 A 
ATOM      3  O   UNL     1       9.483  -2.245  24.474  0.00  0.00    -0.283 OA
ATOM      4  C   UNL     1       8.628  -0.159  25.030  0.00  0.00    +0.109 A 
ATOM      5  C   UNL     1       7.527   0.517  25.524  0.00  0.00    +0.147 A 
ATOM      6  C   UNL     1       7.472   1.913  25.492  0.00  0.00    +0.092 A 
ATOM      7  C   UNL     1       8.538   2.621  24.958  0.00  0.00    +0.124 A 
ATOM      8  C   UNL     1       9.667   1.966  24.486  0.00  0.00    +0.091 A 
ATOM      9  O   UNL     1       6.444  -0.118  26.054  0.00  0.00    -0.451 OA
ATOM     10  C   UNL     1       9.718   0.577  24.533  0.00  0.00    +0.135 A 
ATOM     11  C   UNL     1       6.395  -1.507  26.110  0.00  0.00    +0.181 A 
ENDROOT
BRANCH  11  12
ATOM     12  C   UNL     1       5.074  -1.924  26.670  0.00  0.00    +0.025 A 
ATOM     13  C   UNL     1       4.846  -1.982  28.056  0.00  0.00    +0.015 A 
ATOM     14  C   UNL     1       3.730  -2.649  28.573  0.00  0.00    +0.050 A 
ATOM     15  C   UNL     1       2.844  -3.284  27.706  0.00  0.00    +0.158 A 
ATOM     16  C   UNL     1       3.025  -3.200  26.334  0.00  0.00    +0.159 A 
ATOM     17  C   UNL     1       4.116  -2.509  25.811  0.00  0.00    +0.060 A 
BRANCH  15  18
ATOM     18  O   UNL     1       1.825  -4.031  28.219  0.00  0.00    -0.503 OA
ATOM     19  H   UNL     1       1.581  -3.577  29.051  0.00  0.00    +0.292 HD
ENDBRANCH  15  18
BRANCH  16  20
ATOM     20  O   UNL     1       2.135  -3.865  25.536  0.00  0.00    -0.503 OA
ATOM     21  H   UNL     1       1.357  -4.105  26.070  0.00  0.00    +0.292 HD
ENDBRANCH  16  20
ENDBRANCH  11  12
BRANCH   7  22
ATOM     22  O   UNL     1       8.524   3.983  24.873  0.00  0.00    -0.507 OA
ATOM     23  H   UNL     1       8.789   4.253  23.977  0.00  0.00    +0.292 HD
ENDBRANCH   7  22
BRANCH  10  24
ATOM     24  O   UNL     1      10.855  -0.046  24.098  0.00  0.00    -0.506 OA
ATOM     25  H   UNL     1      11.138   0.325  23.248  0.00  0.00    +0.292 HD
ENDBRANCH  10  24
BRANCH   1  26
ATOM     26  O   UNL     1       7.306  -3.721  25.788  0.00  0.00    -0.452 OA
BRANCH  26  28
ATOM     27  C   UNL     1       5.721  -5.460  24.973  0.00  0.00    +0.275 C 
ATOM     28  C   UNL     1       6.874  -4.475  24.633  0.00  0.00    +0.352 C 
ATOM     29  O   UNL     1       6.403  -3.617  23.559  0.00  0.00    -0.330 OA
ATOM     30  C   UNL     1       6.290  -4.393  22.330  0.00  0.00    +0.179 C 
ATOM     31  C   UNL     1       5.292  -5.551  22.490  0.00  0.00    +0.178 C 
ATOM     32  C   UNL     1       5.571  -6.374  23.752  0.00  0.00    +0.192 C 
BRANCH  31  33
ATOM     33  O   UNL     1       5.357  -6.440  21.367  0.00  0.00    -0.386 OA
ATOM     34  H   UNL     1       5.707  -5.890  20.637  0.00  0.00    +0.210 HD
ENDBRANCH  31  33
BRANCH  32  35
ATOM     35  O   UNL     1       4.503  -7.325  23.880  0.00  0.00    -0.385 OA
ATOM     36  H   UNL     1       4.731  -7.918  24.617  0.00  0.00    +0.210 HD
ENDBRANCH  32  35
BRANCH  27  37
ATOM     37  O   UNL     1       6.032  -6.257  26.139  0.00  0.00    -0.452 OA
BRANCH  37  39
ATOM     38  C   UNL     1       5.933  -5.596  28.369  0.00  0.00    +0.136 C 
ATOM     39  C   UNL     1       5.199  -6.193  27.206  0.00  0.00    +0.304 C 
ATOM     40  O   UNL     1       4.040  -6.568  27.233  0.00  0.00    -0.251 OA
ENDBRANCH  37  39
ENDBRANCH  27  37
BRANCH  30  41
ATOM     41  C   UNL     1       5.853  -3.455  21.199  0.00  0.00    +0.190 C 
BRANCH  41  42
ATOM     42  O   UNL     1       5.807  -4.151  19.957  0.00  0.00    -0.392 OA
ATOM     43  H   UNL     1       6.212  -5.020  20.132  0.00  0.00    +0.210 HD
ENDBRANCH  41  42
ENDBRANCH  30  41
ENDBRANCH  26  28
ENDBRANCH   1  26
TORSDOF 13
ENDMDL
MODEL 8
REMARK VINA RESULT:      -6.5      2.655      7.399
REMARK  Name = 
REMARK  14 active torsions:
REMARK  status: ('A' for Active; 'I' for Inactive)
REMARK    1  A    between atoms: C_1  and  C_2
REMARK    2  A    between atoms: C_2  and  O_4
REMARK    3  A    between atoms: O_4  and  C_5
REMARK    4  A    between atoms: C_7  and  O_41
REMARK    5  A    between atoms: C_9  and  O_40
REMARK    6  A    between atoms: C_11  and  C_38
REMARK    7  A    between atoms: C_14  and  O_16
REMARK    8  A    between atoms: O_16  and  C_17
REMARK    9  A    between atoms: C_18  and  C_30
REMARK   10  A    between atoms: C_22  and  O_29
REMARK   11  A    between atoms: C_24  and  O_28
REMARK   12  A    between atoms: C_32  and  O_37
REMARK   13  A    between atoms: C_33  and  O_36
REMARK   14  A    between atoms: C_38  and  O_39
REMARK                            x       y       z     vdW  Elec       q    Type
REMARK                         _______ _______ _______ _____ _____    ______ ____
ROOT
ATOM      1  C   UNL     1       6.527  -1.276  24.732  0.00  0.00    +0.214 A 
ATOM      2  C   UNL     1       5.404  -2.294  24.609  0.00  0.00    +0.238 A 
ATOM      3  O   UNL     1       4.354  -2.195  25.232  0.00  0.00    -0.283 OA
ATOM      4  C   UNL     1       5.580  -3.432  23.697  0.00  0.00    +0.109 A 
ATOM      5  C   UNL     1       6.715  -3.449  22.907  0.00  0.00    +0.147 A 
ATOM      6  C   UNL     1       6.907  -4.453  21.954  0.00  0.00    +0.092 A 
ATOM      7  C   UNL     1       5.946  -5.441  21.807  0.00  0.00    +0.124 A 
ATOM      8  C   UNL     1       4.814  -5.463  22.610  0.00  0.00    +0.091 A 
ATOM      9  O   UNL     1       7.692  -2.504  22.995  0.00  0.00    -0.451 OA
ATOM     10  C   UNL     1       4.636  -4.467  23.564  0.00  0.00    +0.135 A 
ATOM     11  C   UNL     1       7.581  -1.452  23.898  0.00  0.00    +0.181 A 
ENDROOT
BRANCH  11  12
ATOM     12  C   UNL     1       8.754  -0.541  23.729  0.00  0.00    +0.025 A 
ATOM     13  C   UNL     1       9.652  -0.293  24.781  0.00  0.00    +0.015 A 
ATOM     14  C   UNL     1      10.557   0.773  24.716  0.00  0.00    +0.050 A 
ATOM     15  C   UNL     1      10.554   1.613  23.606  0.00  0.00    +0.158 A 
ATOM     16  C   UNL     1       9.710   1.358  22.536  0.00  0.00    +0.159 A 
ATOM     17  C   UNL     1       8.829   0.279  22.580  0.00  0.00    +0.060 A 
BRANCH  15  18
ATOM     18  O   UNL     1      11.355   2.716  23.599  0.00  0.00    -0.503 OA
ATOM     19  H   UNL     1      11.896   2.625  22.789  0.00  0.00    +0.292 HD
ENDBRANCH  15  18
BRANCH  16  20
ATOM     20  O   UNL     1       9.737   2.233  21.485  0.00  0.00    -0.503 OA
ATOM     21  H   UNL     1      10.584   2.131  21.017  0.00  0.00    +0.292 HD
ENDBRANCH  16  20
ENDBRANCH  11  12
BRANCH   7  22
ATOM     22  O   UNL     1       6.068  -6.428  20.872  0.00  0.00    -0.507 OA
ATOM     23  H   UNL     1       7.010  -6.611  20.718  0.00  0.00    +0.292 HD
ENDBRANCH   7  22
BRANCH  10  24
ATOM     24  O   UNL     1       3.534  -4.528  24.370  0.00  0.00    -0.506 OA
ATOM     25  H   UNL     1       3.785  -4.376  25.295  0.00  0.00    +0.292 HD
ENDBRANCH  10  24
BRANCH   1  26
ATOM     26  O   UNL     1       6.491  -0.225  25.669  0.00  0.00    -0.452 OA
BRANCH  26  28
ATOM     27  C   UNL     1       5.457   1.843  26.598  0.00  0.00    +0.275 C 
ATOM     28  C   UNL     1       5.621   0.892  25.378  0.00  0.00    +0.352 C 
ATOM     29  O   UNL     1       6.108   1.697  24.270  0.00  0.00    -0.330 OA
ATOM     30  C   UNL     1       5.052   2.596  23.819  0.00  0.00    +0.179 C 
ATOM     31  C   UNL     1       4.611   3.547  24.943  0.00  0.00    +0.178 C 
ATOM     32  C   UNL     1       4.309   2.793  26.242  0.00  0.00    +0.192 C 
BRANCH  31  33
ATOM     33  O   UNL     1       3.426   4.263  24.569  0.00  0.00    -0.386 OA
ATOM     34  H   UNL     1       3.326   4.951  25.257  0.00  0.00    +0.210 HD
ENDBRANCH  31  33
BRANCH  32  35
ATOM     35  O   UNL     1       4.054   3.780  27.253  0.00  0.00    -0.385 OA
ATOM     36  H   UNL     1       3.377   4.385  26.904  0.00  0.00    +0.210 HD
ENDBRANCH  32  35
BRANCH  27  37
ATOM     37  O   UNL     1       5.126   1.110  27.799  0.00  0.00    -0.452 OA
BRANCH  37  39
ATOM     38  C   UNL     1       5.197   1.107  30.126  0.00  0.00    +0.136 C 
ATOM     39  C   UNL     1       5.980   1.169  28.849  0.00  0.00    +0.304 C 
ATOM     40  O   UNL     1       7.193   1.268  28.781  0.00  0.00    -0.251 OA
ENDBRANCH  37  39
ENDBRANCH  27  37
BRANCH  30  41
ATOM     41  C   UNL     1       5.568   3.387  22.612  0.00  0.00    +0.190 C 
BRANCH  41  42
ATOM     42  O   UNL     1       4.482   3.921  21.860  0.00  0.00    -0.392 OA
ATOM     43  H   UNL     1       4.419   3.363  21.063  0.00  0.00    +0.210 HD
ENDBRANCH  41  42
ENDBRANCH  30  41
ENDBRANCH  26  28
ENDBRANCH   1  26
TORSDOF 13
ENDMDL
MODEL 9
REMARK VINA RESULT:      -6.4      1.883      3.434
REMARK  Name = 
REMARK  14 active torsions:
REMARK  status: ('A' for Active; 'I' for Inactive)
REMARK    1  A    between atoms: C_1  and  C_2
REMARK    2  A    between atoms: C_2  and  O_4
REMARK    3  A    between atoms: O_4  and  C_5
REMARK    4  A    between atoms: C_7  and  O_41
REMARK    5  A    between atoms: C_9  and  O_40
REMARK    6  A    between atoms: C_11  and  C_38
REMARK    7  A    between atoms: C_14  and  O_16
REMARK    8  A    between atoms: O_16  and  C_17
REMARK    9  A    between atoms: C_18  and  C_30
REMARK   10  A    between atoms: C_22  and  O_29
REMARK   11  A    between atoms: C_24  and  O_28
REMARK   12  A    between atoms: C_32  and  O_37
REMARK   13  A    between atoms: C_33  and  O_36
REMARK   14  A    between atoms: C_38  and  O_39
REMARK                            x       y       z     vdW  Elec       q    Type
REMARK                         _______ _______ _______ _____ _____    ______ ____
ROOT
ATOM      1  C   UNL     1       7.080  -0.767  25.172  0.00  0.00    +0.214 A 
ATOM      2  C   UNL     1       7.311   0.676  25.591  0.00  0.00    +0.238 A 
ATOM      3  O   UNL     1       7.549   0.996  26.749  0.00  0.00    -0.283 OA
ATOM      4  C   UNL     1       7.261   1.725  24.564  0.00  0.00    +0.109 A 
ATOM      5  C   UNL     1       7.125   1.325  23.247  0.00  0.00    +0.147 A 
ATOM      6  C   UNL     1       7.157   2.261  22.209  0.00  0.00    +0.092 A 
ATOM      7  C   UNL     1       7.326   3.604  22.512  0.00  0.00    +0.124 A 
ATOM      8  C   UNL     1       7.432   4.032  23.827  0.00  0.00    +0.091 A 
ATOM      9  O   UNL     1       6.965   0.023  22.881  0.00  0.00    -0.451 OA
ATOM     10  C   UNL     1       7.388   3.096  24.855  0.00  0.00    +0.135 A 
ATOM     11  C   UNL     1       6.942  -0.984  23.840  0.00  0.00    +0.181 A 
ENDROOT
BRANCH  11  12
ATOM     12  C   UNL     1       6.824  -2.306  23.154  0.00  0.00    +0.025 A 
ATOM     13  C   UNL     1       5.653  -2.681  22.472  0.00  0.00    +0.015 A 
ATOM     14  C   UNL     1       5.435  -4.012  22.097  0.00  0.00    +0.050 A 
ATOM     15  C   UNL     1       6.380  -4.982  22.420  0.00  0.00    +0.158 A 
ATOM     16  C   UNL     1       7.563  -4.626  23.049  0.00  0.00    +0.159 A 
ATOM     17  C   UNL     1       7.801  -3.299  23.397  0.00  0.00    +0.060 A 
BRANCH  15  18
ATOM     18  O   UNL     1       6.111  -6.292  22.157  0.00  0.00    -0.503 OA
ATOM     19  H   UNL     1       5.184  -6.418  22.446  0.00  0.00    +0.292 HD
ENDBRANCH  15  18
BRANCH  16  20
ATOM     20  O   UNL     1       8.440  -5.629  23.362  0.00  0.00    -0.503 OA
ATOM     21  H   UNL     1       9.346  -5.273  23.324  0.00  0.00    +0.292 HD
ENDBRANCH  16  20
ENDBRANCH  11  12
BRANCH   7  22
ATOM     22  O   UNL     1       7.395   4.556  21.536  0.00  0.00    -0.507 OA
ATOM     23  H   UNL     1       7.604   5.415  21.940  0.00  0.00    +0.292 HD
ENDBRANCH   7  22
BRANCH  10  24
ATOM     24  O   UNL     1       7.456   3.542  26.145  0.00  0.00    -0.506 OA
ATOM     25  H   UNL     1       6.869   3.020  26.714  0.00  0.00    +0.292 HD
ENDBRANCH  10  24
BRANCH   1  26
ATOM     26  O   UNL     1       6.992  -1.818  26.107  0.00  0.00    -0.452 OA
BRANCH  26  28
ATOM     27  C   UNL     1       5.705  -3.666  27.172  0.00  0.00    +0.275 C 
ATOM     28  C   UNL     1       5.669  -2.288  26.451  0.00  0.00    +0.352 C 
ATOM     29  O   UNL     1       4.965  -1.365  27.325  0.00  0.00    -0.330 OA
ATOM     30  C   UNL     1       3.552  -1.723  27.374  0.00  0.00    +0.179 C 
ATOM     31  C   UNL     1       3.355  -3.145  27.923  0.00  0.00    +0.178 C 
ATOM     32  C   UNL     1       4.255  -4.160  27.212  0.00  0.00    +0.192 C 
BRANCH  31  33
ATOM     33  O   UNL     1       1.997  -3.572  27.754  0.00  0.00    -0.386 OA
ATOM     34  H   UNL     1       1.460  -2.794  28.005  0.00  0.00    +0.210 HD
ENDBRANCH  31  33
BRANCH  32  35
ATOM     35  O   UNL     1       4.100  -5.413  27.896  0.00  0.00    -0.385 OA
ATOM     36  H   UNL     1       4.389  -6.114  27.286  0.00  0.00    +0.210 HD
ENDBRANCH  32  35
BRANCH  27  37
ATOM     37  O   UNL     1       6.523  -4.617  26.454  0.00  0.00    -0.452 OA
BRANCH  37  39
ATOM     38  C   UNL     1       8.832  -4.849  26.633  0.00  0.00    +0.136 C 
ATOM     39  C   UNL     1       7.487  -5.283  27.134  0.00  0.00    +0.304 C 
ATOM     40  O   UNL     1       7.305  -6.113  28.008  0.00  0.00    -0.251 OA
ENDBRANCH  37  39
ENDBRANCH  27  37
BRANCH  30  41
ATOM     41  C   UNL     1       2.821  -0.698  28.249  0.00  0.00    +0.190 C 
BRANCH  41  42
ATOM     42  O   UNL     1       2.493  -1.263  29.516  0.00  0.00    -0.392 OA
ATOM     43  H   UNL     1       2.850  -0.642  30.177  0.00  0.00    +0.210 HD
ENDBRANCH  41  42
ENDBRANCH  30  41
ENDBRANCH  26  28
ENDBRANCH   1  26
TORSDOF 13
ENDMDL
