MODEL 1
REMARK VINA RESULT:      -7.5      0.000      0.000
REMARK  Name = 
REMARK  8 active torsions:
REMARK  status: ('A' for Active; 'I' for Inactive)
REMARK    1  A    between atoms: C_1  and  O_2
REMARK    2  A    between atoms: O_2  and  C_3
REMARK    3  A    between atoms: C_4  and  O_24
REMARK    4  A    between atoms: C_6  and  C_9
REMARK    5  A    between atoms: C_10  and  O_23
REMARK    6  A    between atoms: C_14  and  O_22
REMARK    7  A    between atoms: C_16  and  O_20
REMARK    8  A    between atoms: O_20  and  C_21
REMARK                            x       y       z     vdW  Elec       q    Type
REMARK                         _______ _______ _______ _____ _____    ______ ____
ROOT
ATOM      1  C   UNL     1       7.718  -3.699  25.274  0.00  0.00    +0.181 A 
ATOM      2  O   UNL     1       6.588  -3.973  24.497  0.00  0.00    -0.451 OA
ATOM      3  C   UNL     1       5.758  -5.005  24.864  0.00  0.00    +0.147 A 
ATOM      4  C   UNL     1       5.931  -5.716  26.045  0.00  0.00    +0.109 A 
ATOM      5  C   UNL     1       5.020  -6.712  26.406  0.00  0.00    +0.135 A 
ATOM      6  C   UNL     1       3.953  -7.028  25.572  0.00  0.00    +0.092 A 
ATOM      7  C   UNL     1       3.793  -6.351  24.362  0.00  0.00    +0.127 A 
ATOM      8  C   UNL     1       7.097  -5.422  26.878  0.00  0.00    +0.238 A 
ATOM      9  O   UNL     1       7.259  -6.030  27.935  0.00  0.00    -0.283 OA
ATOM     10  C   UNL     1       4.696  -5.334  24.014  0.00  0.00    +0.092 A 
ATOM     11  C   UNL     1       8.053  -4.405  26.377  0.00  0.00    +0.208 A 
ENDROOT
BRANCH   1  15
ATOM     12  C   UNL     1      10.006  -0.344  23.788  0.00  0.00    +0.161 A 
ATOM     13  C   UNL     1       9.406  -0.292  25.045  0.00  0.00    +0.050 A 
ATOM     14  C   UNL     1       8.666  -1.384  25.521  0.00  0.00    +0.015 A 
ATOM     15  C   UNL     1       8.526  -2.559  24.763  0.00  0.00    +0.025 A 
ATOM     16  C   UNL     1       9.209  -2.626  23.536  0.00  0.00    +0.060 A 
ATOM     17  C   UNL     1       9.912  -1.526  23.054  0.00  0.00    +0.159 A 
BRANCH  12  19
ATOM     18  C   UNL     1      10.542   1.952  23.793  0.00  0.00    +0.277 C 
ATOM     19  O   UNL     1      10.721   0.667  23.203  0.00  0.00    -0.491 OA
ENDBRANCH  12  19
BRANCH  17  20
ATOM     20  O   UNL     1      10.490  -1.623  21.818  0.00  0.00    -0.503 OA
ATOM     21  H   UNL     1      10.115  -2.432  21.418  0.00  0.00    +0.292 HD
ENDBRANCH  17  20
ENDBRANCH   1  15
BRANCH   5  22
ATOM     22  O   UNL     1       5.113  -7.424  27.572  0.00  0.00    -0.506 OA
ATOM     23  H   UNL     1       5.228  -8.375  27.339  0.00  0.00    +0.292 HD
ENDBRANCH   5  22
BRANCH   7  24
ATOM     24  O   UNL     1       2.799  -6.597  23.452  0.00  0.00    -0.495 OA
ATOM     25  C   UNL     1       1.835  -5.558  23.271  0.00  0.00    +0.277 C 
ENDBRANCH   7  24
BRANCH  11  26
ATOM     26  O   UNL     1       9.229  -4.270  27.090  0.00  0.00    -0.501 OA
ATOM     27  H   UNL     1       9.898  -3.849  26.527  0.00  0.00    +0.292 HD
ENDBRANCH  11  26
TORSDOF 6
ENDMDL
MODEL 2
REMARK VINA RESULT:      -7.1      1.811      3.471
REMARK  Name = 
REMARK  8 active torsions:
REMARK  status: ('A' for Active; 'I' for Inactive)
REMARK    1  A    between atoms: C_1  and  O_2
REMARK    2  A    between atoms: O_2  and  C_3
REMARK    3  A    between atoms: C_4  and  O_24
REMARK    4  A    between atoms: C_6  and  C_9
REMARK    5  A    between atoms: C_10  and  O_23
REMARK    6  A    between atoms: C_14  and  O_22
REMARK    7  A    between atoms: C_16  and  O_20
REMARK    8  A    between atoms: O_20  and  C_21
REMARK                            x       y       z     vdW  Elec       q    Type
REMARK                         _______ _______ _______ _____ _____    ______ ____
ROOT
ATOM      1  C   UNL     1       6.515  -3.391  23.362  0.00  0.00    +0.181 A 
ATOM      2  O   UNL     1       6.642  -3.755  24.707  0.00  0.00    -0.451 OA
ATOM      3  C   UNL     1       5.925  -4.828  25.180  0.00  0.00    +0.147 A 
ATOM      4  C   UNL     1       5.168  -5.643  24.348  0.00  0.00    +0.109 A 
ATOM      5  C   UNL     1       4.512  -6.762  24.867  0.00  0.00    +0.135 A 
ATOM      6  C   UNL     1       4.579  -7.053  26.225  0.00  0.00    +0.092 A 
ATOM      7  C   UNL     1       5.302  -6.219  27.079  0.00  0.00    +0.127 A 
ATOM      8  C   UNL     1       5.046  -5.284  22.935  0.00  0.00    +0.238 A 
ATOM      9  O   UNL     1       4.392  -6.001  22.179  0.00  0.00    -0.283 OA
ATOM     10  C   UNL     1       5.980  -5.108  26.550  0.00  0.00    +0.092 A 
ATOM     11  C   UNL     1       5.711  -4.036  22.488  0.00  0.00    +0.208 A 
ENDROOT
BRANCH   1  15
ATOM     12  C   UNL     1       8.873   0.049  22.222  0.00  0.00    +0.161 A 
ATOM     13  C   UNL     1       7.621   0.212  22.810  0.00  0.00    +0.050 A 
ATOM     14  C   UNL     1       6.861  -0.908  23.177  0.00  0.00    +0.015 A 
ATOM     15  C   UNL     1       7.344  -2.214  22.987  0.00  0.00    +0.025 A 
ATOM     16  C   UNL     1       8.644  -2.357  22.472  0.00  0.00    +0.060 A 
ATOM     17  C   UNL     1       9.378  -1.243  22.076  0.00  0.00    +0.159 A 
BRANCH  12  19
ATOM     18  C   UNL     1      10.050   2.013  22.789  0.00  0.00    +0.277 C 
ATOM     19  O   UNL     1       9.690   1.060  21.790  0.00  0.00    -0.491 OA
ENDBRANCH  12  19
BRANCH  17  20
ATOM     20  O   UNL     1      10.605  -1.449  21.510  0.00  0.00    -0.503 OA
ATOM     21  H   UNL     1      10.944  -0.560  21.289  0.00  0.00    +0.292 HD
ENDBRANCH  17  20
ENDBRANCH   1  15
BRANCH   5  22
ATOM     22  O   UNL     1       3.778  -7.624  24.095  0.00  0.00    -0.506 OA
ATOM     23  H   UNL     1       4.360  -8.379  23.845  0.00  0.00    +0.292 HD
ENDBRANCH   5  22
BRANCH   7  24
ATOM     24  O   UNL     1       5.415  -6.391  28.433  0.00  0.00    -0.495 OA
ATOM     25  C   UNL     1       5.435  -5.201  29.223  0.00  0.00    +0.277 C 
ENDBRANCH   7  24
BRANCH  11  26
ATOM     26  O   UNL     1       5.439  -3.629  21.196  0.00  0.00    -0.501 OA
ATOM     27  H   UNL     1       6.164  -3.907  20.614  0.00  0.00    +0.292 HD
ENDBRANCH  11  26
TORSDOF 6
ENDMDL
MODEL 3
REMARK VINA RESULT:      -6.9      2.053      8.027
REMARK  Name = 
REMARK  8 active torsions:
REMARK  status: ('A' for Active; 'I' for Inactive)
REMARK    1  A    between atoms: C_1  and  O_2
REMARK    2  A    between atoms: O_2  and  C_3
REMARK    3  A    between atoms: C_4  and  O_24
REMARK    4  A    between atoms: C_6  and  C_9
REMARK    5  A    between atoms: C_10  and  O_23
REMARK    6  A    between atoms: C_14  and  O_22
REMARK    7  A    between atoms: C_16  and  O_20
REMARK    8  A    between atoms: O_20  and  C_21
REMARK                            x       y       z     vdW  Elec       q    Type
REMARK                         _______ _______ _______ _____ _____    ______ ____
ROOT
ATOM      1  C   UNL     1       8.151  -1.752  24.202  0.00  0.00    +0.181 A 
ATOM      2  O   UNL     1       7.834  -0.596  24.921  0.00  0.00    -0.451 OA
ATOM      3  C   UNL     1       8.313   0.616  24.484  0.00  0.00    +0.147 A 
ATOM      4  C   UNL     1       9.005   0.755  23.287  0.00  0.00    +0.109 A 
ATOM      5  C   UNL     1       9.413   2.019  22.854  0.00  0.00    +0.135 A 
ATOM      6  C   UNL     1       9.165   3.146  23.631  0.00  0.00    +0.092 A 
ATOM      7  C   UNL     1       8.509   3.014  24.855  0.00  0.00    +0.127 A 
ATOM      8  C   UNL     1       9.322  -0.447  22.516  0.00  0.00    +0.238 A 
ATOM      9  O   UNL     1       9.921  -0.342  21.446  0.00  0.00    -0.283 OA
ATOM     10  C   UNL     1       8.079   1.745  25.276  0.00  0.00    +0.092 A 
ATOM     11  C   UNL     1       8.920  -1.752  23.091  0.00  0.00    +0.208 A 
ENDROOT
BRANCH   1  15
ATOM     12  C   UNL     1       6.402  -5.310  25.929  0.00  0.00    +0.161 A 
ATOM     13  C   UNL     1       5.713  -4.578  24.965  0.00  0.00    +0.050 A 
ATOM     14  C   UNL     1       6.286  -3.426  24.408  0.00  0.00    +0.015 A 
ATOM     15  C   UNL     1       7.568  -2.991  24.786  0.00  0.00    +0.025 A 
ATOM     16  C   UNL     1       8.282  -3.789  25.697  0.00  0.00    +0.060 A 
ATOM     17  C   UNL     1       7.693  -4.911  26.271  0.00  0.00    +0.159 A 
BRANCH  12  19
ATOM     18  C   UNL     1       4.604  -6.807  26.224  0.00  0.00    +0.277 C 
ATOM     19  O   UNL     1       5.935  -6.428  26.568  0.00  0.00    -0.491 OA
ENDBRANCH  12  19
BRANCH  17  20
ATOM     20  O   UNL     1       8.409  -5.603  27.209  0.00  0.00    -0.503 OA
ATOM     21  H   UNL     1       9.261  -5.817  26.782  0.00  0.00    +0.292 HD
ENDBRANCH  17  20
ENDBRANCH   1  15
BRANCH   5  22
ATOM     22  O   UNL     1      10.068   2.229  21.669  0.00  0.00    -0.506 OA
ATOM     23  H   UNL     1      10.803   2.864  21.835  0.00  0.00    +0.292 HD
ENDBRANCH   5  22
BRANCH   7  24
ATOM     24  O   UNL     1       8.236   4.046  25.714  0.00  0.00    -0.495 OA
ATOM     25  C   UNL     1       8.704   5.337  25.321  0.00  0.00    +0.277 C 
ENDBRANCH   7  24
BRANCH  11  26
ATOM     26  O   UNL     1       9.381  -2.876  22.433  0.00  0.00    -0.501 OA
ATOM     27  H   UNL     1       9.744  -3.501  23.082  0.00  0.00    +0.292 HD
ENDBRANCH  11  26
TORSDOF 6
ENDMDL
MODEL 4
REMARK VINA RESULT:      -6.9      2.865      4.482
REMARK  Name = 
REMARK  8 active torsions:
REMARK  status: ('A' for Active; 'I' for Inactive)
REMARK    1  A    between atoms: C_1  and  O_2
REMARK    2  A    between atoms: O_2  and  C_3
REMARK    3  A    between atoms: C_4  and  O_24
REMARK    4  A    between atoms: C_6  and  C_9
REMARK    5  A    between atoms: C_10  and  O_23
REMARK    6  A    between atoms: C_14  and  O_22
REMARK    7  A    between atoms: C_16  and  O_20
REMARK    8  A    between atoms: O_20  and  C_21
REMARK                            x       y       z     vdW  Elec       q    Type
REMARK                         _______ _______ _______ _____ _____    ______ ____
ROOT
ATOM      1  C   UNL     1       8.084  -0.455  23.282  0.00  0.00    +0.181 A 
ATOM      2  O   UNL     1       6.846  -1.071  23.074  0.00  0.00    -0.451 OA
ATOM      3  C   UNL     1       6.767  -2.443  23.110  0.00  0.00    +0.147 A 
ATOM      4  C   UNL     1       7.847  -3.242  23.463  0.00  0.00    +0.109 A 
ATOM      5  C   UNL     1       7.698  -4.628  23.551  0.00  0.00    +0.135 A 
ATOM      6  C   UNL     1       6.479  -5.226  23.252  0.00  0.00    +0.092 A 
ATOM      7  C   UNL     1       5.397  -4.439  22.855  0.00  0.00    +0.127 A 
ATOM      8  C   UNL     1       9.142  -2.605  23.705  0.00  0.00    +0.238 A 
ATOM      9  O   UNL     1      10.107  -3.294  24.033  0.00  0.00    -0.283 OA
ATOM     10  C   UNL     1       5.544  -3.044  22.791  0.00  0.00    +0.092 A 
ATOM     11  C   UNL     1       9.227  -1.138  23.511  0.00  0.00    +0.208 A 
ENDROOT
BRANCH   1  15
ATOM     12  C   UNL     1       7.970   3.861  23.041  0.00  0.00    +0.161 A 
ATOM     13  C   UNL     1       7.747   3.082  21.908  0.00  0.00    +0.050 A 
ATOM     14  C   UNL     1       7.785   1.682  21.993  0.00  0.00    +0.015 A 
ATOM     15  C   UNL     1       8.025   1.030  23.214  0.00  0.00    +0.025 A 
ATOM     16  C   UNL     1       8.162   1.831  24.362  0.00  0.00    +0.060 A 
ATOM     17  C   UNL     1       8.158   3.219  24.264  0.00  0.00    +0.159 A 
BRANCH  12  19
ATOM     18  C   UNL     1       7.189   5.872  22.088  0.00  0.00    +0.277 C 
ATOM     19  O   UNL     1       7.992   5.230  23.077  0.00  0.00    -0.491 OA
ENDBRANCH  12  19
BRANCH  17  20
ATOM     20  O   UNL     1       8.375   3.944  25.403  0.00  0.00    -0.503 OA
ATOM     21  H   UNL     1       7.597   3.778  25.970  0.00  0.00    +0.292 HD
ENDBRANCH  17  20
ENDBRANCH   1  15
BRANCH   5  22
ATOM     22  O   UNL     1       8.713  -5.468  23.927  0.00  0.00    -0.506 OA
ATOM     23  H   UNL     1       8.520  -6.361  23.558  0.00  0.00    +0.292 HD
ENDBRANCH   5  22
BRANCH   7  24
ATOM     24  O   UNL     1       4.161  -4.920  22.511  0.00  0.00    -0.495 OA
ATOM     25  C   UNL     1       3.657  -5.996  23.302  0.00  0.00    +0.277 C 
ENDBRANCH   7  24
BRANCH  11  26
ATOM     26  O   UNL     1      10.493  -0.587  23.575  0.00  0.00    -0.501 OA
ATOM     27  H   UNL     1      10.618   0.015  22.824  0.00  0.00    +0.292 HD
ENDBRANCH  11  26
TORSDOF 6
ENDMDL
MODEL 5
REMARK VINA RESULT:      -6.8      2.608      7.445
REMARK  Name = 
REMARK  8 active torsions:
REMARK  status: ('A' for Active; 'I' for Inactive)
REMARK    1  A    between atoms: C_1  and  O_2
REMARK    2  A    between atoms: O_2  and  C_3
REMARK    3  A    between atoms: C_4  and  O_24
REMARK    4  A    between atoms: C_6  and  C_9
REMARK    5  A    between atoms: C_10  and  O_23
REMARK    6  A    between atoms: C_14  and  O_22
REMARK    7  A    between atoms: C_16  and  O_20
REMARK    8  A    between atoms: O_20  and  C_21
REMARK                            x       y       z     vdW  Elec       q    Type
REMARK                         _______ _______ _______ _____ _____    ______ ____
ROOT
ATOM      1  C   UNL     1       7.754  -2.102  24.012  0.00  0.00    +0.181 A 
ATOM      2  O   UNL     1       6.816  -1.068  23.937  0.00  0.00    -0.451 OA
ATOM      3  C   UNL     1       7.177   0.123  23.353  0.00  0.00    +0.147 A 
ATOM      4  C   UNL     1       8.404   0.302  22.725  0.00  0.00    +0.109 A 
ATOM      5  C   UNL     1       8.697   1.509  22.087  0.00  0.00    +0.135 A 
ATOM      6  C   UNL     1       7.782   2.556  22.103  0.00  0.00    +0.092 A 
ATOM      7  C   UNL     1       6.564   2.404  22.767  0.00  0.00    +0.127 A 
ATOM      8  C   UNL     1       9.385  -0.783  22.778  0.00  0.00    +0.238 A 
ATOM      9  O   UNL     1      10.471  -0.648  22.215  0.00  0.00    -0.283 OA
ATOM     10  C   UNL     1       6.263   1.181  23.387  0.00  0.00    +0.092 A 
ATOM     11  C   UNL     1       9.018  -1.997  23.544  0.00  0.00    +0.208 A 
ENDROOT
BRANCH   1  15
ATOM     12  C   UNL     1       6.171  -5.635  25.939  0.00  0.00    +0.161 A 
ATOM     13  C   UNL     1       5.517  -5.070  24.846  0.00  0.00    +0.050 A 
ATOM     14  C   UNL     1       6.036  -3.924  24.226  0.00  0.00    +0.015 A 
ATOM     15  C   UNL     1       7.230  -3.331  24.668  0.00  0.00    +0.025 A 
ATOM     16  C   UNL     1       7.921  -3.964  25.716  0.00  0.00    +0.060 A 
ATOM     17  C   UNL     1       7.382  -5.079  26.350  0.00  0.00    +0.159 A 
BRANCH  12  19
ATOM     18  C   UNL     1       4.529  -6.543  27.367  0.00  0.00    +0.277 C 
ATOM     19  O   UNL     1       5.746  -6.727  26.647  0.00  0.00    -0.491 OA
ENDBRANCH  12  19
BRANCH  17  20
ATOM     20  O   UNL     1       8.062  -5.605  27.414  0.00  0.00    -0.503 OA
ATOM     21  H   UNL     1       7.741  -6.523  27.501  0.00  0.00    +0.292 HD
ENDBRANCH  17  20
ENDBRANCH   1  15
BRANCH   5  22
ATOM     22  O   UNL     1       9.873   1.738  21.421  0.00  0.00    -0.506 OA
ATOM     23  H   UNL     1       9.690   1.683  20.454  0.00  0.00    +0.292 HD
ENDBRANCH   5  22
BRANCH   7  24
ATOM     24  O   UNL     1       5.601   3.373  22.871  0.00  0.00    -0.495 OA
ATOM     25  C   UNL     1       4.439   3.032  23.628  0.00  0.00    +0.277 C 
ENDBRANCH   7  24
BRANCH  11  26
ATOM     26  O   UNL     1      10.021  -2.930  23.725  0.00  0.00    -0.501 OA
ATOM     27  H   UNL     1       9.738  -3.580  24.389  0.00  0.00    +0.292 HD
ENDBRANCH  11  26
TORSDOF 6
ENDMDL
MODEL 6
REMARK VINA RESULT:      -6.7      2.779      3.693
REMARK  Name = 
REMARK  8 active torsions:
REMARK  status: ('A' for Active; 'I' for Inactive)
REMARK    1  A    between atoms: C_1  and  O_2
REMARK    2  A    between atoms: O_2  and  C_3
REMARK    3  A    between atoms: C_4  and  O_24
REMARK    4  A    between atoms: C_6  and  C_9
REMARK    5  A    between atoms: C_10  and  O_23
REMARK    6  A    between atoms: C_14  and  O_22
REMARK    7  A    between atoms: C_16  and  O_20
REMARK    8  A    between atoms: O_20  and  C_21
REMARK                            x       y       z     vdW  Elec       q    Type
REMARK                         _______ _______ _______ _____ _____    ______ ____
ROOT
ATOM      1  C   UNL     1       9.097  -1.488  24.635  0.00  0.00    +0.181 A 
ATOM      2  O   UNL     1       8.000  -1.349  25.491  0.00  0.00    -0.451 OA
ATOM      3  C   UNL     1       7.446  -2.473  26.057  0.00  0.00    +0.147 A 
ATOM      4  C   UNL     1       8.006  -3.735  25.907  0.00  0.00    +0.109 A 
ATOM      5  C   UNL     1       7.444  -4.835  26.558  0.00  0.00    +0.135 A 
ATOM      6  C   UNL     1       6.299  -4.687  27.333  0.00  0.00    +0.092 A 
ATOM      7  C   UNL     1       5.702  -3.432  27.458  0.00  0.00    +0.127 A 
ATOM      8  C   UNL     1       9.168  -3.888  25.031  0.00  0.00    +0.238 A 
ATOM      9  O   UNL     1       9.687  -4.996  24.897  0.00  0.00    -0.283 OA
ATOM     10  C   UNL     1       6.284  -2.324  26.821  0.00  0.00    +0.092 A 
ATOM     11  C   UNL     1       9.649  -2.681  24.318  0.00  0.00    +0.208 A 
ENDROOT
BRANCH   1  15
ATOM     12  C   UNL     1      10.518   2.306  23.124  0.00  0.00    +0.161 A 
ATOM     13  C   UNL     1      11.088   1.738  24.261  0.00  0.00    +0.050 A 
ATOM     14  C   UNL     1      10.623   0.506  24.745  0.00  0.00    +0.015 A 
ATOM     15  C   UNL     1       9.594  -0.194  24.094  0.00  0.00    +0.025 A 
ATOM     16  C   UNL     1       9.089   0.353  22.901  0.00  0.00    +0.060 A 
ATOM     17  C   UNL     1       9.531   1.591  22.446  0.00  0.00    +0.159 A 
BRANCH  12  19
ATOM     18  C   UNL     1      11.853   4.242  23.299  0.00  0.00    +0.277 C 
ATOM     19  O   UNL     1      10.861   3.514  22.577  0.00  0.00    -0.491 OA
ENDBRANCH  12  19
BRANCH  17  20
ATOM     20  O   UNL     1       8.948   2.109  21.322  0.00  0.00    -0.503 OA
ATOM     21  H   UNL     1       9.688   2.389  20.749  0.00  0.00    +0.292 HD
ENDBRANCH  17  20
ENDBRANCH   1  15
BRANCH   5  22
ATOM     22  O   UNL     1       7.967  -6.100  26.479  0.00  0.00    -0.506 OA
ATOM     23  H   UNL     1       8.860  -6.034  26.069  0.00  0.00    +0.292 HD
ENDBRANCH   5  22
BRANCH   7  24
ATOM     24  O   UNL     1       4.561  -3.173  28.170  0.00  0.00    -0.495 OA
ATOM     25  C   UNL     1       4.203  -4.134  29.164  0.00  0.00    +0.277 C 
ENDBRANCH   7  24
BRANCH  11  26
ATOM     26  O   UNL     1      10.632  -2.884  23.369  0.00  0.00    -0.501 OA
ATOM     27  H   UNL     1      10.589  -2.175  22.707  0.00  0.00    +0.292 HD
ENDBRANCH  11  26
TORSDOF 6
ENDMDL
MODEL 7
REMARK VINA RESULT:      -6.6      2.924      7.688
REMARK  Name = 
REMARK  8 active torsions:
REMARK  status: ('A' for Active; 'I' for Inactive)
REMARK    1  A    between atoms: C_1  and  O_2
REMARK    2  A    between atoms: O_2  and  C_3
REMARK    3  A    between atoms: C_4  and  O_24
REMARK    4  A    between atoms: C_6  and  C_9
REMARK    5  A    between atoms: C_10  and  O_23
REMARK    6  A    between atoms: C_14  and  O_22
REMARK    7  A    between atoms: C_16  and  O_20
REMARK    8  A    between atoms: O_20  and  C_21
REMARK                            x       y       z     vdW  Elec       q    Type
REMARK                         _______ _______ _______ _____ _____    ______ ____
ROOT
ATOM      1  C   UNL     1       7.475  -2.014  22.985  0.00  0.00    +0.181 A 
ATOM      2  O   UNL     1       6.605  -0.920  22.971  0.00  0.00    -0.451 OA
ATOM      3  C   UNL     1       7.109   0.333  22.716  0.00  0.00    +0.147 A 
ATOM      4  C   UNL     1       8.434   0.543  22.354  0.00  0.00    +0.109 A 
ATOM      5  C   UNL     1       8.882   1.828  22.039  0.00  0.00    +0.135 A 
ATOM      6  C   UNL     1       8.019   2.915  22.119  0.00  0.00    +0.092 A 
ATOM      7  C   UNL     1       6.697   2.724  22.523  0.00  0.00    +0.127 A 
ATOM      8  C   UNL     1       9.348  -0.600  22.343  0.00  0.00    +0.238 A 
ATOM      9  O   UNL     1      10.522  -0.436  22.011  0.00  0.00    -0.283 OA
ATOM     10  C   UNL     1       6.244   1.428  22.816  0.00  0.00    +0.092 A 
ATOM     11  C   UNL     1       8.805  -1.912  22.768  0.00  0.00    +0.208 A 
ENDROOT
BRANCH   1  15
ATOM     12  C   UNL     1       5.562  -5.791  23.865  0.00  0.00    +0.161 A 
ATOM     13  C   UNL     1       5.858  -4.892  24.887  0.00  0.00    +0.050 A 
ATOM     14  C   UNL     1       6.479  -3.669  24.594  0.00  0.00    +0.015 A 
ATOM     15  C   UNL     1       6.797  -3.307  23.274  0.00  0.00    +0.025 A 
ATOM     16  C   UNL     1       6.413  -4.188  22.248  0.00  0.00    +0.060 A 
ATOM     17  C   UNL     1       5.830  -5.415  22.549  0.00  0.00    +0.159 A 
BRANCH  12  19
ATOM     18  C   UNL     1       4.077  -7.128  25.117  0.00  0.00    +0.277 C 
ATOM     19  O   UNL     1       4.991  -7.026  24.028  0.00  0.00    -0.491 OA
ENDBRANCH  12  19
BRANCH  17  20
ATOM     20  O   UNL     1       5.550  -6.265  21.513  0.00  0.00    -0.503 OA
ATOM     21  H   UNL     1       4.636  -6.051  21.241  0.00  0.00    +0.292 HD
ENDBRANCH  17  20
ENDBRANCH   1  15
BRANCH   5  22
ATOM     22  O   UNL     1      10.165   2.097  21.642  0.00  0.00    -0.506 OA
ATOM     23  H   UNL     1      10.581   1.248  21.364  0.00  0.00    +0.292 HD
ENDBRANCH   5  22
BRANCH   7  24
ATOM     24  O   UNL     1       5.768   3.721  22.664  0.00  0.00    -0.495 OA
ATOM     25  C   UNL     1       4.398   3.320  22.629  0.00  0.00    +0.277 C 
ENDBRANCH   7  24
BRANCH  11  26
ATOM     26  O   UNL     1       9.724  -2.933  22.916  0.00  0.00    -0.501 OA
ATOM     27  H   UNL     1      10.561  -2.673  22.498  0.00  0.00    +0.292 HD
ENDBRANCH  11  26
TORSDOF 6
ENDMDL
MODEL 8
REMARK VINA RESULT:      -6.6      2.774      8.125
REMARK  Name = 
REMARK  8 active torsions:
REMARK  status: ('A' for Active; 'I' for Inactive)
REMARK    1  A    between atoms: C_1  and  O_2
REMARK    2  A    between atoms: O_2  and  C_3
REMARK    3  A    between atoms: C_4  and  O_24
REMARK    4  A    between atoms: C_6  and  C_9
REMARK    5  A    between atoms: C_10  and  O_23
REMARK    6  A    between atoms: C_14  and  O_22
REMARK    7  A    between atoms: C_16  and  O_20
REMARK    8  A    between atoms: O_20  and  C_21
REMARK                            x       y       z     vdW  Elec       q    Type
REMARK                         _______ _______ _______ _____ _____    ______ ____
ROOT
ATOM      1  C   UNL     1       8.209  -0.644  23.246  0.00  0.00    +0.181 A 
ATOM      2  O   UNL     1       7.653   0.083  24.303  0.00  0.00    -0.451 OA
ATOM      3  C   UNL     1       8.057   1.381  24.509  0.00  0.00    +0.147 A 
ATOM      4  C   UNL     1       8.911   2.042  23.635  0.00  0.00    +0.109 A 
ATOM      5  C   UNL     1       9.238   3.383  23.852  0.00  0.00    +0.135 A 
ATOM      6  C   UNL     1       8.744   4.060  24.961  0.00  0.00    +0.092 A 
ATOM      7  C   UNL     1       7.919   3.395  25.869  0.00  0.00    +0.127 A 
ATOM      8  C   UNL     1       9.481   1.297  22.512  0.00  0.00    +0.238 A 
ATOM      9  O   UNL     1      10.228   1.869  21.719  0.00  0.00    -0.283 OA
ATOM     10  C   UNL     1       7.572   2.054  25.636  0.00  0.00    +0.092 A 
ATOM     11  C   UNL     1       9.141  -0.142  22.406  0.00  0.00    +0.208 A 
ENDROOT
BRANCH   1  15
ATOM     12  C   UNL     1       6.625  -4.659  22.985  0.00  0.00    +0.161 A 
ATOM     13  C   UNL     1       5.898  -3.577  22.494  0.00  0.00    +0.050 A 
ATOM     14  C   UNL     1       6.417  -2.277  22.582  0.00  0.00    +0.015 A 
ATOM     15  C   UNL     1       7.683  -2.032  23.141  0.00  0.00    +0.025 A 
ATOM     16  C   UNL     1       8.438  -3.144  23.552  0.00  0.00    +0.060 A 
ATOM     17  C   UNL     1       7.902  -4.426  23.495  0.00  0.00    +0.159 A 
BRANCH  12  19
ATOM     18  C   UNL     1       5.061  -6.230  23.789  0.00  0.00    +0.277 C 
ATOM     19  O   UNL     1       6.210  -5.964  22.988  0.00  0.00    -0.491 OA
ENDBRANCH  12  19
BRANCH  17  20
ATOM     20  O   UNL     1       8.654  -5.460  23.983  0.00  0.00    -0.503 OA
ATOM     21  H   UNL     1       8.033  -6.016  24.492  0.00  0.00    +0.292 HD
ENDBRANCH  17  20
ENDBRANCH   1  15
BRANCH   5  22
ATOM     22  O   UNL     1      10.047   4.101  23.010  0.00  0.00    -0.506 OA
ATOM     23  H   UNL     1       9.565   4.227  22.160  0.00  0.00    +0.292 HD
ENDBRANCH   5  22
BRANCH   7  24
ATOM     24  O   UNL     1       7.397   3.951  27.008  0.00  0.00    -0.495 OA
ATOM     25  C   UNL     1       6.911   3.039  27.992  0.00  0.00    +0.277 C 
ENDBRANCH   7  24
BRANCH  11  26
ATOM     26  O   UNL     1       9.826  -0.861  21.445  0.00  0.00    -0.501 OA
ATOM     27  H   UNL     1       9.981  -1.763  21.770  0.00  0.00    +0.292 HD
ENDBRANCH  11  26
TORSDOF 6
ENDMDL
MODEL 9
REMARK VINA RESULT:      -6.6      2.655      4.333
REMARK  Name = 
REMARK  8 active torsions:
REMARK  status: ('A' for Active; 'I' for Inactive)
REMARK    1  A    between atoms: C_1  and  O_2
REMARK    2  A    between atoms: O_2  and  C_3
REMARK    3  A    between atoms: C_4  and  O_24
REMARK    4  A    between atoms: C_6  and  C_9
REMARK    5  A    between atoms: C_10  and  O_23
REMARK    6  A    between atoms: C_14  and  O_22
REMARK    7  A    between atoms: C_16  and  O_20
REMARK    8  A    between atoms: O_20  and  C_21
REMARK                            x       y       z     vdW  Elec       q    Type
REMARK                         _______ _______ _______ _____ _____    ______ ____
ROOT
ATOM      1  C   UNL     1       8.547  -0.092  24.467  0.00  0.00    +0.181 A 
ATOM      2  O   UNL     1       7.931  -0.664  23.349  0.00  0.00    -0.451 OA
ATOM      3  C   UNL     1       7.461  -1.953  23.430  0.00  0.00    +0.147 A 
ATOM      4  C   UNL     1       7.466  -2.674  24.617  0.00  0.00    +0.109 A 
ATOM      5  C   UNL     1       6.915  -3.957  24.663  0.00  0.00    +0.135 A 
ATOM      6  C   UNL     1       6.390  -4.541  23.516  0.00  0.00    +0.092 A 
ATOM      7  C   UNL     1       6.417  -3.844  22.307  0.00  0.00    +0.127 A 
ATOM      8  C   UNL     1       8.087  -2.076  25.799  0.00  0.00    +0.238 A 
ATOM      9  O   UNL     1       8.089  -2.693  26.864  0.00  0.00    -0.283 OA
ATOM     10  C   UNL     1       6.950  -2.545  22.270  0.00  0.00    +0.092 A 
ATOM     11  C   UNL     1       8.718  -0.744  25.638  0.00  0.00    +0.208 A 
ENDROOT
BRANCH   1  15
ATOM     12  C   UNL     1       9.949   3.950  23.840  0.00  0.00    +0.161 A 
ATOM     13  C   UNL     1      10.604   2.873  23.247  0.00  0.00    +0.050 A 
ATOM     14  C   UNL     1      10.144   1.564  23.454  0.00  0.00    +0.015 A 
ATOM     15  C   UNL     1       9.007   1.304  24.239  0.00  0.00    +0.025 A 
ATOM     16  C   UNL     1       8.310   2.409  24.759  0.00  0.00    +0.060 A 
ATOM     17  C   UNL     1       8.793   3.702  24.579  0.00  0.00    +0.159 A 
BRANCH  12  19
ATOM     18  C   UNL     1      11.718   5.481  23.548  0.00  0.00    +0.277 C 
ATOM     19  O   UNL     1      10.322   5.264  23.741  0.00  0.00    -0.491 OA
ENDBRANCH  12  19
BRANCH  17  20
ATOM     20  O   UNL     1       8.115   4.730  25.174  0.00  0.00    -0.503 OA
ATOM     21  H   UNL     1       7.259   4.351  25.453  0.00  0.00    +0.292 HD
ENDBRANCH  17  20
ENDBRANCH   1  15
BRANCH   5  22
ATOM     22  O   UNL     1       6.858  -4.706  25.809  0.00  0.00    -0.506 OA
ATOM     23  H   UNL     1       6.554  -5.611  25.565  0.00  0.00    +0.292 HD
ENDBRANCH   5  22
BRANCH   7  24
ATOM     24  O   UNL     1       5.955  -4.328  21.112  0.00  0.00    -0.495 OA
ATOM     25  C   UNL     1       6.163  -5.720  20.869  0.00  0.00    +0.277 C 
ENDBRANCH   7  24
BRANCH  11  26
ATOM     26  O   UNL     1       9.445  -0.279  26.717  0.00  0.00    -0.501 OA
ATOM     27  H   UNL     1      10.381  -0.210  26.466  0.00  0.00    +0.292 HD
ENDBRANCH  11  26
TORSDOF 6
ENDMDL
