MODEL 1
REMARK VINA RESULT:      -7.2      0.000      0.000
REMARK  Name = 
REMARK  14 active torsions:
REMARK  status: ('A' for Active; 'I' for Inactive)
REMARK    1  A    between atoms: C_1  and  C_2
REMARK    2  A    between atoms: C_2  and  O_3
REMARK    3  A    between atoms: O_3  and  C_4
REMARK    4  A    between atoms: C_4  and  C_6
REMARK    5  A    between atoms: C_8  and  O_39
REMARK    6  A    between atoms: C_10  and  O_38
REMARK    7  A    between atoms: C_11  and  O_37
REMARK    8  A    between atoms: C_12  and  O_15
REMARK    9  A    between atoms: O_15  and  C_16
REMARK   10  A    between atoms: C_17  and  C_29
REMARK   11  A    between atoms: C_21  and  O_28
REMARK   12  A    between atoms: C_23  and  O_27
REMARK   13  A    between atoms: C_31  and  O_36
REMARK   14  A    between atoms: C_32  and  O_35
REMARK                            x       y       z     vdW  Elec       q    Type
REMARK                         _______ _______ _______ _____ _____    ______ ____
ROOT
ATOM      1  C   UNL     1       7.503  -2.207  25.562  0.00  0.00    +0.214 A 
ATOM      2  C   UNL     1       8.423  -2.261  24.360  0.00  0.00    +0.238 A 
ATOM      3  O   UNL     1       8.890  -3.302  23.915  0.00  0.00    -0.283 OA
ATOM      4  C   UNL     1       8.763  -1.044  23.648  0.00  0.00    +0.109 A 
ATOM      5  C   UNL     1       7.955   0.049  23.880  0.00  0.00    +0.147 A 
ATOM      6  C   UNL     1       8.186   1.225  23.156  0.00  0.00    +0.092 A 
ATOM      7  C   UNL     1       9.220   1.268  22.223  0.00  0.00    +0.124 A 
ATOM      8  C   UNL     1      10.038   0.164  21.983  0.00  0.00    +0.091 A 
ATOM      9  O   UNL     1       6.903   0.006  24.750  0.00  0.00    -0.451 OA
ATOM     10  C   UNL     1       9.810  -0.991  22.711  0.00  0.00    +0.135 A 
ATOM     11  C   UNL     1       6.733  -1.077  25.636  0.00  0.00    +0.181 A 
ENDROOT
BRANCH  11  12
ATOM     12  C   UNL     1       5.624  -0.753  26.619  0.00  0.00    +0.025 A 
ATOM     13  C   UNL     1       5.815  -0.087  27.840  0.00  0.00    +0.015 A 
ATOM     14  C   UNL     1       4.738   0.271  28.675  0.00  0.00    +0.050 A 
ATOM     15  C   UNL     1       3.441  -0.029  28.300  0.00  0.00    +0.158 A 
ATOM     16  C   UNL     1       3.206  -0.769  27.153  0.00  0.00    +0.159 A 
ATOM     17  C   UNL     1       4.276  -1.139  26.328  0.00  0.00    +0.060 A 
BRANCH  15  18
ATOM     18  O   UNL     1       2.397   0.419  29.057  0.00  0.00    -0.503 OA
ATOM     19  H   UNL     1       2.095  -0.363  29.562  0.00  0.00    +0.292 HD
ENDBRANCH  15  18
BRANCH  16  20
ATOM     20  O   UNL     1       1.906  -1.093  26.865  0.00  0.00    -0.503 OA
ATOM     21  H   UNL     1       1.898  -1.739  26.140  0.00  0.00    +0.292 HD
ENDBRANCH  16  20
ENDBRANCH  11  12
BRANCH   7  22
ATOM     22  O   UNL     1       9.483   2.389  21.494  0.00  0.00    -0.507 OA
ATOM     23  H   UNL     1       8.870   2.442  20.744  0.00  0.00    +0.292 HD
ENDBRANCH   7  22
BRANCH  10  24
ATOM     24  O   UNL     1      10.637  -2.058  22.504  0.00  0.00    -0.506 OA
ATOM     25  H   UNL     1      11.372  -2.049  23.138  0.00  0.00    +0.292 HD
ENDBRANCH  10  24
BRANCH   1  26
ATOM     26  O   UNL     1       7.468  -3.286  26.482  0.00  0.00    -0.453 OA
BRANCH  26  29
ATOM     27  C   UNL     1       5.344  -5.171  24.222  0.00  0.00    +0.261 C 
ATOM     28  O   UNL     1       5.776  -4.050  25.010  0.00  0.00    -0.322 OA
ATOM     29  C   UNL     1       6.703  -4.438  26.035  0.00  0.00    +0.340 C 
ATOM     30  C   UNL     1       5.842  -5.173  27.085  0.00  0.00    +0.214 C 
ATOM     31  C   UNL     1       5.398  -6.486  26.384  0.00  0.00    +0.180 C 
ATOM     32  C   UNL     1       4.594  -6.203  25.087  0.00  0.00    +0.185 C 
BRANCH  27  33
ATOM     33  C   UNL     1       4.467  -4.720  23.048  0.00  0.00    +0.339 C 
ATOM     34  O   UNL     1       3.294  -5.055  22.906  0.00  0.00    -0.248 OA
BRANCH  33  35
ATOM     35  O   UNL     1       5.169  -3.958  22.163  0.00  0.00    -0.463 OA
BRANCH  35  37
ATOM     36  C   UNL     1       6.197  -5.714  20.834  0.00  0.00    +0.048 C 
ATOM     37  C   UNL     1       6.419  -4.488  21.700  0.00  0.00    +0.229 C 
ENDBRANCH  35  37
ENDBRANCH  33  35
ENDBRANCH  27  33
BRANCH  30  38
ATOM     38  O   UNL     1       4.661  -4.439  27.462  0.00  0.00    -0.383 OA
ATOM     39  H   UNL     1       3.900  -4.908  27.067  0.00  0.00    +0.210 HD
ENDBRANCH  30  38
BRANCH  31  40
ATOM     40  O   UNL     1       4.647  -7.298  27.292  0.00  0.00    -0.386 OA
ATOM     41  H   UNL     1       4.389  -6.717  28.028  0.00  0.00    +0.210 HD
ENDBRANCH  31  40
BRANCH  32  42
ATOM     42  O   UNL     1       4.424  -7.432  24.361  0.00  0.00    -0.386 OA
ATOM     43  H   UNL     1       5.077  -8.070  24.716  0.00  0.00    +0.210 HD
ENDBRANCH  32  42
ENDBRANCH  26  29
ENDBRANCH   1  26
TORSDOF 13
ENDMDL
MODEL 2
REMARK VINA RESULT:      -7.0      2.183      6.594
REMARK  Name = 
REMARK  14 active torsions:
REMARK  status: ('A' for Active; 'I' for Inactive)
REMARK    1  A    between atoms: C_1  and  C_2
REMARK    2  A    between atoms: C_2  and  O_3
REMARK    3  A    between atoms: O_3  and  C_4
REMARK    4  A    between atoms: C_4  and  C_6
REMARK    5  A    between atoms: C_8  and  O_39
REMARK    6  A    between atoms: C_10  and  O_38
REMARK    7  A    between atoms: C_11  and  O_37
REMARK    8  A    between atoms: C_12  and  O_15
REMARK    9  A    between atoms: O_15  and  C_16
REMARK   10  A    between atoms: C_17  and  C_29
REMARK   11  A    between atoms: C_21  and  O_28
REMARK   12  A    between atoms: C_23  and  O_27
REMARK   13  A    between atoms: C_31  and  O_36
REMARK   14  A    between atoms: C_32  and  O_35
REMARK                            x       y       z     vdW  Elec       q    Type
REMARK                         _______ _______ _______ _____ _____    ______ ____
ROOT
ATOM      1  C   UNL     1       8.110  -2.450  25.068  0.00  0.00    +0.214 A 
ATOM      2  C   UNL     1       8.158  -3.814  24.411  0.00  0.00    +0.238 A 
ATOM      3  O   UNL     1       9.176  -4.489  24.336  0.00  0.00    -0.283 OA
ATOM      4  C   UNL     1       6.950  -4.401  23.863  0.00  0.00    +0.109 A 
ATOM      5  C   UNL     1       5.757  -3.852  24.280  0.00  0.00    +0.147 A 
ATOM      6  C   UNL     1       4.558  -4.434  23.849  0.00  0.00    +0.092 A 
ATOM      7  C   UNL     1       4.595  -5.548  23.013  0.00  0.00    +0.124 A 
ATOM      8  C   UNL     1       5.801  -6.109  22.591  0.00  0.00    +0.091 A 
ATOM      9  O   UNL     1       5.703  -2.795  25.144  0.00  0.00    -0.451 OA
ATOM     10  C   UNL     1       6.980  -5.520  23.012  0.00  0.00    +0.135 A 
ATOM     11  C   UNL     1       6.860  -2.056  25.465  0.00  0.00    +0.181 A 
ENDROOT
BRANCH  11  12
ATOM     12  C   UNL     1       6.465  -0.826  26.260  0.00  0.00    +0.025 A 
ATOM     13  C   UNL     1       5.265  -0.118  26.084  0.00  0.00    +0.015 A 
ATOM     14  C   UNL     1       4.906   0.965  26.911  0.00  0.00    +0.050 A 
ATOM     15  C   UNL     1       5.743   1.360  27.938  0.00  0.00    +0.158 A 
ATOM     16  C   UNL     1       6.981   0.757  28.093  0.00  0.00    +0.159 A 
ATOM     17  C   UNL     1       7.347  -0.311  27.264  0.00  0.00    +0.060 A 
BRANCH  15  18
ATOM     18  O   UNL     1       5.339   2.335  28.805  0.00  0.00    -0.503 OA
ATOM     19  H   UNL     1       5.143   1.865  29.641  0.00  0.00    +0.292 HD
ENDBRANCH  15  18
BRANCH  16  20
ATOM     20  O   UNL     1       7.796   1.232  29.087  0.00  0.00    -0.503 OA
ATOM     21  H   UNL     1       7.568   2.160  29.260  0.00  0.00    +0.292 HD
ENDBRANCH  16  20
ENDBRANCH  11  12
BRANCH   7  22
ATOM     22  O   UNL     1       3.456  -6.150  22.567  0.00  0.00    -0.507 OA
ATOM     23  H   UNL     1       3.139  -5.697  21.770  0.00  0.00    +0.292 HD
ENDBRANCH   7  22
BRANCH  10  24
ATOM     24  O   UNL     1       8.159  -6.046  22.566  0.00  0.00    -0.506 OA
ATOM     25  H   UNL     1       8.703  -5.359  22.149  0.00  0.00    +0.292 HD
ENDBRANCH  10  24
BRANCH   1  26
ATOM     26  O   UNL     1       9.302  -1.705  25.255  0.00  0.00    -0.453 OA
BRANCH  26  29
ATOM     27  C   UNL     1       9.745   1.587  23.792  0.00  0.00    +0.261 C 
ATOM     28  O   UNL     1       9.099   0.545  24.543  0.00  0.00    -0.322 OA
ATOM     29  C   UNL     1       9.596  -0.756  24.194  0.00  0.00    +0.340 C 
ATOM     30  C   UNL     1       9.002  -1.040  22.798  0.00  0.00    +0.214 C 
ATOM     31  C   UNL     1       9.717  -0.037  21.852  0.00  0.00    +0.180 C 
ATOM     32  C   UNL     1       9.474   1.434  22.283  0.00  0.00    +0.185 C 
BRANCH  27  33
ATOM     33  C   UNL     1       9.305   2.974  24.275  0.00  0.00    +0.339 C 
ATOM     34  O   UNL     1       9.764   4.026  23.838  0.00  0.00    -0.248 OA
BRANCH  33  35
ATOM     35  O   UNL     1       8.392   2.886  25.284  0.00  0.00    -0.463 OA
BRANCH  35  37
ATOM     36  C   UNL     1       6.339   2.830  23.985  0.00  0.00    +0.048 C 
ATOM     37  C   UNL     1       7.129   3.532  25.074  0.00  0.00    +0.229 C 
ENDBRANCH  35  37
ENDBRANCH  33  35
ENDBRANCH  27  33
BRANCH  30  38
ATOM     38  O   UNL     1       7.583  -0.799  22.726  0.00  0.00    -0.383 OA
ATOM     39  H   UNL     1       7.380  -0.115  23.394  0.00  0.00    +0.210 HD
ENDBRANCH  30  38
BRANCH  31  40
ATOM     40  O   UNL     1       9.301  -0.256  20.499  0.00  0.00    -0.386 OA
ATOM     41  H   UNL     1       8.864  -1.124  20.486  0.00  0.00    +0.210 HD
ENDBRANCH  31  40
BRANCH  32  42
ATOM     42  O   UNL     1      10.346   2.294  21.530  0.00  0.00    -0.386 OA
ATOM     43  H   UNL     1      11.009   1.722  21.092  0.00  0.00    +0.210 HD
ENDBRANCH  32  42
ENDBRANCH  26  29
ENDBRANCH   1  26
TORSDOF 13
ENDMDL
MODEL 3
REMARK VINA RESULT:      -6.9      2.198      6.737
REMARK  Name = 
REMARK  14 active torsions:
REMARK  status: ('A' for Active; 'I' for Inactive)
REMARK    1  A    between atoms: C_1  and  C_2
REMARK    2  A    between atoms: C_2  and  O_3
REMARK    3  A    between atoms: O_3  and  C_4
REMARK    4  A    between atoms: C_4  and  C_6
REMARK    5  A    between atoms: C_8  and  O_39
REMARK    6  A    between atoms: C_10  and  O_38
REMARK    7  A    between atoms: C_11  and  O_37
REMARK    8  A    between atoms: C_12  and  O_15
REMARK    9  A    between atoms: O_15  and  C_16
REMARK   10  A    between atoms: C_17  and  C_29
REMARK   11  A    between atoms: C_21  and  O_28
REMARK   12  A    between atoms: C_23  and  O_27
REMARK   13  A    between atoms: C_31  and  O_36
REMARK   14  A    between atoms: C_32  and  O_35
REMARK                            x       y       z     vdW  Elec       q    Type
REMARK                         _______ _______ _______ _____ _____    ______ ____
ROOT
ATOM      1  C   UNL     1       8.056  -2.488  25.038  0.00  0.00    +0.214 A 
ATOM      2  C   UNL     1       8.137  -3.857  24.394  0.00  0.00    +0.238 A 
ATOM      3  O   UNL     1       9.164  -4.522  24.353  0.00  0.00    -0.283 OA
ATOM      4  C   UNL     1       6.951  -4.461  23.818  0.00  0.00    +0.109 A 
ATOM      5  C   UNL     1       5.741  -3.921  24.197  0.00  0.00    +0.147 A 
ATOM      6  C   UNL     1       4.561  -4.519  23.738  0.00  0.00    +0.092 A 
ATOM      7  C   UNL     1       4.632  -5.639  22.912  0.00  0.00    +0.124 A 
ATOM      8  C   UNL     1       5.855  -6.190  22.528  0.00  0.00    +0.091 A 
ATOM      9  O   UNL     1       5.652  -2.858  25.051  0.00  0.00    -0.451 OA
ATOM     10  C   UNL     1       7.016  -5.586  22.977  0.00  0.00    +0.135 A 
ATOM     11  C   UNL     1       6.792  -2.104  25.398  0.00  0.00    +0.181 A 
ENDROOT
BRANCH  11  12
ATOM     12  C   UNL     1       6.362  -0.873  26.172  0.00  0.00    +0.025 A 
ATOM     13  C   UNL     1       7.040  -0.360  27.290  0.00  0.00    +0.015 A 
ATOM     14  C   UNL     1       6.651   0.840  27.917  0.00  0.00    +0.050 A 
ATOM     15  C   UNL     1       5.571   1.556  27.433  0.00  0.00    +0.158 A 
ATOM     16  C   UNL     1       4.811   1.045  26.394  0.00  0.00    +0.159 A 
ATOM     17  C   UNL     1       5.187  -0.155  25.777  0.00  0.00    +0.060 A 
BRANCH  15  18
ATOM     18  O   UNL     1       5.268   2.773  27.974  0.00  0.00    -0.503 OA
ATOM     19  H   UNL     1       6.120   3.120  28.309  0.00  0.00    +0.292 HD
ENDBRANCH  15  18
BRANCH  16  20
ATOM     20  O   UNL     1       3.715   1.765  25.999  0.00  0.00    -0.503 OA
ATOM     21  H   UNL     1       3.461   1.483  25.105  0.00  0.00    +0.292 HD
ENDBRANCH  16  20
ENDBRANCH  11  12
BRANCH   7  22
ATOM     22  O   UNL     1       3.513  -6.256  22.440  0.00  0.00    -0.507 OA
ATOM     23  H   UNL     1       3.281  -5.891  21.572  0.00  0.00    +0.292 HD
ENDBRANCH   7  22
BRANCH  10  24
ATOM     24  O   UNL     1       8.212  -6.103  22.568  0.00  0.00    -0.506 OA
ATOM     25  H   UNL     1       8.453  -5.756  21.694  0.00  0.00    +0.292 HD
ENDBRANCH  10  24
BRANCH   1  26
ATOM     26  O   UNL     1       9.236  -1.729  25.252  0.00  0.00    -0.453 OA
BRANCH  26  29
ATOM     27  C   UNL     1       9.705   1.568  23.810  0.00  0.00    +0.261 C 
ATOM     28  O   UNL     1       9.049   0.526  24.550  0.00  0.00    -0.322 OA
ATOM     29  C   UNL     1       9.542  -0.776  24.199  0.00  0.00    +0.340 C 
ATOM     30  C   UNL     1       8.957  -1.051  22.797  0.00  0.00    +0.214 C 
ATOM     31  C   UNL     1       9.684  -0.047  21.861  0.00  0.00    +0.180 C 
ATOM     32  C   UNL     1       9.445   1.424  22.298  0.00  0.00    +0.185 C 
BRANCH  27  33
ATOM     33  C   UNL     1       9.269   2.955  24.296  0.00  0.00    +0.339 C 
ATOM     34  O   UNL     1       8.284   3.151  25.002  0.00  0.00    -0.248 OA
BRANCH  33  35
ATOM     35  O   UNL     1      10.074   3.935  23.798  0.00  0.00    -0.463 OA
BRANCH  35  37
ATOM     36  C   UNL     1      10.681   6.254  24.197  0.00  0.00    +0.048 C 
ATOM     37  C   UNL     1       9.572   5.277  23.854  0.00  0.00    +0.229 C 
ENDBRANCH  35  37
ENDBRANCH  33  35
ENDBRANCH  27  33
BRANCH  30  38
ATOM     38  O   UNL     1       7.540  -0.802  22.716  0.00  0.00    -0.383 OA
ATOM     39  H   UNL     1       7.282  -0.940  21.783  0.00  0.00    +0.210 HD
ENDBRANCH  30  38
BRANCH  31  40
ATOM     40  O   UNL     1       9.277  -0.256  20.505  0.00  0.00    -0.386 OA
ATOM     41  H   UNL     1       9.937   0.192  19.950  0.00  0.00    +0.210 HD
ENDBRANCH  31  40
BRANCH  32  42
ATOM     42  O   UNL     1      10.327   2.283  21.556  0.00  0.00    -0.386 OA
ATOM     43  H   UNL     1      10.786   1.725  20.894  0.00  0.00    +0.210 HD
ENDBRANCH  32  42
ENDBRANCH  26  29
ENDBRANCH   1  26
TORSDOF 13
ENDMDL
MODEL 4
REMARK VINA RESULT:      -6.8      1.920      4.944
REMARK  Name = 
REMARK  14 active torsions:
REMARK  status: ('A' for Active; 'I' for Inactive)
REMARK    1  A    between atoms: C_1  and  C_2
REMARK    2  A    between atoms: C_2  and  O_3
REMARK    3  A    between atoms: O_3  and  C_4
REMARK    4  A    between atoms: C_4  and  C_6
REMARK    5  A    between atoms: C_8  and  O_39
REMARK    6  A    between atoms: C_10  and  O_38
REMARK    7  A    between atoms: C_11  and  O_37
REMARK    8  A    between atoms: C_12  and  O_15
REMARK    9  A    between atoms: O_15  and  C_16
REMARK   10  A    between atoms: C_17  and  C_29
REMARK   11  A    between atoms: C_21  and  O_28
REMARK   12  A    between atoms: C_23  and  O_27
REMARK   13  A    between atoms: C_31  and  O_36
REMARK   14  A    between atoms: C_32  and  O_35
REMARK                            x       y       z     vdW  Elec       q    Type
REMARK                         _______ _______ _______ _____ _____    ______ ____
ROOT
ATOM      1  C   UNL     1       6.430  -0.317  24.606  0.00  0.00    +0.214 A 
ATOM      2  C   UNL     1       6.814   1.067  25.088  0.00  0.00    +0.238 A 
ATOM      3  O   UNL     1       6.239   1.645  26.002  0.00  0.00    -0.283 OA
ATOM      4  C   UNL     1       7.935   1.762  24.487  0.00  0.00    +0.109 A 
ATOM      5  C   UNL     1       8.815   0.992  23.756  0.00  0.00    +0.147 A 
ATOM      6  C   UNL     1       9.961   1.597  23.225  0.00  0.00    +0.092 A 
ATOM      7  C   UNL     1      10.188   2.955  23.442  0.00  0.00    +0.124 A 
ATOM      8  C   UNL     1       9.302   3.737  24.183  0.00  0.00    +0.091 A 
ATOM      9  O   UNL     1       8.636  -0.350  23.581  0.00  0.00    -0.451 OA
ATOM     10  C   UNL     1       8.166   3.134  24.695  0.00  0.00    +0.135 A 
ATOM     11  C   UNL     1       7.422  -0.977  23.929  0.00  0.00    +0.181 A 
ENDROOT
BRANCH  11  12
ATOM     12  C   UNL     1       7.432  -2.407  23.426  0.00  0.00    +0.025 A 
ATOM     13  C   UNL     1       8.179  -3.447  24.002  0.00  0.00    +0.015 A 
ATOM     14  C   UNL     1       8.083  -4.778  23.551  0.00  0.00    +0.050 A 
ATOM     15  C   UNL     1       7.229  -5.097  22.510  0.00  0.00    +0.158 A 
ATOM     16  C   UNL     1       6.543  -4.094  21.845  0.00  0.00    +0.159 A 
ATOM     17  C   UNL     1       6.648  -2.767  22.283  0.00  0.00    +0.060 A 
BRANCH  15  18
ATOM     18  O   UNL     1       7.056  -6.403  22.153  0.00  0.00    -0.503 OA
ATOM     19  H   UNL     1       6.246  -6.411  21.603  0.00  0.00    +0.292 HD
ENDBRANCH  15  18
BRANCH  16  20
ATOM     20  O   UNL     1       5.763  -4.460  20.781  0.00  0.00    -0.503 OA
ATOM     21  H   UNL     1       5.656  -5.426  20.789  0.00  0.00    +0.292 HD
ENDBRANCH  16  20
ENDBRANCH  11  12
BRANCH   7  22
ATOM     22  O   UNL     1      11.288   3.587  22.946  0.00  0.00    -0.507 OA
ATOM     23  H   UNL     1      11.123   3.859  22.030  0.00  0.00    +0.292 HD
ENDBRANCH   7  22
BRANCH  10  24
ATOM     24  O   UNL     1       7.279   3.910  25.386  0.00  0.00    -0.506 OA
ATOM     25  H   UNL     1       7.749   4.528  25.969  0.00  0.00    +0.292 HD
ENDBRANCH  10  24
BRANCH   1  26
ATOM     26  O   UNL     1       5.144  -0.842  24.892  0.00  0.00    -0.453 OA
BRANCH  26  29
ATOM     27  C   UNL     1       5.478  -3.979  26.686  0.00  0.00    +0.261 C 
ATOM     28  O   UNL     1       5.066  -3.090  25.635  0.00  0.00    -0.322 OA
ATOM     29  C   UNL     1       5.091  -1.717  26.052  0.00  0.00    +0.340 C 
ATOM     30  C   UNL     1       3.881  -1.572  26.999  0.00  0.00    +0.214 C 
ATOM     31  C   UNL     1       4.256  -2.411  28.251  0.00  0.00    +0.180 C 
ATOM     32  C   UNL     1       4.521  -3.898  27.890  0.00  0.00    +0.185 C 
BRANCH  27  33
ATOM     33  C   UNL     1       5.580  -5.425  26.183  0.00  0.00    +0.339 C 
ATOM     34  O   UNL     1       6.230  -6.299  26.749  0.00  0.00    -0.248 OA
BRANCH  33  35
ATOM     35  O   UNL     1       4.911  -5.593  25.007  0.00  0.00    -0.463 OA
BRANCH  35  37
ATOM     36  C   UNL     1       3.163  -7.239  25.381  0.00  0.00    +0.048 C 
ATOM     37  C   UNL     1       4.477  -6.923  24.692  0.00  0.00    +0.229 C 
ENDBRANCH  35  37
ENDBRANCH  33  35
ENDBRANCH  27  33
BRANCH  30  38
ATOM     38  O   UNL     1       2.662  -2.106  26.445  0.00  0.00    -0.383 OA
ATOM     39  H   UNL     1       2.831  -3.047  26.246  0.00  0.00    +0.210 HD
ENDBRANCH  30  38
BRANCH  31  40
ATOM     40  O   UNL     1       3.232  -2.294  29.245  0.00  0.00    -0.386 OA
ATOM     41  H   UNL     1       3.681  -2.046  30.071  0.00  0.00    +0.210 HD
ENDBRANCH  31  40
BRANCH  32  42
ATOM     42  O   UNL     1       5.095  -4.562  29.029  0.00  0.00    -0.386 OA
ATOM     43  H   UNL     1       5.709  -3.929  29.455  0.00  0.00    +0.210 HD
ENDBRANCH  32  42
ENDBRANCH  26  29
ENDBRANCH   1  26
TORSDOF 13
ENDMDL
MODEL 5
REMARK VINA RESULT:      -6.8      2.141      6.781
REMARK  Name = 
REMARK  14 active torsions:
REMARK  status: ('A' for Active; 'I' for Inactive)
REMARK    1  A    between atoms: C_1  and  C_2
REMARK    2  A    between atoms: C_2  and  O_3
REMARK    3  A    between atoms: O_3  and  C_4
REMARK    4  A    between atoms: C_4  and  C_6
REMARK    5  A    between atoms: C_8  and  O_39
REMARK    6  A    between atoms: C_10  and  O_38
REMARK    7  A    between atoms: C_11  and  O_37
REMARK    8  A    between atoms: C_12  and  O_15
REMARK    9  A    between atoms: O_15  and  C_16
REMARK   10  A    between atoms: C_17  and  C_29
REMARK   11  A    between atoms: C_21  and  O_28
REMARK   12  A    between atoms: C_23  and  O_27
REMARK   13  A    between atoms: C_31  and  O_36
REMARK   14  A    between atoms: C_32  and  O_35
REMARK                            x       y       z     vdW  Elec       q    Type
REMARK                         _______ _______ _______ _____ _____    ______ ____
ROOT
ATOM      1  C   UNL     1       5.863  -0.646  24.910  0.00  0.00    +0.214 A 
ATOM      2  C   UNL     1       5.891  -1.963  24.161  0.00  0.00    +0.238 A 
ATOM      3  O   UNL     1       6.029  -2.043  22.947  0.00  0.00    -0.283 OA
ATOM      4  C   UNL     1       5.790  -3.215  24.885  0.00  0.00    +0.109 A 
ATOM      5  C   UNL     1       6.029  -3.160  26.241  0.00  0.00    +0.147 A 
ATOM      6  C   UNL     1       6.029  -4.353  26.975  0.00  0.00    +0.092 A 
ATOM      7  C   UNL     1       5.786  -5.562  26.326  0.00  0.00    +0.124 A 
ATOM      8  C   UNL     1       5.546  -5.622  24.953  0.00  0.00    +0.091 A 
ATOM      9  O   UNL     1       6.324  -1.992  26.884  0.00  0.00    -0.451 OA
ATOM     10  C   UNL     1       5.537  -4.437  24.238  0.00  0.00    +0.135 A 
ATOM     11  C   UNL     1       6.161  -0.746  26.243  0.00  0.00    +0.181 A 
ENDROOT
BRANCH  11  12
ATOM     12  C   UNL     1       6.349   0.367  27.255  0.00  0.00    +0.025 A 
ATOM     13  C   UNL     1       5.508   1.486  27.371  0.00  0.00    +0.015 A 
ATOM     14  C   UNL     1       5.675   2.447  28.388  0.00  0.00    +0.050 A 
ATOM     15  C   UNL     1       6.691   2.304  29.316  0.00  0.00    +0.158 A 
ATOM     16  C   UNL     1       7.606   1.271  29.188  0.00  0.00    +0.159 A 
ATOM     17  C   UNL     1       7.450   0.322  28.169  0.00  0.00    +0.060 A 
BRANCH  15  18
ATOM     18  O   UNL     1       6.778   3.175  30.364  0.00  0.00    -0.503 OA
ATOM     19  H   UNL     1       7.685   3.061  30.714  0.00  0.00    +0.292 HD
ENDBRANCH  15  18
BRANCH  16  20
ATOM     20  O   UNL     1       8.628   1.216  30.098  0.00  0.00    -0.503 OA
ATOM     21  H   UNL     1       9.411   1.645  29.715  0.00  0.00    +0.292 HD
ENDBRANCH  16  20
ENDBRANCH  11  12
BRANCH   7  22
ATOM     22  O   UNL     1       5.775  -6.749  26.997  0.00  0.00    -0.507 OA
ATOM     23  H   UNL     1       6.655  -7.154  26.955  0.00  0.00    +0.292 HD
ENDBRANCH   7  22
BRANCH  10  24
ATOM     24  O   UNL     1       5.262  -4.493  22.901  0.00  0.00    -0.506 OA
ATOM     25  H   UNL     1       5.484  -3.652  22.471  0.00  0.00    +0.292 HD
ENDBRANCH  10  24
BRANCH   1  26
ATOM     26  O   UNL     1       5.574   0.560  24.222  0.00  0.00    -0.453 OA
BRANCH  26  29
ATOM     27  C   UNL     1       9.015   0.764  23.086  0.00  0.00    +0.261 C 
ATOM     28  O   UNL     1       7.934   0.644  24.025  0.00  0.00    -0.322 OA
ATOM     29  C   UNL     1       6.693   1.116  23.478  0.00  0.00    +0.340 C 
ATOM     30  C   UNL     1       6.836   2.652  23.449  0.00  0.00    +0.214 C 
ATOM     31  C   UNL     1       7.917   2.928  22.368  0.00  0.00    +0.180 C 
ATOM     32  C   UNL     1       9.264   2.238  22.712  0.00  0.00    +0.185 C 
BRANCH  27  33
ATOM     33  C   UNL     1      10.299   0.129  23.634  0.00  0.00    +0.339 C 
ATOM     34  O   UNL     1      10.979   0.627  24.526  0.00  0.00    -0.248 OA
BRANCH  33  35
ATOM     35  O   UNL     1      10.614  -1.016  22.966  0.00  0.00    -0.463 OA
BRANCH  35  37
ATOM     36  C   UNL     1       9.545  -2.840  24.165  0.00  0.00    +0.048 C 
ATOM     37  C   UNL     1       9.595  -2.023  22.888  0.00  0.00    +0.229 C 
ENDBRANCH  35  37
ENDBRANCH  33  35
ENDBRANCH  27  33
BRANCH  30  38
ATOM     38  O   UNL     1       7.295   3.202  24.700  0.00  0.00    -0.383 OA
ATOM     39  H   UNL     1       7.275   2.474  25.352  0.00  0.00    +0.210 HD
ENDBRANCH  30  38
BRANCH  31  40
ATOM     40  O   UNL     1       8.087   4.339  22.193  0.00  0.00    -0.386 OA
ATOM     41  H   UNL     1       7.261   4.753  22.493  0.00  0.00    +0.210 HD
ENDBRANCH  31  40
BRANCH  32  42
ATOM     42  O   UNL     1      10.139   2.322  21.573  0.00  0.00    -0.386 OA
ATOM     43  H   UNL     1       9.792   1.706  20.895  0.00  0.00    +0.210 HD
ENDBRANCH  32  42
ENDBRANCH  26  29
ENDBRANCH   1  26
TORSDOF 13
ENDMDL
MODEL 6
REMARK VINA RESULT:      -6.8      2.819      6.274
REMARK  Name = 
REMARK  14 active torsions:
REMARK  status: ('A' for Active; 'I' for Inactive)
REMARK    1  A    between atoms: C_1  and  C_2
REMARK    2  A    between atoms: C_2  and  O_3
REMARK    3  A    between atoms: O_3  and  C_4
REMARK    4  A    between atoms: C_4  and  C_6
REMARK    5  A    between atoms: C_8  and  O_39
REMARK    6  A    between atoms: C_10  and  O_38
REMARK    7  A    between atoms: C_11  and  O_37
REMARK    8  A    between atoms: C_12  and  O_15
REMARK    9  A    between atoms: O_15  and  C_16
REMARK   10  A    between atoms: C_17  and  C_29
REMARK   11  A    between atoms: C_21  and  O_28
REMARK   12  A    between atoms: C_23  and  O_27
REMARK   13  A    between atoms: C_31  and  O_36
REMARK   14  A    between atoms: C_32  and  O_35
REMARK                            x       y       z     vdW  Elec       q    Type
REMARK                         _______ _______ _______ _____ _____    ______ ____
ROOT
ATOM      1  C   UNL     1       7.872   2.356  23.863  0.00  0.00    +0.214 A 
ATOM      2  C   UNL     1       8.204   3.827  24.008  0.00  0.00    +0.238 A 
ATOM      3  O   UNL     1       7.390   4.668  24.366  0.00  0.00    -0.283 OA
ATOM      4  C   UNL     1       9.552   4.298  23.755  0.00  0.00    +0.109 A 
ATOM      5  C   UNL     1      10.544   3.340  23.741  0.00  0.00    +0.147 A 
ATOM      6  C   UNL     1      11.874   3.749  23.585  0.00  0.00    +0.092 A 
ATOM      7  C   UNL     1      12.167   5.105  23.448  0.00  0.00    +0.124 A 
ATOM      8  C   UNL     1      11.166   6.077  23.464  0.00  0.00    +0.091 A 
ATOM      9  O   UNL     1      10.280   2.014  23.930  0.00  0.00    -0.451 OA
ATOM     10  C   UNL     1       9.854   5.663  23.607  0.00  0.00    +0.135 A 
ATOM     11  C   UNL     1       8.958   1.523  23.908  0.00  0.00    +0.181 A 
ENDROOT
BRANCH  11  12
ATOM     12  C   UNL     1       8.986   0.007  23.925  0.00  0.00    +0.025 A 
ATOM     13  C   UNL     1       9.280  -0.795  22.809  0.00  0.00    +0.015 A 
ATOM     14  C   UNL     1       9.382  -2.197  22.900  0.00  0.00    +0.050 A 
ATOM     15  C   UNL     1       9.193  -2.828  24.117  0.00  0.00    +0.158 A 
ATOM     16  C   UNL     1       8.807  -2.093  25.225  0.00  0.00    +0.159 A 
ATOM     17  C   UNL     1       8.692  -0.700  25.135  0.00  0.00    +0.060 A 
BRANCH  15  18
ATOM     18  O   UNL     1       9.404  -4.173  24.221  0.00  0.00    -0.503 OA
ATOM     19  H   UNL     1      10.349  -4.300  24.001  0.00  0.00    +0.292 HD
ENDBRANCH  15  18
BRANCH  16  20
ATOM     20  O   UNL     1       8.572  -2.779  26.388  0.00  0.00    -0.503 OA
ATOM     21  H   UNL     1       7.629  -2.704  26.610  0.00  0.00    +0.292 HD
ENDBRANCH  16  20
ENDBRANCH  11  12
BRANCH   7  22
ATOM     22  O   UNL     1      13.446   5.552  23.294  0.00  0.00    -0.507 OA
ATOM     23  H   UNL     1      13.539   5.981  22.429  0.00  0.00    +0.292 HD
ENDBRANCH   7  22
BRANCH  10  24
ATOM     24  O   UNL     1       8.872   6.612  23.582  0.00  0.00    -0.506 OA
ATOM     25  H   UNL     1       8.181   6.373  22.943  0.00  0.00    +0.292 HD
ENDBRANCH  10  24
BRANCH   1  26
ATOM     26  O   UNL     1       6.524   1.938  23.726  0.00  0.00    -0.453 OA
BRANCH  26  29
ATOM     27  C   UNL     1       5.064  -0.386  26.100  0.00  0.00    +0.261 C 
ATOM     28  O   UNL     1       5.289   0.243  24.828  0.00  0.00    -0.322 OA
ATOM     29  C   UNL     1       5.883   1.543  24.969  0.00  0.00    +0.340 C 
ATOM     30  C   UNL     1       4.743   2.439  25.500  0.00  0.00    +0.214 C 
ATOM     31  C   UNL     1       4.477   1.927  26.942  0.00  0.00    +0.180 C 
ATOM     32  C   UNL     1       4.074   0.428  26.956  0.00  0.00    +0.185 C 
BRANCH  27  33
ATOM     33  C   UNL     1       4.561  -1.825  25.927  0.00  0.00    +0.339 C 
ATOM     34  O   UNL     1       3.383  -2.152  26.032  0.00  0.00    -0.248 OA
BRANCH  33  35
ATOM     35  O   UNL     1       5.590  -2.690  25.704  0.00  0.00    -0.463 OA
BRANCH  35  37
ATOM     36  C   UNL     1       5.580  -2.935  23.287  0.00  0.00    +0.048 C 
ATOM     37  C   UNL     1       5.430  -3.625  24.629  0.00  0.00    +0.229 C 
ENDBRANCH  35  37
ENDBRANCH  33  35
ENDBRANCH  27  33
BRANCH  30  38
ATOM     38  O   UNL     1       3.524   2.313  24.742  0.00  0.00    -0.383 OA
ATOM     39  H   UNL     1       2.811   2.693  25.291  0.00  0.00    +0.210 HD
ENDBRANCH  30  38
BRANCH  31  40
ATOM     40  O   UNL     1       3.480   2.737  27.574  0.00  0.00    -0.386 OA
ATOM     41  H   UNL     1       3.938   3.530  27.899  0.00  0.00    +0.210 HD
ENDBRANCH  31  40
BRANCH  32  42
ATOM     42  O   UNL     1       4.080  -0.048  28.313  0.00  0.00    -0.386 OA
ATOM     43  H   UNL     1       4.448  -0.956  28.300  0.00  0.00    +0.210 HD
ENDBRANCH  32  42
ENDBRANCH  26  29
ENDBRANCH   1  26
TORSDOF 13
ENDMDL
MODEL 7
REMARK VINA RESULT:      -6.7      2.287      5.454
REMARK  Name = 
REMARK  14 active torsions:
REMARK  status: ('A' for Active; 'I' for Inactive)
REMARK    1  A    between atoms: C_1  and  C_2
REMARK    2  A    between atoms: C_2  and  O_3
REMARK    3  A    between atoms: O_3  and  C_4
REMARK    4  A    between atoms: C_4  and  C_6
REMARK    5  A    between atoms: C_8  and  O_39
REMARK    6  A    between atoms: C_10  and  O_38
REMARK    7  A    between atoms: C_11  and  O_37
REMARK    8  A    between atoms: C_12  and  O_15
REMARK    9  A    between atoms: O_15  and  C_16
REMARK   10  A    between atoms: C_17  and  C_29
REMARK   11  A    between atoms: C_21  and  O_28
REMARK   12  A    between atoms: C_23  and  O_27
REMARK   13  A    between atoms: C_31  and  O_36
REMARK   14  A    between atoms: C_32  and  O_35
REMARK                            x       y       z     vdW  Elec       q    Type
REMARK                         _______ _______ _______ _____ _____    ______ ____
ROOT
ATOM      1  C   UNL     1       5.062  -1.145  25.766  0.00  0.00    +0.214 A 
ATOM      2  C   UNL     1       5.130   0.368  25.772  0.00  0.00    +0.238 A 
ATOM      3  O   UNL     1       4.531   1.072  24.969  0.00  0.00    -0.283 OA
ATOM      4  C   UNL     1       5.902   1.058  26.787  0.00  0.00    +0.109 A 
ATOM      5  C   UNL     1       6.245   0.324  27.902  0.00  0.00    +0.147 A 
ATOM      6  C   UNL     1       6.917   0.963  28.952  0.00  0.00    +0.092 A 
ATOM      7  C   UNL     1       7.225   2.319  28.848  0.00  0.00    +0.124 A 
ATOM      8  C   UNL     1       6.878   3.066  27.722  0.00  0.00    +0.091 A 
ATOM      9  O   UNL     1       5.902  -0.990  28.044  0.00  0.00    -0.451 OA
ATOM     10  C   UNL     1       6.224   2.423  26.686  0.00  0.00    +0.135 A 
ATOM     11  C   UNL     1       5.393  -1.733  26.958  0.00  0.00    +0.181 A 
ENDROOT
BRANCH  11  12
ATOM     12  C   UNL     1       5.311  -3.196  27.345  0.00  0.00    +0.025 A 
ATOM     13  C   UNL     1       4.117  -3.877  27.631  0.00  0.00    +0.015 A 
ATOM     14  C   UNL     1       4.088  -5.261  27.897  0.00  0.00    +0.050 A 
ATOM     15  C   UNL     1       5.260  -5.994  27.878  0.00  0.00    +0.158 A 
ATOM     16  C   UNL     1       6.475  -5.354  27.697  0.00  0.00    +0.159 A 
ATOM     17  C   UNL     1       6.508  -3.976  27.446  0.00  0.00    +0.060 A 
BRANCH  15  18
ATOM     18  O   UNL     1       5.212  -7.351  28.025  0.00  0.00    -0.503 OA
ATOM     19  H   UNL     1       4.917  -7.690  27.155  0.00  0.00    +0.292 HD
ENDBRANCH  15  18
BRANCH  16  20
ATOM     20  O   UNL     1       7.608  -6.121  27.753  0.00  0.00    -0.503 OA
ATOM     21  H   UNL     1       8.121  -5.981  26.940  0.00  0.00    +0.292 HD
ENDBRANCH  16  20
ENDBRANCH  11  12
BRANCH   7  22
ATOM     22  O   UNL     1       7.878   2.985  29.842  0.00  0.00    -0.507 OA
ATOM     23  H   UNL     1       8.813   2.726  29.849  0.00  0.00    +0.292 HD
ENDBRANCH   7  22
BRANCH  10  24
ATOM     24  O   UNL     1       5.920   3.147  25.568  0.00  0.00    -0.506 OA
ATOM     25  H   UNL     1       6.693   3.650  25.266  0.00  0.00    +0.292 HD
ENDBRANCH  10  24
BRANCH   1  26
ATOM     26  O   UNL     1       4.653  -1.836  24.597  0.00  0.00    -0.453 OA
BRANCH  26  29
ATOM     27  C   UNL     1       7.828  -3.498  24.026  0.00  0.00    +0.261 C 
ATOM     28  O   UNL     1       6.849  -2.449  23.954  0.00  0.00    -0.322 OA
ATOM     29  C   UNL     1       5.522  -2.934  24.207  0.00  0.00    +0.340 C 
ATOM     30  C   UNL     1       5.145  -3.724  22.936  0.00  0.00    +0.214 C 
ATOM     31  C   UNL     1       6.071  -4.971  22.955  0.00  0.00    +0.180 C 
ATOM     32  C   UNL     1       7.572  -4.573  22.952  0.00  0.00    +0.185 C 
BRANCH  27  33
ATOM     33  C   UNL     1       9.251  -2.940  23.893  0.00  0.00    +0.339 C 
ATOM     34  O   UNL     1      10.264  -3.592  24.130  0.00  0.00    -0.248 OA
BRANCH  33  35
ATOM     35  O   UNL     1       9.240  -1.624  23.539  0.00  0.00    -0.463 OA
BRANCH  35  37
ATOM     36  C   UNL     1       9.183  -0.406  25.641  0.00  0.00    +0.048 C 
ATOM     37  C   UNL     1       9.968  -0.720  24.381  0.00  0.00    +0.229 C 
ENDBRANCH  35  37
ENDBRANCH  33  35
ENDBRANCH  27  33
BRANCH  30  38
ATOM     38  O   UNL     1       5.394  -2.993  21.719  0.00  0.00    -0.383 OA
ATOM     39  H   UNL     1       5.599  -3.654  21.030  0.00  0.00    +0.210 HD
ENDBRANCH  30  38
BRANCH  31  40
ATOM     40  O   UNL     1       5.761  -5.830  21.852  0.00  0.00    -0.386 OA
ATOM     41  H   UNL     1       5.167  -5.325  21.272  0.00  0.00    +0.210 HD
ENDBRANCH  31  40
BRANCH  32  42
ATOM     42  O   UNL     1       8.368  -5.741  23.215  0.00  0.00    -0.386 OA
ATOM     43  H   UNL     1       8.613  -6.125  22.348  0.00  0.00    +0.210 HD
ENDBRANCH  32  42
ENDBRANCH  26  29
ENDBRANCH   1  26
TORSDOF 13
ENDMDL
MODEL 8
REMARK VINA RESULT:      -6.7      1.622      3.293
REMARK  Name = 
REMARK  14 active torsions:
REMARK  status: ('A' for Active; 'I' for Inactive)
REMARK    1  A    between atoms: C_1  and  C_2
REMARK    2  A    between atoms: C_2  and  O_3
REMARK    3  A    between atoms: O_3  and  C_4
REMARK    4  A    between atoms: C_4  and  C_6
REMARK    5  A    between atoms: C_8  and  O_39
REMARK    6  A    between atoms: C_10  and  O_38
REMARK    7  A    between atoms: C_11  and  O_37
REMARK    8  A    between atoms: C_12  and  O_15
REMARK    9  A    between atoms: O_15  and  C_16
REMARK   10  A    between atoms: C_17  and  C_29
REMARK   11  A    between atoms: C_21  and  O_28
REMARK   12  A    between atoms: C_23  and  O_27
REMARK   13  A    between atoms: C_31  and  O_36
REMARK   14  A    between atoms: C_32  and  O_35
REMARK                            x       y       z     vdW  Elec       q    Type
REMARK                         _______ _______ _______ _____ _____    ______ ____
ROOT
ATOM      1  C   UNL     1       7.080  -1.823  24.267  0.00  0.00    +0.214 A 
ATOM      2  C   UNL     1       7.781  -1.294  23.033  0.00  0.00    +0.238 A 
ATOM      3  O   UNL     1       8.239  -2.017  22.157  0.00  0.00    -0.283 OA
ATOM      4  C   UNL     1       7.905   0.135  22.823  0.00  0.00    +0.109 A 
ATOM      5  C   UNL     1       7.073   0.940  23.571  0.00  0.00    +0.147 A 
ATOM      6  C   UNL     1       7.090   2.323  23.347  0.00  0.00    +0.092 A 
ATOM      7  C   UNL     1       7.943   2.854  22.381  0.00  0.00    +0.124 A 
ATOM      8  C   UNL     1       8.786   2.042  21.620  0.00  0.00    +0.091 A 
ATOM      9  O   UNL     1       6.191   0.432  24.481  0.00  0.00    -0.451 OA
ATOM     10  C   UNL     1       8.770   0.679  21.856  0.00  0.00    +0.135 A 
ATOM     11  C   UNL     1       6.254  -0.920  24.881  0.00  0.00    +0.181 A 
ENDROOT
BRANCH  11  12
ATOM     12  C   UNL     1       5.310  -1.142  26.046  0.00  0.00    +0.025 A 
ATOM     13  C   UNL     1       4.239  -2.051  26.039  0.00  0.00    +0.015 A 
ATOM     14  C   UNL     1       3.447  -2.286  27.181  0.00  0.00    +0.050 A 
ATOM     15  C   UNL     1       3.716  -1.613  28.360  0.00  0.00    +0.158 A 
ATOM     16  C   UNL     1       4.698  -0.637  28.393  0.00  0.00    +0.159 A 
ATOM     17  C   UNL     1       5.478  -0.392  27.255  0.00  0.00    +0.060 A 
BRANCH  15  18
ATOM     18  O   UNL     1       3.018  -1.927  29.491  0.00  0.00    -0.503 OA
ATOM     19  H   UNL     1       3.393  -2.780  29.793  0.00  0.00    +0.292 HD
ENDBRANCH  15  18
BRANCH  16  20
ATOM     20  O   UNL     1       4.876   0.041  29.569  0.00  0.00    -0.503 OA
ATOM     21  H   UNL     1       4.964   0.988  29.374  0.00  0.00    +0.292 HD
ENDBRANCH  16  20
ENDBRANCH  11  12
BRANCH   7  22
ATOM     22  O   UNL     1       7.996   4.192  22.127  0.00  0.00    -0.507 OA
ATOM     23  H   UNL     1       7.633   4.371  21.245  0.00  0.00    +0.292 HD
ENDBRANCH   7  22
BRANCH  10  24
ATOM     24  O   UNL     1       9.624  -0.110  21.139  0.00  0.00    -0.506 OA
ATOM     25  H   UNL     1      10.015   0.390  20.405  0.00  0.00    +0.292 HD
ENDBRANCH  10  24
BRANCH   1  26
ATOM     26  O   UNL     1       7.280  -3.165  24.682  0.00  0.00    -0.453 OA
BRANCH  26  29
ATOM     27  C   UNL     1       4.815  -5.820  24.896  0.00  0.00    +0.261 C 
ATOM     28  O   UNL     1       6.064  -5.148  25.130  0.00  0.00    -0.322 OA
ATOM     29  C   UNL     1       6.304  -4.111  24.167  0.00  0.00    +0.340 C 
ATOM     30  C   UNL     1       6.657  -4.860  22.864  0.00  0.00    +0.214 C 
ATOM     31  C   UNL     1       5.334  -5.550  22.434  0.00  0.00    +0.180 C 
ATOM     32  C   UNL     1       4.811  -6.523  23.525  0.00  0.00    +0.185 C 
BRANCH  27  33
ATOM     33  C   UNL     1       4.509  -6.826  26.012  0.00  0.00    +0.339 C 
ATOM     34  O   UNL     1       3.481  -7.496  26.063  0.00  0.00    -0.248 OA
BRANCH  33  35
ATOM     35  O   UNL     1       5.487  -6.833  26.961  0.00  0.00    -0.463 OA
BRANCH  35  37
ATOM     36  C   UNL     1       5.505  -5.104  28.668  0.00  0.00    +0.048 C 
ATOM     37  C   UNL     1       5.093  -6.518  28.303  0.00  0.00    +0.229 C 
ENDBRANCH  35  37
ENDBRANCH  33  35
ENDBRANCH  27  33
BRANCH  30  38
ATOM     38  O   UNL     1       7.660  -5.878  23.051  0.00  0.00    -0.383 OA
ATOM     39  H   UNL     1       7.184  -6.709  23.248  0.00  0.00    +0.210 HD
ENDBRANCH  30  38
BRANCH  31  40
ATOM     40  O   UNL     1       5.515  -6.224  21.184  0.00  0.00    -0.386 OA
ATOM     41  H   UNL     1       6.423  -6.029  20.898  0.00  0.00    +0.210 HD
ENDBRANCH  31  40
BRANCH  32  42
ATOM     42  O   UNL     1       3.478  -6.940  23.183  0.00  0.00    -0.386 OA
ATOM     43  H   UNL     1       3.504  -7.261  22.258  0.00  0.00    +0.210 HD
ENDBRANCH  32  42
ENDBRANCH  26  29
ENDBRANCH   1  26
TORSDOF 13
ENDMDL
MODEL 9
REMARK VINA RESULT:      -6.5      2.606      7.397
REMARK  Name = 
REMARK  14 active torsions:
REMARK  status: ('A' for Active; 'I' for Inactive)
REMARK    1  A    between atoms: C_1  and  C_2
REMARK    2  A    between atoms: C_2  and  O_3
REMARK    3  A    between atoms: O_3  and  C_4
REMARK    4  A    between atoms: C_4  and  C_6
REMARK    5  A    between atoms: C_8  and  O_39
REMARK    6  A    between atoms: C_10  and  O_38
REMARK    7  A    between atoms: C_11  and  O_37
REMARK    8  A    between atoms: C_12  and  O_15
REMARK    9  A    between atoms: O_15  and  C_16
REMARK   10  A    between atoms: C_17  and  C_29
REMARK   11  A    between atoms: C_21  and  O_28
REMARK   12  A    between atoms: C_23  and  O_27
REMARK   13  A    between atoms: C_31  and  O_36
REMARK   14  A    between atoms: C_32  and  O_35
REMARK                            x       y       z     vdW  Elec       q    Type
REMARK                         _______ _______ _______ _____ _____    ______ ____
ROOT
ATOM      1  C   UNL     1       7.234  -1.352  25.011  0.00  0.00    +0.214 A 
ATOM      2  C   UNL     1       6.776  -2.760  25.330  0.00  0.00    +0.238 A 
ATOM      3  O   UNL     1       6.604  -3.170  26.471  0.00  0.00    -0.283 OA
ATOM      4  C   UNL     1       6.479  -3.690  24.258  0.00  0.00    +0.109 A 
ATOM      5  C   UNL     1       6.286  -3.143  23.007  0.00  0.00    +0.147 A 
ATOM      6  C   UNL     1       5.914  -3.986  21.952  0.00  0.00    +0.092 A 
ATOM      7  C   UNL     1       5.748  -5.350  22.185  0.00  0.00    +0.124 A 
ATOM      8  C   UNL     1       5.940  -5.907  23.450  0.00  0.00    +0.091 A 
ATOM      9  O   UNL     1       6.390  -1.802  22.774  0.00  0.00    -0.451 OA
ATOM     10  C   UNL     1       6.318  -5.069  24.484  0.00  0.00    +0.135 A 
ATOM     11  C   UNL     1       6.936  -0.933  23.742  0.00  0.00    +0.181 A 
ENDROOT
BRANCH  11  12
ATOM     12  C   UNL     1       7.126   0.442  23.131  0.00  0.00    +0.025 A 
ATOM     13  C   UNL     1       6.122   1.419  23.045  0.00  0.00    +0.015 A 
ATOM     14  C   UNL     1       6.376   2.714  22.550  0.00  0.00    +0.050 A 
ATOM     15  C   UNL     1       7.649   3.058  22.133  0.00  0.00    +0.158 A 
ATOM     16  C   UNL     1       8.652   2.103  22.108  0.00  0.00    +0.159 A 
ATOM     17  C   UNL     1       8.398   0.811  22.586  0.00  0.00    +0.060 A 
BRANCH  15  18
ATOM     18  O   UNL     1       7.914   4.345  21.762  0.00  0.00    -0.503 OA
ATOM     19  H   UNL     1       7.420   4.476  20.926  0.00  0.00    +0.292 HD
ENDBRANCH  15  18
BRANCH  16  20
ATOM     20  O   UNL     1       9.875   2.484  21.624  0.00  0.00    -0.503 OA
ATOM     21  H   UNL     1      10.334   1.699  21.280  0.00  0.00    +0.292 HD
ENDBRANCH  16  20
ENDBRANCH  11  12
BRANCH   7  22
ATOM     22  O   UNL     1       5.386  -6.210  21.191  0.00  0.00    -0.507 OA
ATOM     23  H   UNL     1       5.204  -7.085  21.568  0.00  0.00    +0.292 HD
ENDBRANCH   7  22
BRANCH  10  24
ATOM     24  O   UNL     1       6.545  -5.621  25.713  0.00  0.00    -0.506 OA
ATOM     25  H   UNL     1       6.950  -6.499  25.623  0.00  0.00    +0.292 HD
ENDBRANCH  10  24
BRANCH   1  26
ATOM     26  O   UNL     1       7.885  -0.572  26.000  0.00  0.00    -0.453 OA
BRANCH  26  29
ATOM     27  C   UNL     1       6.555   2.773  26.466  0.00  0.00    +0.261 C 
ATOM     28  O   UNL     1       7.556   1.755  26.301  0.00  0.00    -0.322 OA
ATOM     29  C   UNL     1       7.051   0.448  26.614  0.00  0.00    +0.340 C 
ATOM     30  C   UNL     1       6.923   0.435  28.152  0.00  0.00    +0.214 C 
ATOM     31  C   UNL     1       5.771   1.429  28.462  0.00  0.00    +0.180 C 
ATOM     32  C   UNL     1       6.082   2.854  27.930  0.00  0.00    +0.185 C 
BRANCH  27  33
ATOM     33  C   UNL     1       7.069   4.139  25.995  0.00  0.00    +0.339 C 
ATOM     34  O   UNL     1       6.409   5.173  26.055  0.00  0.00    -0.248 OA
BRANCH  33  35
ATOM     35  O   UNL     1       8.315   4.044  25.453  0.00  0.00    -0.463 OA
BRANCH  35  37
ATOM     36  C   UNL     1      10.142   5.005  24.170  0.00  0.00    +0.048 C 
ATOM     37  C   UNL     1       8.953   5.271  25.074  0.00  0.00    +0.229 C 
ENDBRANCH  35  37
ENDBRANCH  33  35
ENDBRANCH  27  33
BRANCH  30  38
ATOM     38  O   UNL     1       8.113   0.896  28.822  0.00  0.00    -0.383 OA
ATOM     39  H   UNL     1       8.394   1.714  28.368  0.00  0.00    +0.210 HD
ENDBRANCH  30  38
BRANCH  31  40
ATOM     40  O   UNL     1       5.505   1.449  29.869  0.00  0.00    -0.386 OA
ATOM     41  H   UNL     1       5.521   0.522  30.162  0.00  0.00    +0.210 HD
ENDBRANCH  31  40
BRANCH  32  42
ATOM     42  O   UNL     1       4.895   3.660  28.026  0.00  0.00    -0.386 OA
ATOM     43  H   UNL     1       4.607   3.641  28.963  0.00  0.00    +0.210 HD
ENDBRANCH  32  42
ENDBRANCH  26  29
ENDBRANCH   1  26
TORSDOF 13
ENDMDL
