MODEL 1
REMARK VINA RESULT:      -5.8      0.000      0.000
REMARK  Name = 
REMARK  29 active torsions:
REMARK  status: ('A' for Active; 'I' for Inactive)
REMARK    1  A    between atoms: C_1  and  C_2
REMARK    2  A    between atoms: C_3  and  O_65
REMARK    3  A    between atoms: C_4  and  O_64
REMARK    4  A    between atoms: C_5  and  O_63
REMARK    5  A    between atoms: C_6  and  O_8
REMARK    6  A    between atoms: O_8  and  C_9
REMARK    7  A    between atoms: C_11  and  O_62
REMARK    8  A    between atoms: C_16  and  C_54
REMARK    9  A    between atoms: C_17  and  O_20
REMARK   10  A    between atoms: O_20  and  C_21
REMARK   11  A    between atoms: C_22  and  O_31
REMARK   12  A    between atoms: C_23  and  O_30
REMARK   13  A    between atoms: C_24  and  O_29
REMARK   14  A    between atoms: C_25  and  C_27
REMARK   15  A    between atoms: C_27  and  O_28
REMARK   16  A    between atoms: O_31  and  C_32
REMARK   17  A    between atoms: C_33  and  O_42
REMARK   18  A    between atoms: C_34  and  O_41
REMARK   19  A    between atoms: C_35  and  O_40
REMARK   20  A    between atoms: C_36  and  C_38
REMARK   21  A    between atoms: C_38  and  O_39
REMARK   22  A    between atoms: O_42  and  C_43
REMARK   23  A    between atoms: C_44  and  O_53
REMARK   24  A    between atoms: C_45  and  O_52
REMARK   25  A    between atoms: C_46  and  O_51
REMARK   26  A    between atoms: C_47  and  C_49
REMARK   27  A    between atoms: C_49  and  O_50
REMARK   28  A    between atoms: C_56  and  O_61
REMARK   29  A    between atoms: C_57  and  O_60
REMARK                            x       y       z     vdW  Elec       q    Type
REMARK                         _______ _______ _______ _____ _____    ______ ____
ROOT
ATOM      1  C   UNL     1       7.421   2.683  24.970  0.00  0.00    +0.340 C 
ATOM      2  O   UNL     1       8.117   2.114  23.836  0.00  0.00    -0.331 OA
ATOM      3  C   UNL     1       9.478   2.526  23.637  0.00  0.00    +0.179 C 
ATOM      4  C   UNL     1       9.511   4.032  23.477  0.00  0.00    +0.177 C 
ATOM      5  C   UNL     1       9.032   4.684  24.769  0.00  0.00    +0.180 C 
ATOM      6  C   UNL     1       7.607   4.234  25.184  0.00  0.00    +0.221 C 
ENDROOT
BRANCH   5   7
ATOM      7  O   UNL     1       9.083   6.104  24.566  0.00  0.00    -0.386 OA
ATOM      8  H   UNL     1       9.852   6.317  24.008  0.00  0.00    +0.210 HD
ENDBRANCH   5   7
BRANCH   4   9
ATOM      9  O   UNL     1       8.677   4.467  22.392  0.00  0.00    -0.386 OA
ATOM     10  H   UNL     1       8.730   5.441  22.346  0.00  0.00    +0.210 HD
ENDBRANCH   4   9
BRANCH   6  11
ATOM     11  O   UNL     1       7.218   4.569  26.550  0.00  0.00    -0.337 OA
BRANCH  11  12
ATOM     12  C   UNL     1       6.973   5.957  26.840  0.00  0.00    +0.283 C 
ATOM     13  O   UNL     1       7.452   6.306  28.143  0.00  0.00    -0.341 OA
ATOM     14  C   UNL     1       6.939   5.467  29.180  0.00  0.00    +0.178 C 
ATOM     15  C   UNL     1       5.423   5.589  29.275  0.00  0.00    +0.177 C 
ATOM     16  C   UNL     1       4.776   5.396  27.892  0.00  0.00    +0.179 C 
ATOM     17  C   UNL     1       5.440   6.320  26.835  0.00  0.00    +0.208 C 
BRANCH  16  18
ATOM     18  O   UNL     1       3.375   5.643  28.088  0.00  0.00    -0.386 OA
ATOM     19  H   UNL     1       3.095   5.080  28.832  0.00  0.00    +0.210 HD
ENDBRANCH  16  18
BRANCH  15  20
ATOM     20  O   UNL     1       5.048   6.865  29.818  0.00  0.00    -0.386 OA
ATOM     21  H   UNL     1       4.830   6.709  30.762  0.00  0.00    +0.210 HD
ENDBRANCH  15  20
BRANCH  14  22
ATOM     22  C   UNL     1       7.668   5.795  30.485  0.00  0.00    +0.190 C 
BRANCH  22  23
ATOM     23  O   UNL     1       8.959   6.340  30.217  0.00  0.00    -0.392 OA
ATOM     24  H   UNL     1       9.272   6.723  31.055  0.00  0.00    +0.210 HD
ENDBRANCH  22  23
ENDBRANCH  14  22
BRANCH  17  25
ATOM     25  O   UNL     1       4.852   6.283  25.508  0.00  0.00    -0.338 OA
BRANCH  25  26
ATOM     26  C   UNL     1       3.805   5.308  25.322  0.00  0.00    +0.282 C 
ATOM     27  O   UNL     1       4.247   4.234  24.455  0.00  0.00    -0.341 OA
ATOM     28  C   UNL     1       4.412   4.590  23.073  0.00  0.00    +0.178 C 
ATOM     29  C   UNL     1       3.097   5.131  22.490  0.00  0.00    +0.177 C 
ATOM     30  C   UNL     1       2.595   6.295  23.349  0.00  0.00    +0.179 C 
ATOM     31  C   UNL     1       2.440   5.837  24.801  0.00  0.00    +0.201 C 
BRANCH  29  32
ATOM     32  O   UNL     1       2.066   4.123  22.460  0.00  0.00    -0.386 OA
ATOM     33  H   UNL     1       2.222   3.504  23.199  0.00  0.00    +0.210 HD
ENDBRANCH  29  32
BRANCH  30  34
ATOM     34  O   UNL     1       1.320   6.757  22.875  0.00  0.00    -0.386 OA
ATOM     35  H   UNL     1       0.645   6.259  23.381  0.00  0.00    +0.210 HD
ENDBRANCH  30  34
BRANCH  31  36
ATOM     36  O   UNL     1       1.830   6.873  25.574  0.00  0.00    -0.384 OA
ATOM     37  H   UNL     1       2.490   7.107  26.260  0.00  0.00    +0.210 HD
ENDBRANCH  31  36
BRANCH  28  38
ATOM     38  C   UNL     1       4.870   3.330  22.308  0.00  0.00    +0.190 C 
BRANCH  38  39
ATOM     39  O   UNL     1       6.230   3.467  21.854  0.00  0.00    -0.392 OA
ATOM     40  H   UNL     1       6.189   3.521  20.884  0.00  0.00    +0.210 HD
ENDBRANCH  38  39
ENDBRANCH  28  38
ENDBRANCH  25  26
ENDBRANCH  17  25
ENDBRANCH  11  12
ENDBRANCH   6  11
BRANCH   3  41
ATOM     41  C   UNL     1       9.990   1.864  22.347  0.00  0.00    +0.190 C 
BRANCH  41  42
ATOM     42  O   UNL     1       9.010   1.979  21.319  0.00  0.00    -0.392 OA
ATOM     43  H   UNL     1       9.333   2.663  20.706  0.00  0.00    +0.210 HD
ENDBRANCH  41  42
ENDBRANCH   3  41
BRANCH   1  44
ATOM     44  O   UNL     1       7.735   1.946  26.159  0.00  0.00    -0.453 OA
BRANCH  44  50
ATOM     45  C   UNL     1       6.968  -4.251  24.561  0.00  0.00    +0.131 A 
ATOM     46  C   UNL     1       6.312  -3.358  25.411  0.00  0.00    +0.093 A 
ATOM     47  C   UNL     1       6.884  -2.134  25.767  0.00  0.00    +0.147 A 
ATOM     48  O   UNL     1       6.148  -1.352  26.616  0.00  0.00    -0.451 OA
ATOM     49  C   UNL     1       6.430   0.006  26.668  0.00  0.00    +0.181 A 
ATOM     50  C   UNL     1       7.577   0.557  26.202  0.00  0.00    +0.214 A 
ATOM     51  C   UNL     1       8.618  -0.424  25.684  0.00  0.00    +0.238 A 
ATOM     52  O   UNL     1       9.812  -0.161  25.616  0.00  0.00    -0.283 OA
ATOM     53  C   UNL     1       8.121  -1.762  25.275  0.00  0.00    +0.109 A 
ATOM     54  C   UNL     1       8.794  -2.652  24.419  0.00  0.00    +0.135 A 
ATOM     55  C   UNL     1       8.220  -3.888  24.066  0.00  0.00    +0.092 A 
BRANCH  49  56
ATOM     56  C   UNL     1       5.326   0.792  27.272  0.00  0.00    +0.025 A 
ATOM     57  C   UNL     1       4.214   1.192  26.504  0.00  0.00    +0.015 A 
ATOM     58  C   UNL     1       3.162   1.914  27.070  0.00  0.00    +0.050 A 
ATOM     59  C   UNL     1       3.236   2.277  28.402  0.00  0.00    +0.158 A 
ATOM     60  C   UNL     1       4.345   1.935  29.169  0.00  0.00    +0.159 A 
ATOM     61  C   UNL     1       5.391   1.199  28.615  0.00  0.00    +0.060 A 
BRANCH  60  62
ATOM     62  O   UNL     1       4.355   2.342  30.475  0.00  0.00    -0.503 OA
ATOM     63  H   UNL     1       3.748   3.094  30.568  0.00  0.00    +0.292 HD
ENDBRANCH  60  62
BRANCH  59  64
ATOM     64  O   UNL     1       2.207   2.982  28.956  0.00  0.00    -0.503 OA
ATOM     65  H   UNL     1       1.588   2.300  29.284  0.00  0.00    +0.292 HD
ENDBRANCH  59  64
ENDBRANCH  49  56
BRANCH  54  66
ATOM     66  O   UNL     1      10.010  -2.327  23.880  0.00  0.00    -0.506 OA
ATOM     67  H   UNL     1      10.625  -2.059  24.588  0.00  0.00    +0.292 HD
ENDBRANCH  54  66
BRANCH  45  68
ATOM     68  O   UNL     1       6.481  -5.479  24.162  0.00  0.00    -0.461 OA
BRANCH  68  72
ATOM     69  C   UNL     1       3.294  -6.843  26.617  0.00  0.00    +0.041 C 
ATOM     70  C   UNL     1       3.581  -7.436  25.230  0.00  0.00    +0.150 C 
ATOM     71  O   UNL     1       4.896  -7.110  24.773  0.00  0.00    -0.334 OA
ATOM     72  C   UNL     1       5.094  -5.725  24.455  0.00  0.00    +0.339 C 
ATOM     73  C   UNL     1       4.180  -5.369  23.259  0.00  0.00    +0.214 C 
ATOM     74  C   UNL     1       2.722  -5.617  23.693  0.00  0.00    +0.180 C 
ATOM     75  C   UNL     1       2.527  -7.068  24.178  0.00  0.00    +0.174 C 
BRANCH  73  76
ATOM     76  O   UNL     1       4.438  -6.190  22.102  0.00  0.00    -0.383 OA
ATOM     77  H   UNL     1       5.261  -5.858  21.694  0.00  0.00    +0.210 HD
ENDBRANCH  73  76
BRANCH  74  78
ATOM     78  O   UNL     1       1.816  -5.354  22.615  0.00  0.00    -0.386 OA
ATOM     79  H   UNL     1       2.290  -4.752  22.004  0.00  0.00    +0.210 HD
ENDBRANCH  74  78
BRANCH  75  80
ATOM     80  O   UNL     1       1.223  -7.282  24.725  0.00  0.00    -0.387 OA
ATOM     81  H   UNL     1       1.185  -6.847  25.595  0.00  0.00    +0.210 HD
ENDBRANCH  75  80
ENDBRANCH  68  72
ENDBRANCH  45  68
ENDBRANCH  44  50
ENDBRANCH   1  44
TORSDOF 28
ENDMDL
MODEL 2
REMARK VINA RESULT:      -5.4      2.144      5.130
REMARK  Name = 
REMARK  29 active torsions:
REMARK  status: ('A' for Active; 'I' for Inactive)
REMARK    1  A    between atoms: C_1  and  C_2
REMARK    2  A    between atoms: C_3  and  O_65
REMARK    3  A    between atoms: C_4  and  O_64
REMARK    4  A    between atoms: C_5  and  O_63
REMARK    5  A    between atoms: C_6  and  O_8
REMARK    6  A    between atoms: O_8  and  C_9
REMARK    7  A    between atoms: C_11  and  O_62
REMARK    8  A    between atoms: C_16  and  C_54
REMARK    9  A    between atoms: C_17  and  O_20
REMARK   10  A    between atoms: O_20  and  C_21
REMARK   11  A    between atoms: C_22  and  O_31
REMARK   12  A    between atoms: C_23  and  O_30
REMARK   13  A    between atoms: C_24  and  O_29
REMARK   14  A    between atoms: C_25  and  C_27
REMARK   15  A    between atoms: C_27  and  O_28
REMARK   16  A    between atoms: O_31  and  C_32
REMARK   17  A    between atoms: C_33  and  O_42
REMARK   18  A    between atoms: C_34  and  O_41
REMARK   19  A    between atoms: C_35  and  O_40
REMARK   20  A    between atoms: C_36  and  C_38
REMARK   21  A    between atoms: C_38  and  O_39
REMARK   22  A    between atoms: O_42  and  C_43
REMARK   23  A    between atoms: C_44  and  O_53
REMARK   24  A    between atoms: C_45  and  O_52
REMARK   25  A    between atoms: C_46  and  O_51
REMARK   26  A    between atoms: C_47  and  C_49
REMARK   27  A    between atoms: C_49  and  O_50
REMARK   28  A    between atoms: C_56  and  O_61
REMARK   29  A    between atoms: C_57  and  O_60
REMARK                            x       y       z     vdW  Elec       q    Type
REMARK                         _______ _______ _______ _____ _____    ______ ____
ROOT
ATOM      1  C   UNL     1       6.574   2.756  26.857  0.00  0.00    +0.340 C 
ATOM      2  O   UNL     1       6.580   1.976  28.076  0.00  0.00    -0.331 OA
ATOM      3  C   UNL     1       5.720   2.421  29.134  0.00  0.00    +0.179 C 
ATOM      4  C   UNL     1       6.100   3.839  29.505  0.00  0.00    +0.177 C 
ATOM      5  C   UNL     1       5.849   4.754  28.313  0.00  0.00    +0.180 C 
ATOM      6  C   UNL     1       6.626   4.322  27.042  0.00  0.00    +0.221 C 
ENDROOT
BRANCH   5   7
ATOM      7  O   UNL     1       6.224   6.081  28.716  0.00  0.00    -0.386 OA
ATOM      8  H   UNL     1       7.196   6.142  28.739  0.00  0.00    +0.210 HD
ENDBRANCH   5   7
BRANCH   4   9
ATOM      9  O   UNL     1       7.481   3.933  29.890  0.00  0.00    -0.386 OA
ATOM     10  H   UNL     1       7.599   3.416  30.710  0.00  0.00    +0.210 HD
ENDBRANCH   4   9
BRANCH   6  11
ATOM     11  O   UNL     1       6.195   4.955  25.800  0.00  0.00    -0.337 OA
BRANCH  11  12
ATOM     12  C   UNL     1       6.444   4.236  24.578  0.00  0.00    +0.283 C 
ATOM     13  O   UNL     1       7.845   4.183  24.285  0.00  0.00    -0.341 OA
ATOM     14  C   UNL     1       8.469   5.468  24.261  0.00  0.00    +0.178 C 
ATOM     15  C   UNL     1       7.872   6.339  23.162  0.00  0.00    +0.177 C 
ATOM     16  C   UNL     1       6.336   6.355  23.256  0.00  0.00    +0.179 C 
ATOM     17  C   UNL     1       5.770   4.911  23.324  0.00  0.00    +0.208 C 
BRANCH  16  18
ATOM     18  O   UNL     1       5.892   7.106  22.115  0.00  0.00    -0.386 OA
ATOM     19  H   UNL     1       6.205   6.626  21.328  0.00  0.00    +0.210 HD
ENDBRANCH  16  18
BRANCH  15  20
ATOM     20  O   UNL     1       8.279   5.871  21.865  0.00  0.00    -0.386 OA
ATOM     21  H   UNL     1       8.482   4.917  21.969  0.00  0.00    +0.210 HD
ENDBRANCH  15  20
BRANCH  14  22
ATOM     22  C   UNL     1       9.983   5.278  24.145  0.00  0.00    +0.190 C 
BRANCH  22  23
ATOM     23  O   UNL     1      10.302   4.451  23.028  0.00  0.00    -0.392 OA
ATOM     24  H   UNL     1      10.578   3.593  23.395  0.00  0.00    +0.210 HD
ENDBRANCH  22  23
ENDBRANCH  14  22
BRANCH  17  25
ATOM     25  O   UNL     1       4.322   4.802  23.332  0.00  0.00    -0.338 OA
BRANCH  25  26
ATOM     26  C   UNL     1       3.802   3.469  23.518  0.00  0.00    +0.282 C 
ATOM     27  O   UNL     1       3.281   2.938  22.274  0.00  0.00    -0.341 OA
ATOM     28  C   UNL     1       2.065   3.545  21.810  0.00  0.00    +0.178 C 
ATOM     29  C   UNL     1       0.953   3.407  22.862  0.00  0.00    +0.177 C 
ATOM     30  C   UNL     1       1.435   3.983  24.196  0.00  0.00    +0.179 C 
ATOM     31  C   UNL     1       2.728   3.284  24.625  0.00  0.00    +0.201 C 
BRANCH  29  32
ATOM     32  O   UNL     1       0.584   2.030  23.079  0.00  0.00    -0.386 OA
ATOM     33  H   UNL     1       1.401   1.493  23.093  0.00  0.00    +0.210 HD
ENDBRANCH  29  32
BRANCH  30  34
ATOM     34  O   UNL     1       0.445   3.782  25.218  0.00  0.00    -0.386 OA
ATOM     35  H   UNL     1      -0.235   4.473  25.078  0.00  0.00    +0.210 HD
ENDBRANCH  30  34
BRANCH  31  36
ATOM     36  O   UNL     1       3.097   3.710  25.937  0.00  0.00    -0.384 OA
ATOM     37  H   UNL     1       3.159   2.889  26.469  0.00  0.00    +0.210 HD
ENDBRANCH  31  36
BRANCH  28  38
ATOM     38  C   UNL     1       1.658   2.851  20.493  0.00  0.00    +0.190 C 
BRANCH  38  39
ATOM     39  O   UNL     1       1.220   1.500  20.734  0.00  0.00    -0.392 OA
ATOM     40  H   UNL     1       1.230   1.378  21.699  0.00  0.00    +0.210 HD
ENDBRANCH  38  39
ENDBRANCH  28  38
ENDBRANCH  25  26
ENDBRANCH  17  25
ENDBRANCH  11  12
ENDBRANCH   6  11
BRANCH   3  41
ATOM     41  C   UNL     1       5.942   1.499  30.345  0.00  0.00    +0.190 C 
BRANCH  41  42
ATOM     42  O   UNL     1       5.275   0.257  30.138  0.00  0.00    -0.392 OA
ATOM     43  H   UNL     1       4.696   0.123  30.909  0.00  0.00    +0.210 HD
ENDBRANCH  41  42
ENDBRANCH   3  41
BRANCH   1  44
ATOM     44  O   UNL     1       5.477   2.360  26.024  0.00  0.00    -0.453 OA
BRANCH  44  50
ATOM     45  C   UNL     1       4.653  -3.956  27.011  0.00  0.00    +0.131 A 
ATOM     46  C   UNL     1       5.227  -3.177  26.005  0.00  0.00    +0.093 A 
ATOM     47  C   UNL     1       5.008  -1.799  25.932  0.00  0.00    +0.147 A 
ATOM     48  O   UNL     1       5.616  -1.148  24.893  0.00  0.00    -0.451 OA
ATOM     49  C   UNL     1       5.801   0.224  24.996  0.00  0.00    +0.181 A 
ATOM     50  C   UNL     1       5.139   1.010  25.880  0.00  0.00    +0.214 A 
ATOM     51  C   UNL     1       4.082   0.313  26.723  0.00  0.00    +0.238 A 
ATOM     52  O   UNL     1       3.147   0.903  27.248  0.00  0.00    -0.283 OA
ATOM     53  C   UNL     1       4.217  -1.159  26.869  0.00  0.00    +0.109 A 
ATOM     54  C   UNL     1       3.631  -1.931  27.887  0.00  0.00    +0.135 A 
ATOM     55  C   UNL     1       3.848  -3.321  27.955  0.00  0.00    +0.092 A 
BRANCH  49  56
ATOM     56  C   UNL     1       6.818   0.732  24.043  0.00  0.00    +0.025 A 
ATOM     57  C   UNL     1       6.446   1.213  22.771  0.00  0.00    +0.015 A 
ATOM     58  C   UNL     1       7.395   1.712  21.878  0.00  0.00    +0.050 A 
ATOM     59  C   UNL     1       8.730   1.693  22.234  0.00  0.00    +0.158 A 
ATOM     60  C   UNL     1       9.128   1.179  23.464  0.00  0.00    +0.159 A 
ATOM     61  C   UNL     1       8.184   0.696  24.369  0.00  0.00    +0.060 A 
BRANCH  60  62
ATOM     62  O   UNL     1      10.467   1.178  23.741  0.00  0.00    -0.503 OA
ATOM     63  H   UNL     1      10.769   0.257  23.800  0.00  0.00    +0.292 HD
ENDBRANCH  60  62
BRANCH  59  64
ATOM     64  O   UNL     1       9.658   2.181  21.361  0.00  0.00    -0.503 OA
ATOM     65  H   UNL     1      10.016   1.391  20.912  0.00  0.00    +0.292 HD
ENDBRANCH  59  64
ENDBRANCH  49  56
BRANCH  54  66
ATOM     66  O   UNL     1       2.860  -1.349  28.858  0.00  0.00    -0.506 OA
ATOM     67  H   UNL     1       3.039  -0.391  28.893  0.00  0.00    +0.292 HD
ENDBRANCH  54  66
BRANCH  45  68
ATOM     68  O   UNL     1       4.812  -5.320  27.155  0.00  0.00    -0.461 OA
BRANCH  68  72
ATOM     69  C   UNL     1       4.677  -6.254  23.013  0.00  0.00    +0.041 C 
ATOM     70  C   UNL     1       3.415  -5.958  23.835  0.00  0.00    +0.150 C 
ATOM     71  O   UNL     1       3.723  -5.301  25.067  0.00  0.00    -0.334 OA
ATOM     72  C   UNL     1       4.412  -6.116  26.026  0.00  0.00    +0.339 C 
ATOM     73  C   UNL     1       3.472  -7.273  26.440  0.00  0.00    +0.214 C 
ATOM     74  C   UNL     1       3.148  -8.090  25.174  0.00  0.00    +0.180 C 
ATOM     75  C   UNL     1       2.540  -7.195  24.076  0.00  0.00    +0.174 C 
BRANCH  73  76
ATOM     76  O   UNL     1       2.225  -6.803  26.988  0.00  0.00    -0.383 OA
ATOM     77  H   UNL     1       1.752  -6.340  26.268  0.00  0.00    +0.210 HD
ENDBRANCH  73  76
BRANCH  74  78
ATOM     78  O   UNL     1       2.239  -9.155  25.472  0.00  0.00    -0.386 OA
ATOM     79  H   UNL     1       1.466  -8.738  25.906  0.00  0.00    +0.210 HD
ENDBRANCH  74  78
BRANCH  75  80
ATOM     80  O   UNL     1       2.368  -7.896  22.842  0.00  0.00    -0.387 OA
ATOM     81  H   UNL     1       3.123  -8.501  22.731  0.00  0.00    +0.210 HD
ENDBRANCH  75  80
ENDBRANCH  68  72
ENDBRANCH  45  68
ENDBRANCH  44  50
ENDBRANCH   1  44
TORSDOF 28
ENDMDL
MODEL 3
REMARK VINA RESULT:      -5.4      1.999      4.288
REMARK  Name = 
REMARK  29 active torsions:
REMARK  status: ('A' for Active; 'I' for Inactive)
REMARK    1  A    between atoms: C_1  and  C_2
REMARK    2  A    between atoms: C_3  and  O_65
REMARK    3  A    between atoms: C_4  and  O_64
REMARK    4  A    between atoms: C_5  and  O_63
REMARK    5  A    between atoms: C_6  and  O_8
REMARK    6  A    between atoms: O_8  and  C_9
REMARK    7  A    between atoms: C_11  and  O_62
REMARK    8  A    between atoms: C_16  and  C_54
REMARK    9  A    between atoms: C_17  and  O_20
REMARK   10  A    between atoms: O_20  and  C_21
REMARK   11  A    between atoms: C_22  and  O_31
REMARK   12  A    between atoms: C_23  and  O_30
REMARK   13  A    between atoms: C_24  and  O_29
REMARK   14  A    between atoms: C_25  and  C_27
REMARK   15  A    between atoms: C_27  and  O_28
REMARK   16  A    between atoms: O_31  and  C_32
REMARK   17  A    between atoms: C_33  and  O_42
REMARK   18  A    between atoms: C_34  and  O_41
REMARK   19  A    between atoms: C_35  and  O_40
REMARK   20  A    between atoms: C_36  and  C_38
REMARK   21  A    between atoms: C_38  and  O_39
REMARK   22  A    between atoms: O_42  and  C_43
REMARK   23  A    between atoms: C_44  and  O_53
REMARK   24  A    between atoms: C_45  and  O_52
REMARK   25  A    between atoms: C_46  and  O_51
REMARK   26  A    between atoms: C_47  and  C_49
REMARK   27  A    between atoms: C_49  and  O_50
REMARK   28  A    between atoms: C_56  and  O_61
REMARK   29  A    between atoms: C_57  and  O_60
REMARK                            x       y       z     vdW  Elec       q    Type
REMARK                         _______ _______ _______ _____ _____    ______ ____
ROOT
ATOM      1  C   UNL     1       7.097   2.150  24.379  0.00  0.00    +0.340 C 
ATOM      2  O   UNL     1       8.205   1.941  23.472  0.00  0.00    -0.331 OA
ATOM      3  C   UNL     1       9.485   2.441  23.886  0.00  0.00    +0.179 C 
ATOM      4  C   UNL     1       9.371   3.933  24.121  0.00  0.00    +0.177 C 
ATOM      5  C   UNL     1       8.401   4.187  25.269  0.00  0.00    +0.180 C 
ATOM      6  C   UNL     1       6.992   3.589  25.016  0.00  0.00    +0.221 C 
ENDROOT
BRANCH   5   7
ATOM      7  O   UNL     1       8.329   5.610  25.451  0.00  0.00    -0.386 OA
ATOM      8  H   UNL     1       7.538   5.948  24.994  0.00  0.00    +0.210 HD
ENDBRANCH   5   7
BRANCH   4   9
ATOM      9  O   UNL     1       8.905   4.618  22.948  0.00  0.00    -0.386 OA
ATOM     10  H   UNL     1       8.502   5.461  23.235  0.00  0.00    +0.210 HD
ENDBRANCH   4   9
BRANCH   6  11
ATOM     11  O   UNL     1       6.122   3.521  26.186  0.00  0.00    -0.337 OA
BRANCH  11  12
ATOM     12  C   UNL     1       6.231   4.588  27.146  0.00  0.00    +0.283 C 
ATOM     13  O   UNL     1       6.706   4.104  28.406  0.00  0.00    -0.341 OA
ATOM     14  C   UNL     1       5.932   3.022  28.927  0.00  0.00    +0.178 C 
ATOM     15  C   UNL     1       4.497   3.461  29.193  0.00  0.00    +0.177 C 
ATOM     16  C   UNL     1       3.905   4.157  27.955  0.00  0.00    +0.179 C 
ATOM     17  C   UNL     1       4.849   5.281  27.447  0.00  0.00    +0.208 C 
BRANCH  16  18
ATOM     18  O   UNL     1       2.608   4.620  28.361  0.00  0.00    -0.386 OA
ATOM     19  H   UNL     1       1.971   4.264  27.716  0.00  0.00    +0.210 HD
ENDBRANCH  16  18
BRANCH  15  20
ATOM     20  O   UNL     1       4.437   4.342  30.327  0.00  0.00    -0.386 OA
ATOM     21  H   UNL     1       3.537   4.243  30.704  0.00  0.00    +0.210 HD
ENDBRANCH  15  20
BRANCH  14  22
ATOM     22  C   UNL     1       6.643   2.456  30.159  0.00  0.00    +0.190 C 
BRANCH  22  23
ATOM     23  O   UNL     1       8.055   2.625  30.047  0.00  0.00    -0.392 OA
ATOM     24  H   UNL     1       8.340   3.077  30.861  0.00  0.00    +0.210 HD
ENDBRANCH  22  23
ENDBRANCH  14  22
BRANCH  17  25
ATOM     25  O   UNL     1       4.351   6.063  26.329  0.00  0.00    -0.338 OA
BRANCH  25  26
ATOM     26  C   UNL     1       3.955   5.302  25.168  0.00  0.00    +0.282 C 
ATOM     27  O   UNL     1       4.874   5.521  24.069  0.00  0.00    -0.341 OA
ATOM     28  C   UNL     1       4.809   6.822  23.465  0.00  0.00    +0.178 C 
ATOM     29  C   UNL     1       3.394   7.106  22.936  0.00  0.00    +0.177 C 
ATOM     30  C   UNL     1       2.378   6.923  24.066  0.00  0.00    +0.179 C 
ATOM     31  C   UNL     1       2.505   5.515  24.653  0.00  0.00    +0.201 C 
BRANCH  29  32
ATOM     32  O   UNL     1       3.032   6.215  21.862  0.00  0.00    -0.386 OA
ATOM     33  H   UNL     1       2.286   6.613  21.372  0.00  0.00    +0.210 HD
ENDBRANCH  29  32
BRANCH  30  34
ATOM     34  O   UNL     1       1.039   7.093  23.571  0.00  0.00    -0.386 OA
ATOM     35  H   UNL     1       0.974   8.026  23.280  0.00  0.00    +0.210 HD
ENDBRANCH  30  34
BRANCH  31  36
ATOM     36  O   UNL     1       1.461   5.288  25.601  0.00  0.00    -0.384 OA
ATOM     37  H   UNL     1       0.984   6.142  25.671  0.00  0.00    +0.210 HD
ENDBRANCH  31  36
BRANCH  28  38
ATOM     38  C   UNL     1       5.839   6.867  22.317  0.00  0.00    +0.190 C 
BRANCH  38  39
ATOM     39  O   UNL     1       6.189   5.538  21.884  0.00  0.00    -0.392 OA
ATOM     40  H   UNL     1       7.075   5.359  22.242  0.00  0.00    +0.210 HD
ENDBRANCH  38  39
ENDBRANCH  28  38
ENDBRANCH  25  26
ENDBRANCH  17  25
ENDBRANCH  11  12
ENDBRANCH   6  11
BRANCH   3  41
ATOM     41  C   UNL     1      10.487   2.178  22.750  0.00  0.00    +0.190 C 
BRANCH  41  42
ATOM     42  O   UNL     1       9.808   2.157  21.497  0.00  0.00    -0.392 OA
ATOM     43  H   UNL     1       9.402   1.276  21.419  0.00  0.00    +0.210 HD
ENDBRANCH  41  42
ENDBRANCH   3  41
BRANCH   1  44
ATOM     44  O   UNL     1       7.083   1.127  25.383  0.00  0.00    -0.453 OA
BRANCH  44  50
ATOM     45  C   UNL     1       3.309  -3.913  26.757  0.00  0.00    +0.131 A 
ATOM     46  C   UNL     1       4.326  -3.659  25.836  0.00  0.00    +0.093 A 
ATOM     47  C   UNL     1       4.778  -2.362  25.585  0.00  0.00    +0.147 A 
ATOM     48  O   UNL     1       5.771  -2.242  24.651  0.00  0.00    -0.451 OA
ATOM     49  C   UNL     1       6.547  -1.090  24.662  0.00  0.00    +0.181 A 
ATOM     50  C   UNL     1       6.191   0.053  25.297  0.00  0.00    +0.214 A 
ATOM     51  C   UNL     1       4.815   0.049  25.944  0.00  0.00    +0.238 A 
ATOM     52  O   UNL     1       4.185   1.071  26.188  0.00  0.00    -0.283 OA
ATOM     53  C   UNL     1       4.234  -1.281  26.256  0.00  0.00    +0.109 A 
ATOM     54  C   UNL     1       3.207  -1.522  27.186  0.00  0.00    +0.135 A 
ATOM     55  C   UNL     1       2.748  -2.830  27.433  0.00  0.00    +0.092 A 
BRANCH  49  56
ATOM     56  C   UNL     1       7.819  -1.256  23.917  0.00  0.00    +0.025 A 
ATOM     57  C   UNL     1       8.991  -1.688  24.569  0.00  0.00    +0.015 A 
ATOM     58  C   UNL     1      10.187  -1.866  23.871  0.00  0.00    +0.050 A 
ATOM     59  C   UNL     1      10.228  -1.572  22.521  0.00  0.00    +0.158 A 
ATOM     60  C   UNL     1       9.096  -1.099  21.864  0.00  0.00    +0.159 A 
ATOM     61  C   UNL     1       7.894  -0.936  22.551  0.00  0.00    +0.060 A 
BRANCH  60  62
ATOM     62  O   UNL     1       9.216  -0.814  20.532  0.00  0.00    -0.503 OA
ATOM     63  H   UNL     1      10.146  -0.926  20.275  0.00  0.00    +0.292 HD
ENDBRANCH  60  62
BRANCH  59  64
ATOM     64  O   UNL     1      11.396  -1.748  21.838  0.00  0.00    -0.503 OA
ATOM     65  H   UNL     1      11.123  -2.067  20.956  0.00  0.00    +0.292 HD
ENDBRANCH  59  64
ENDBRANCH  49  56
BRANCH  54  66
ATOM     66  O   UNL     1       2.649  -0.496  27.900  0.00  0.00    -0.506 OA
ATOM     67  H   UNL     1       1.953  -0.064  27.370  0.00  0.00    +0.292 HD
ENDBRANCH  54  66
BRANCH  45  68
ATOM     68  O   UNL     1       2.798  -5.159  27.062  0.00  0.00    -0.461 OA
BRANCH  68  72
ATOM     69  C   UNL     1       1.482  -5.820  23.078  0.00  0.00    +0.041 C 
ATOM     70  C   UNL     1       0.742  -6.387  24.298  0.00  0.00    +0.150 C 
ATOM     71  O   UNL     1       1.124  -5.727  25.507  0.00  0.00    -0.334 OA
ATOM     72  C   UNL     1       2.467  -5.990  25.936  0.00  0.00    +0.339 C 
ATOM     73  C   UNL     1       2.579  -7.495  26.275  0.00  0.00    +0.214 C 
ATOM     74  C   UNL     1       2.258  -8.290  24.995  0.00  0.00    +0.180 C 
ATOM     75  C   UNL     1       0.871  -7.909  24.438  0.00  0.00    +0.174 C 
BRANCH  73  76
ATOM     76  O   UNL     1       1.641  -7.903  27.291  0.00  0.00    -0.383 OA
ATOM     77  H   UNL     1       1.861  -8.826  27.529  0.00  0.00    +0.210 HD
ENDBRANCH  73  76
BRANCH  74  78
ATOM     78  O   UNL     1       2.293  -9.700  25.247  0.00  0.00    -0.386 OA
ATOM     79  H   UNL     1       2.482  -9.799  26.203  0.00  0.00    +0.210 HD
ENDBRANCH  74  78
BRANCH  75  80
ATOM     80  O   UNL     1       0.611  -8.521  23.172  0.00  0.00    -0.387 OA
ATOM     81  H   UNL     1       1.428  -8.477  22.643  0.00  0.00    +0.210 HD
ENDBRANCH  75  80
ENDBRANCH  68  72
ENDBRANCH  45  68
ENDBRANCH  44  50
ENDBRANCH   1  44
TORSDOF 28
ENDMDL
MODEL 4
REMARK VINA RESULT:      -5.1      1.418      2.155
REMARK  Name = 
REMARK  29 active torsions:
REMARK  status: ('A' for Active; 'I' for Inactive)
REMARK    1  A    between atoms: C_1  and  C_2
REMARK    2  A    between atoms: C_3  and  O_65
REMARK    3  A    between atoms: C_4  and  O_64
REMARK    4  A    between atoms: C_5  and  O_63
REMARK    5  A    between atoms: C_6  and  O_8
REMARK    6  A    between atoms: O_8  and  C_9
REMARK    7  A    between atoms: C_11  and  O_62
REMARK    8  A    between atoms: C_16  and  C_54
REMARK    9  A    between atoms: C_17  and  O_20
REMARK   10  A    between atoms: O_20  and  C_21
REMARK   11  A    between atoms: C_22  and  O_31
REMARK   12  A    between atoms: C_23  and  O_30
REMARK   13  A    between atoms: C_24  and  O_29
REMARK   14  A    between atoms: C_25  and  C_27
REMARK   15  A    between atoms: C_27  and  O_28
REMARK   16  A    between atoms: O_31  and  C_32
REMARK   17  A    between atoms: C_33  and  O_42
REMARK   18  A    between atoms: C_34  and  O_41
REMARK   19  A    between atoms: C_35  and  O_40
REMARK   20  A    between atoms: C_36  and  C_38
REMARK   21  A    between atoms: C_38  and  O_39
REMARK   22  A    between atoms: O_42  and  C_43
REMARK   23  A    between atoms: C_44  and  O_53
REMARK   24  A    between atoms: C_45  and  O_52
REMARK   25  A    between atoms: C_46  and  O_51
REMARK   26  A    between atoms: C_47  and  C_49
REMARK   27  A    between atoms: C_49  and  O_50
REMARK   28  A    between atoms: C_56  and  O_61
REMARK   29  A    between atoms: C_57  and  O_60
REMARK                            x       y       z     vdW  Elec       q    Type
REMARK                         _______ _______ _______ _____ _____    ______ ____
ROOT
ATOM      1  C   UNL     1       6.710   1.575  25.575  0.00  0.00    +0.340 C 
ATOM      2  O   UNL     1       7.195   0.763  24.479  0.00  0.00    -0.331 OA
ATOM      3  C   UNL     1       8.566   0.944  24.095  0.00  0.00    +0.179 C 
ATOM      4  C   UNL     1       8.775   2.393  23.709  0.00  0.00    +0.177 C 
ATOM      5  C   UNL     1       8.533   3.277  24.927  0.00  0.00    +0.180 C 
ATOM      6  C   UNL     1       7.118   3.098  25.535  0.00  0.00    +0.221 C 
ENDROOT
BRANCH   5   7
ATOM      7  O   UNL     1       8.744   4.635  24.508  0.00  0.00    -0.386 OA
ATOM      8  H   UNL     1       9.694   4.772  24.345  0.00  0.00    +0.210 HD
ENDBRANCH   5   7
BRANCH   4   9
ATOM      9  O   UNL     1       7.887   2.791  22.653  0.00  0.00    -0.386 OA
ATOM     10  H   UNL     1       7.057   3.103  23.061  0.00  0.00    +0.210 HD
ENDBRANCH   4   9
BRANCH   6  11
ATOM     11  O   UNL     1       6.931   3.668  26.865  0.00  0.00    -0.337 OA
BRANCH  11  12
ATOM     12  C   UNL     1       6.731   5.091  26.946  0.00  0.00    +0.283 C 
ATOM     13  O   UNL     1       7.340   5.634  28.122  0.00  0.00    -0.341 OA
ATOM     14  C   UNL     1       6.923   4.987  29.327  0.00  0.00    +0.178 C 
ATOM     15  C   UNL     1       5.425   5.164  29.545  0.00  0.00    +0.177 C 
ATOM     16  C   UNL     1       4.642   4.766  28.281  0.00  0.00    +0.179 C 
ATOM     17  C   UNL     1       5.209   5.489  27.029  0.00  0.00    +0.208 C 
BRANCH  16  18
ATOM     18  O   UNL     1       3.270   5.079  28.567  0.00  0.00    -0.386 OA
ATOM     19  H   UNL     1       3.272   5.617  29.380  0.00  0.00    +0.210 HD
ENDBRANCH  16  18
BRANCH  15  20
ATOM     20  O   UNL     1       5.120   6.521  29.905  0.00  0.00    -0.386 OA
ATOM     21  H   UNL     1       5.167   7.042  29.075  0.00  0.00    +0.210 HD
ENDBRANCH  15  20
BRANCH  14  22
ATOM     22  C   UNL     1       7.781   5.503  30.484  0.00  0.00    +0.190 C 
BRANCH  22  23
ATOM     23  O   UNL     1       8.785   6.397  30.008  0.00  0.00    -0.392 OA
ATOM     24  H   UNL     1       8.790   6.308  29.038  0.00  0.00    +0.210 HD
ENDBRANCH  22  23
ENDBRANCH  14  22
BRANCH  17  25
ATOM     25  O   UNL     1       4.492   5.254  25.788  0.00  0.00    -0.338 OA
BRANCH  25  26
ATOM     26  C   UNL     1       4.396   6.390  24.903  0.00  0.00    +0.282 C 
ATOM     27  O   UNL     1       3.113   6.415  24.230  0.00  0.00    -0.341 OA
ATOM     28  C   UNL     1       2.921   5.394  23.238  0.00  0.00    +0.178 C 
ATOM     29  C   UNL     1       4.004   5.482  22.151  0.00  0.00    +0.177 C 
ATOM     30  C   UNL     1       5.389   5.428  22.801  0.00  0.00    +0.179 C 
ATOM     31  C   UNL     1       5.518   6.546  23.839  0.00  0.00    +0.201 C 
BRANCH  29  32
ATOM     32  O   UNL     1       3.914   6.709  21.398  0.00  0.00    -0.386 OA
ATOM     33  H   UNL     1       3.128   6.656  20.819  0.00  0.00    +0.210 HD
ENDBRANCH  29  32
BRANCH  30  34
ATOM     34  O   UNL     1       6.417   5.601  21.812  0.00  0.00    -0.386 OA
ATOM     35  H   UNL     1       6.454   6.561  21.623  0.00  0.00    +0.210 HD
ENDBRANCH  30  34
BRANCH  31  36
ATOM     36  O   UNL     1       6.856   6.593  24.338  0.00  0.00    -0.384 OA
ATOM     37  H   UNL     1       7.239   5.713  24.136  0.00  0.00    +0.210 HD
ENDBRANCH  31  36
BRANCH  28  38
ATOM     38  C   UNL     1       1.518   5.583  22.625  0.00  0.00    +0.190 C 
BRANCH  38  39
ATOM     39  O   UNL     1       1.530   5.308  21.211  0.00  0.00    -0.392 OA
ATOM     40  H   UNL     1       2.406   5.577  20.888  0.00  0.00    +0.210 HD
ENDBRANCH  38  39
ENDBRANCH  28  38
ENDBRANCH  25  26
ENDBRANCH  17  25
ENDBRANCH  11  12
ENDBRANCH   6  11
BRANCH   3  41
ATOM     41  C   UNL     1       8.840   0.045  22.878  0.00  0.00    +0.190 C 
BRANCH  41  42
ATOM     42  O   UNL     1       8.929  -1.316  23.289  0.00  0.00    -0.392 OA
ATOM     43  H   UNL     1       8.132  -1.759  22.949  0.00  0.00    +0.210 HD
ENDBRANCH  41  42
ENDBRANCH   3  41
BRANCH   1  44
ATOM     44  O   UNL     1       7.058   0.970  26.827  0.00  0.00    -0.453 OA
BRANCH  44  50
ATOM     45  C   UNL     1       6.109  -5.352  26.007  0.00  0.00    +0.131 A 
ATOM     46  C   UNL     1       5.472  -4.340  26.727  0.00  0.00    +0.093 A 
ATOM     47  C   UNL     1       6.079  -3.099  26.936  0.00  0.00    +0.147 A 
ATOM     48  O   UNL     1       5.358  -2.194  27.668  0.00  0.00    -0.451 OA
ATOM     49  C   UNL     1       5.683  -0.849  27.553  0.00  0.00    +0.181 A 
ATOM     50  C   UNL     1       6.855  -0.397  27.041  0.00  0.00    +0.214 A 
ATOM     51  C   UNL     1       7.870  -1.467  26.668  0.00  0.00    +0.238 A 
ATOM     52  O   UNL     1       9.072  -1.252  26.588  0.00  0.00    -0.283 OA
ATOM     53  C   UNL     1       7.335  -2.830  26.422  0.00  0.00    +0.109 A 
ATOM     54  C   UNL     1       7.989  -3.841  25.697  0.00  0.00    +0.135 A 
ATOM     55  C   UNL     1       7.379  -5.094  25.492  0.00  0.00    +0.092 A 
BRANCH  49  56
ATOM     56  C   UNL     1       4.598   0.040  28.035  0.00  0.00    +0.025 A 
ATOM     57  C   UNL     1       4.671   0.653  29.302  0.00  0.00    +0.015 A 
ATOM     58  C   UNL     1       3.663   1.507  29.754  0.00  0.00    +0.050 A 
ATOM     59  C   UNL     1       2.554   1.720  28.957  0.00  0.00    +0.158 A 
ATOM     60  C   UNL     1       2.437   1.088  27.723  0.00  0.00    +0.159 A 
ATOM     61  C   UNL     1       3.447   0.248  27.258  0.00  0.00    +0.060 A 
BRANCH  60  62
ATOM     62  O   UNL     1       1.304   1.334  26.997  0.00  0.00    -0.503 OA
ATOM     63  H   UNL     1       0.898   0.484  26.761  0.00  0.00    +0.292 HD
ENDBRANCH  60  62
BRANCH  59  64
ATOM     64  O   UNL     1       1.570   2.556  29.399  0.00  0.00    -0.503 OA
ATOM     65  H   UNL     1       0.946   1.974  29.876  0.00  0.00    +0.292 HD
ENDBRANCH  59  64
ENDBRANCH  49  56
BRANCH  54  66
ATOM     66  O   UNL     1       9.222  -3.625  25.142  0.00  0.00    -0.506 OA
ATOM     67  H   UNL     1       9.902  -4.110  25.646  0.00  0.00    +0.292 HD
ENDBRANCH  54  66
BRANCH  45  68
ATOM     68  O   UNL     1       5.588  -6.606  25.757  0.00  0.00    -0.461 OA
BRANCH  68  72
ATOM     69  C   UNL     1       1.562  -7.837  26.319  0.00  0.00    +0.041 C 
ATOM     70  C   UNL     1       2.355  -8.163  25.047  0.00  0.00    +0.150 C 
ATOM     71  O   UNL     1       3.762  -8.001  25.239  0.00  0.00    -0.334 OA
ATOM     72  C   UNL     1       4.192  -6.643  25.414  0.00  0.00    +0.339 C 
ATOM     73  C   UNL     1       3.899  -5.873  24.104  0.00  0.00    +0.214 C 
ATOM     74  C   UNL     1       2.379  -5.929  23.856  0.00  0.00    +0.180 C 
ATOM     75  C   UNL     1       1.877  -7.386  23.813  0.00  0.00    +0.174 C 
BRANCH  73  76
ATOM     76  O   UNL     1       4.550  -6.461  22.960  0.00  0.00    -0.383 OA
ATOM     77  H   UNL     1       4.171  -6.037  22.165  0.00  0.00    +0.210 HD
ENDBRANCH  73  76
BRANCH  74  78
ATOM     78  O   UNL     1       2.037  -5.276  22.628  0.00  0.00    -0.386 OA
ATOM     79  H   UNL     1       1.433  -5.886  22.156  0.00  0.00    +0.210 HD
ENDBRANCH  74  78
BRANCH  75  80
ATOM     80  O   UNL     1       0.451  -7.463  23.733  0.00  0.00    -0.387 OA
ATOM     81  H   UNL     1       0.140  -8.042  24.452  0.00  0.00    +0.210 HD
ENDBRANCH  75  80
ENDBRANCH  68  72
ENDBRANCH  45  68
ENDBRANCH  44  50
ENDBRANCH   1  44
TORSDOF 28
ENDMDL
MODEL 5
REMARK VINA RESULT:      -4.7      2.229      4.703
REMARK  Name = 
REMARK  29 active torsions:
REMARK  status: ('A' for Active; 'I' for Inactive)
REMARK    1  A    between atoms: C_1  and  C_2
REMARK    2  A    between atoms: C_3  and  O_65
REMARK    3  A    between atoms: C_4  and  O_64
REMARK    4  A    between atoms: C_5  and  O_63
REMARK    5  A    between atoms: C_6  and  O_8
REMARK    6  A    between atoms: O_8  and  C_9
REMARK    7  A    between atoms: C_11  and  O_62
REMARK    8  A    between atoms: C_16  and  C_54
REMARK    9  A    between atoms: C_17  and  O_20
REMARK   10  A    between atoms: O_20  and  C_21
REMARK   11  A    between atoms: C_22  and  O_31
REMARK   12  A    between atoms: C_23  and  O_30
REMARK   13  A    between atoms: C_24  and  O_29
REMARK   14  A    between atoms: C_25  and  C_27
REMARK   15  A    between atoms: C_27  and  O_28
REMARK   16  A    between atoms: O_31  and  C_32
REMARK   17  A    between atoms: C_33  and  O_42
REMARK   18  A    between atoms: C_34  and  O_41
REMARK   19  A    between atoms: C_35  and  O_40
REMARK   20  A    between atoms: C_36  and  C_38
REMARK   21  A    between atoms: C_38  and  O_39
REMARK   22  A    between atoms: O_42  and  C_43
REMARK   23  A    between atoms: C_44  and  O_53
REMARK   24  A    between atoms: C_45  and  O_52
REMARK   25  A    between atoms: C_46  and  O_51
REMARK   26  A    between atoms: C_47  and  C_49
REMARK   27  A    between atoms: C_49  and  O_50
REMARK   28  A    between atoms: C_56  and  O_61
REMARK   29  A    between atoms: C_57  and  O_60
REMARK                            x       y       z     vdW  Elec       q    Type
REMARK                         _______ _______ _______ _____ _____    ______ ____
ROOT
ATOM      1  C   UNL     1       6.835   2.548  24.319  0.00  0.00    +0.340 C 
ATOM      2  O   UNL     1       8.026   2.096  23.634  0.00  0.00    -0.331 OA
ATOM      3  C   UNL     1       9.242   2.806  23.911  0.00  0.00    +0.179 C 
ATOM      4  C   UNL     1       9.044   4.265  23.555  0.00  0.00    +0.177 C 
ATOM      5  C   UNL     1       7.967   4.858  24.455  0.00  0.00    +0.180 C 
ATOM      6  C   UNL     1       6.612   4.108  24.356  0.00  0.00    +0.221 C 
ENDROOT
BRANCH   5   7
ATOM      7  O   UNL     1       7.818   6.236  24.079  0.00  0.00    -0.386 OA
ATOM      8  H   UNL     1       8.550   6.483  23.486  0.00  0.00    +0.210 HD
ENDBRANCH   5   7
BRANCH   4   9
ATOM      9  O   UNL     1       8.654   4.425  22.182  0.00  0.00    -0.386 OA
ATOM     10  H   UNL     1       9.205   5.133  21.796  0.00  0.00    +0.210 HD
ENDBRANCH   4   9
BRANCH   6  11
ATOM     11  O   UNL     1       5.646   4.420  25.404  0.00  0.00    -0.337 OA
BRANCH  11  12
ATOM     12  C   UNL     1       5.158   5.773  25.464  0.00  0.00    +0.283 C 
ATOM     13  O   UNL     1       5.790   6.504  26.521  0.00  0.00    -0.341 OA
ATOM     14  C   UNL     1       5.686   5.864  27.794  0.00  0.00    +0.178 C 
ATOM     15  C   UNL     1       4.228   5.740  28.221  0.00  0.00    +0.177 C 
ATOM     16  C   UNL     1       3.386   5.109  27.097  0.00  0.00    +0.179 C 
ATOM     17  C   UNL     1       3.612   5.852  25.752  0.00  0.00    +0.208 C 
BRANCH  16  18
ATOM     18  O   UNL     1       2.030   5.149  27.569  0.00  0.00    -0.386 OA
ATOM     19  H   UNL     1       1.730   6.071  27.473  0.00  0.00    +0.210 HD
ENDBRANCH  16  18
BRANCH  15  20
ATOM     20  O   UNL     1       3.690   7.025  28.574  0.00  0.00    -0.386 OA
ATOM     21  H   UNL     1       2.843   7.111  28.087  0.00  0.00    +0.210 HD
ENDBRANCH  15  20
BRANCH  14  22
ATOM     22  C   UNL     1       6.561   6.620  28.797  0.00  0.00    +0.190 C 
BRANCH  22  23
ATOM     23  O   UNL     1       7.893   6.109  28.788  0.00  0.00    -0.392 OA
ATOM     24  H   UNL     1       8.410   6.689  29.374  0.00  0.00    +0.210 HD
ENDBRANCH  22  23
ENDBRANCH  14  22
BRANCH  17  25
ATOM     25  O   UNL     1       2.802   5.393  24.637  0.00  0.00    -0.338 OA
BRANCH  25  26
ATOM     26  C   UNL     1       3.535   5.038  23.445  0.00  0.00    +0.282 C 
ATOM     27  O   UNL     1       3.326   6.018  22.398  0.00  0.00    -0.341 OA
ATOM     28  C   UNL     1       2.014   6.019  21.813  0.00  0.00    +0.178 C 
ATOM     29  C   UNL     1       1.683   4.641  21.217  0.00  0.00    +0.177 C 
ATOM     30  C   UNL     1       1.856   3.563  22.290  0.00  0.00    +0.179 C 
ATOM     31  C   UNL     1       3.275   3.623  22.860  0.00  0.00    +0.201 C 
BRANCH  29  32
ATOM     32  O   UNL     1       2.549   4.311  20.111  0.00  0.00    -0.386 OA
ATOM     33  H   UNL     1       2.714   5.126  19.597  0.00  0.00    +0.210 HD
ENDBRANCH  29  32
BRANCH  30  34
ATOM     34  O   UNL     1       1.641   2.257  21.731  0.00  0.00    -0.386 OA
ATOM     35  H   UNL     1       1.510   1.654  22.491  0.00  0.00    +0.210 HD
ENDBRANCH  30  34
BRANCH  31  36
ATOM     36  O   UNL     1       3.487   2.525  23.750  0.00  0.00    -0.384 OA
ATOM     37  H   UNL     1       2.592   2.177  23.950  0.00  0.00    +0.210 HD
ENDBRANCH  31  36
BRANCH  28  38
ATOM     38  C   UNL     1       1.981   7.107  20.720  0.00  0.00    +0.190 C 
BRANCH  38  39
ATOM     39  O   UNL     1       3.170   7.062  19.908  0.00  0.00    -0.392 OA
ATOM     40  H   UNL     1       3.578   6.195  20.071  0.00  0.00    +0.210 HD
ENDBRANCH  38  39
ENDBRANCH  28  38
ENDBRANCH  25  26
ENDBRANCH  17  25
ENDBRANCH  11  12
ENDBRANCH   6  11
BRANCH   3  41
ATOM     41  C   UNL     1      10.351   2.210  23.028  0.00  0.00    +0.190 C 
BRANCH  41  42
ATOM     42  O   UNL     1       9.869   2.026  21.700  0.00  0.00    -0.392 OA
ATOM     43  H   UNL     1       8.899   2.092  21.747  0.00  0.00    +0.210 HD
ENDBRANCH  41  42
ENDBRANCH   3  41
BRANCH   1  44
ATOM     44  O   UNL     1       6.775   1.976  25.633  0.00  0.00    -0.453 OA
BRANCH  44  50
ATOM     45  C   UNL     1       3.051  -2.306  28.688  0.00  0.00    +0.131 A 
ATOM     46  C   UNL     1       3.997  -2.368  27.663  0.00  0.00    +0.093 A 
ATOM     47  C   UNL     1       4.446  -1.217  27.012  0.00  0.00    +0.147 A 
ATOM     48  O   UNL     1       5.366  -1.411  26.016  0.00  0.00    -0.451 OA
ATOM     49  C   UNL     1       6.155  -0.334  25.634  0.00  0.00    +0.181 A 
ATOM     50  C   UNL     1       5.865   0.957  25.929  0.00  0.00    +0.214 A 
ATOM     51  C   UNL     1       4.543   1.191  26.643  0.00  0.00    +0.238 A 
ATOM     52  O   UNL     1       3.948   2.260  26.620  0.00  0.00    -0.283 OA
ATOM     53  C   UNL     1       3.970   0.030  27.372  0.00  0.00    +0.109 A 
ATOM     54  C   UNL     1       3.015   0.108  28.401  0.00  0.00    +0.135 A 
ATOM     55  C   UNL     1       2.559  -1.054  29.053  0.00  0.00    +0.092 A 
BRANCH  49  56
ATOM     56  C   UNL     1       7.364  -0.756  24.884  0.00  0.00    +0.025 A 
ATOM     57  C   UNL     1       8.645  -0.674  25.466  0.00  0.00    +0.015 A 
ATOM     58  C   UNL     1       9.784  -1.088  24.773  0.00  0.00    +0.050 A 
ATOM     59  C   UNL     1       9.654  -1.547  23.476  0.00  0.00    +0.158 A 
ATOM     60  C   UNL     1       8.406  -1.591  22.863  0.00  0.00    +0.159 A 
ATOM     61  C   UNL     1       7.261  -1.197  23.554  0.00  0.00    +0.060 A 
BRANCH  60  62
ATOM     62  O   UNL     1       8.356  -2.041  21.572  0.00  0.00    -0.503 OA
ATOM     63  H   UNL     1       8.644  -2.969  21.558  0.00  0.00    +0.292 HD
ENDBRANCH  60  62
BRANCH  59  64
ATOM     64  O   UNL     1      10.767  -1.952  22.800  0.00  0.00    -0.503 OA
ATOM     65  H   UNL     1      10.912  -1.261  22.124  0.00  0.00    +0.292 HD
ENDBRANCH  59  64
ENDBRANCH  49  56
BRANCH  54  66
ATOM     66  O   UNL     1       2.527   1.317  28.819  0.00  0.00    -0.506 OA
ATOM     67  H   UNL     1       1.905   1.186  29.558  0.00  0.00    +0.292 HD
ENDBRANCH  54  66
BRANCH  45  68
ATOM     68  O   UNL     1       2.550  -3.390  29.380  0.00  0.00    -0.461 OA
BRANCH  68  72
ATOM     69  C   UNL     1       2.560  -5.837  25.909  0.00  0.00    +0.041 C 
ATOM     70  C   UNL     1       1.498  -5.969  27.009  0.00  0.00    +0.150 C 
ATOM     71  O   UNL     1       1.462  -4.817  27.855  0.00  0.00    -0.334 OA
ATOM     72  C   UNL     1       2.614  -4.652  28.694  0.00  0.00    +0.339 C 
ATOM     73  C   UNL     1       2.668  -5.843  29.679  0.00  0.00    +0.214 C 
ATOM     74  C   UNL     1       2.788  -7.135  28.849  0.00  0.00    +0.180 C 
ATOM     75  C   UNL     1       1.631  -7.254  27.836  0.00  0.00    +0.174 C 
BRANCH  73  76
ATOM     76  O   UNL     1       1.476  -5.950  30.483  0.00  0.00    -0.383 OA
ATOM     77  H   UNL     1       1.481  -6.840  30.886  0.00  0.00    +0.210 HD
ENDBRANCH  73  76
BRANCH  74  78
ATOM     78  O   UNL     1       2.794  -8.290  29.696  0.00  0.00    -0.386 OA
ATOM     79  H   UNL     1       2.054  -8.166  30.327  0.00  0.00    +0.210 HD
ENDBRANCH  74  78
BRANCH  75  80
ATOM     80  O   UNL     1       1.799  -8.366  26.953  0.00  0.00    -0.387 OA
ATOM     81  H   UNL     1       1.128  -9.034  27.178  0.00  0.00    +0.210 HD
ENDBRANCH  75  80
ENDBRANCH  68  72
ENDBRANCH  45  68
ENDBRANCH  44  50
ENDBRANCH   1  44
TORSDOF 28
ENDMDL
MODEL 6
REMARK VINA RESULT:      -4.3      2.365      6.407
REMARK  Name = 
REMARK  29 active torsions:
REMARK  status: ('A' for Active; 'I' for Inactive)
REMARK    1  A    between atoms: C_1  and  C_2
REMARK    2  A    between atoms: C_3  and  O_65
REMARK    3  A    between atoms: C_4  and  O_64
REMARK    4  A    between atoms: C_5  and  O_63
REMARK    5  A    between atoms: C_6  and  O_8
REMARK    6  A    between atoms: O_8  and  C_9
REMARK    7  A    between atoms: C_11  and  O_62
REMARK    8  A    between atoms: C_16  and  C_54
REMARK    9  A    between atoms: C_17  and  O_20
REMARK   10  A    between atoms: O_20  and  C_21
REMARK   11  A    between atoms: C_22  and  O_31
REMARK   12  A    between atoms: C_23  and  O_30
REMARK   13  A    between atoms: C_24  and  O_29
REMARK   14  A    between atoms: C_25  and  C_27
REMARK   15  A    between atoms: C_27  and  O_28
REMARK   16  A    between atoms: O_31  and  C_32
REMARK   17  A    between atoms: C_33  and  O_42
REMARK   18  A    between atoms: C_34  and  O_41
REMARK   19  A    between atoms: C_35  and  O_40
REMARK   20  A    between atoms: C_36  and  C_38
REMARK   21  A    between atoms: C_38  and  O_39
REMARK   22  A    between atoms: O_42  and  C_43
REMARK   23  A    between atoms: C_44  and  O_53
REMARK   24  A    between atoms: C_45  and  O_52
REMARK   25  A    between atoms: C_46  and  O_51
REMARK   26  A    between atoms: C_47  and  C_49
REMARK   27  A    between atoms: C_49  and  O_50
REMARK   28  A    between atoms: C_56  and  O_61
REMARK   29  A    between atoms: C_57  and  O_60
REMARK                            x       y       z     vdW  Elec       q    Type
REMARK                         _______ _______ _______ _____ _____    ______ ____
ROOT
ATOM      1  C   UNL     1       6.973   1.462  26.826  0.00  0.00    +0.340 C 
ATOM      2  O   UNL     1       6.534   0.909  28.089  0.00  0.00    -0.331 OA
ATOM      3  C   UNL     1       5.753   1.765  28.935  0.00  0.00    +0.179 C 
ATOM      4  C   UNL     1       6.560   3.008  29.244  0.00  0.00    +0.177 C 
ATOM      5  C   UNL     1       6.818   3.774  27.952  0.00  0.00    +0.180 C 
ATOM      6  C   UNL     1       7.554   2.927  26.882  0.00  0.00    +0.221 C 
ENDROOT
BRANCH   5   7
ATOM      7  O   UNL     1       7.583   4.938  28.300  0.00  0.00    -0.386 OA
ATOM      8  H   UNL     1       8.437   4.657  28.673  0.00  0.00    +0.210 HD
ENDBRANCH   5   7
BRANCH   4   9
ATOM      9  O   UNL     1       7.817   2.683  29.859  0.00  0.00    -0.386 OA
ATOM     10  H   UNL     1       8.260   2.016  29.300  0.00  0.00    +0.210 HD
ENDBRANCH   4   9
BRANCH   6  11
ATOM     11  O   UNL     1       7.552   3.483  25.533  0.00  0.00    -0.337 OA
BRANCH  11  12
ATOM     12  C   UNL     1       6.882   4.743  25.345  0.00  0.00    +0.283 C 
ATOM     13  O   UNL     1       5.466   4.564  25.230  0.00  0.00    -0.341 OA
ATOM     14  C   UNL     1       5.094   3.629  24.216  0.00  0.00    +0.178 C 
ATOM     15  C   UNL     1       5.541   4.114  22.841  0.00  0.00    +0.177 C 
ATOM     16  C   UNL     1       7.030   4.503  22.862  0.00  0.00    +0.179 C 
ATOM     17  C   UNL     1       7.330   5.483  24.029  0.00  0.00    +0.208 C 
BRANCH  16  18
ATOM     18  O   UNL     1       7.300   5.044  21.559  0.00  0.00    -0.386 OA
ATOM     19  H   UNL     1       7.606   5.959  21.696  0.00  0.00    +0.210 HD
ENDBRANCH  16  18
BRANCH  15  20
ATOM     20  O   UNL     1       4.747   5.232  22.413  0.00  0.00    -0.386 OA
ATOM     21  H   UNL     1       4.289   4.946  21.594  0.00  0.00    +0.210 HD
ENDBRANCH  15  20
BRANCH  14  22
ATOM     22  C   UNL     1       3.590   3.364  24.318  0.00  0.00    +0.190 C 
BRANCH  22  23
ATOM     23  O   UNL     1       3.145   3.509  25.665  0.00  0.00    -0.392 OA
ATOM     24  H   UNL     1       2.929   4.451  25.781  0.00  0.00    +0.210 HD
ENDBRANCH  22  23
ENDBRANCH  14  22
BRANCH  17  25
ATOM     25  O   UNL     1       8.691   5.985  24.095  0.00  0.00    -0.338 OA
BRANCH  25  26
ATOM     26  C   UNL     1       9.684   5.029  24.523  0.00  0.00    +0.282 C 
ATOM     27  O   UNL     1      10.589   5.621  25.489  0.00  0.00    -0.341 OA
ATOM     28  C   UNL     1      11.496   6.600  24.958  0.00  0.00    +0.178 C 
ATOM     29  C   UNL     1      12.359   5.994  23.840  0.00  0.00    +0.177 C 
ATOM     30  C   UNL     1      11.453   5.379  22.770  0.00  0.00    +0.179 C 
ATOM     31  C   UNL     1      10.523   4.345  23.410  0.00  0.00    +0.201 C 
BRANCH  29  32
ATOM     32  O   UNL     1      13.230   4.956  24.335  0.00  0.00    -0.386 OA
ATOM     33  H   UNL     1      13.025   4.809  25.280  0.00  0.00    +0.210 HD
ENDBRANCH  29  32
BRANCH  30  34
ATOM     34  O   UNL     1      12.240   4.725  21.760  0.00  0.00    -0.386 OA
ATOM     35  H   UNL     1      12.936   4.228  22.237  0.00  0.00    +0.210 HD
ENDBRANCH  30  34
BRANCH  31  36
ATOM     36  O   UNL     1       9.785   3.663  22.394  0.00  0.00    -0.384 OA
ATOM     37  H   UNL     1       9.219   3.020  22.872  0.00  0.00    +0.210 HD
ENDBRANCH  31  36
BRANCH  28  38
ATOM     38  C   UNL     1      12.381   7.106  26.116  0.00  0.00    +0.190 C 
BRANCH  38  39
ATOM     39  O   UNL     1      11.780   6.814  27.393  0.00  0.00    -0.392 OA
ATOM     40  H   UNL     1      12.473   6.958  28.059  0.00  0.00    +0.210 HD
ENDBRANCH  38  39
ENDBRANCH  28  38
ENDBRANCH  25  26
ENDBRANCH  17  25
ENDBRANCH  11  12
ENDBRANCH   6  11
BRANCH   3  41
ATOM     41  C   UNL     1       5.463   1.006  30.240  0.00  0.00    +0.190 C 
BRANCH  41  42
ATOM     42  O   UNL     1       4.135   0.490  30.218  0.00  0.00    -0.392 OA
ATOM     43  H   UNL     1       3.637   0.982  30.894  0.00  0.00    +0.210 HD
ENDBRANCH  41  42
ENDBRANCH   3  41
BRANCH   1  44
ATOM     44  O   UNL     1       5.931   1.345  25.848  0.00  0.00    -0.453 OA
BRANCH  44  50
ATOM     45  C   UNL     1       3.125  -4.348  26.968  0.00  0.00    +0.131 A 
ATOM     46  C   UNL     1       3.965  -3.835  25.978  0.00  0.00    +0.093 A 
ATOM     47  C   UNL     1       4.192  -2.462  25.850  0.00  0.00    +0.147 A 
ATOM     48  O   UNL     1       5.026  -2.083  24.833  0.00  0.00    -0.451 OA
ATOM     49  C   UNL     1       5.625  -0.833  24.907  0.00  0.00    +0.181 A 
ATOM     50  C   UNL     1       5.197   0.162  25.723  0.00  0.00    +0.214 A 
ATOM     51  C   UNL     1       3.933  -0.132  26.517  0.00  0.00    +0.238 A 
ATOM     52  O   UNL     1       3.203   0.744  26.962  0.00  0.00    -0.283 OA
ATOM     53  C   UNL     1       3.593  -1.564  26.715  0.00  0.00    +0.109 A 
ATOM     54  C   UNL     1       2.743  -2.066  27.716  0.00  0.00    +0.135 A 
ATOM     55  C   UNL     1       2.511  -3.449  27.839  0.00  0.00    +0.092 A 
BRANCH  49  56
ATOM     56  C   UNL     1       6.798  -0.712  24.007  0.00  0.00    +0.025 A 
ATOM     57  C   UNL     1       6.859   0.298  23.026  0.00  0.00    +0.015 A 
ATOM     58  C   UNL     1       7.969   0.431  22.189  0.00  0.00    +0.050 A 
ATOM     59  C   UNL     1       9.007  -0.475  22.300  0.00  0.00    +0.158 A 
ATOM     60  C   UNL     1       8.948  -1.510  23.228  0.00  0.00    +0.159 A 
ATOM     61  C   UNL     1       7.852  -1.638  24.079  0.00  0.00    +0.060 A 
BRANCH  60  62
ATOM     62  O   UNL     1      10.005  -2.377  23.269  0.00  0.00    -0.503 OA
ATOM     63  H   UNL     1      10.782  -1.900  23.604  0.00  0.00    +0.292 HD
ENDBRANCH  60  62
BRANCH  59  64
ATOM     64  O   UNL     1      10.092  -0.344  21.483  0.00  0.00    -0.503 OA
ATOM     65  H   UNL     1      10.829  -0.116  22.083  0.00  0.00    +0.292 HD
ENDBRANCH  59  64
ENDBRANCH  49  56
BRANCH  54  66
ATOM     66  O   UNL     1       2.143  -1.227  28.617  0.00  0.00    -0.506 OA
ATOM     67  H   UNL     1       1.248  -1.551  28.825  0.00  0.00    +0.292 HD
ENDBRANCH  54  66
BRANCH  45  68
ATOM     68  O   UNL     1       2.842  -5.685  27.163  0.00  0.00    -0.461 OA
BRANCH  68  72
ATOM     69  C   UNL     1       1.663  -6.035  23.097  0.00  0.00    +0.041 C 
ATOM     70  C   UNL     1       0.826  -6.601  24.252  0.00  0.00    +0.150 C 
ATOM     71  O   UNL     1       1.202  -6.036  25.510  0.00  0.00    -0.334 OA
ATOM     72  C   UNL     1       2.499  -6.428  25.980  0.00  0.00    +0.339 C 
ATOM     73  C   UNL     1       2.477  -7.952  26.242  0.00  0.00    +0.214 C 
ATOM     74  C   UNL     1       2.154  -8.653  24.908  0.00  0.00    +0.180 C 
ATOM     75  C   UNL     1       0.829  -8.134  24.315  0.00  0.00    +0.174 C 
BRANCH  73  76
ATOM     76  O   UNL     1       1.464  -8.335  27.194  0.00  0.00    -0.383 OA
ATOM     77  H   UNL     1       0.655  -7.835  26.967  0.00  0.00    +0.210 HD
ENDBRANCH  73  76
BRANCH  74  78
ATOM     78  O   UNL     1       2.068 -10.072  25.084  0.00  0.00    -0.386 OA
ATOM     79  H   UNL     1       2.980 -10.378  25.270  0.00  0.00    +0.210 HD
ENDBRANCH  74  78
BRANCH  75  80
ATOM     80  O   UNL     1       0.581  -8.658  23.008  0.00  0.00    -0.387 OA
ATOM     81  H   UNL     1       1.075  -9.493  22.919  0.00  0.00    +0.210 HD
ENDBRANCH  75  80
ENDBRANCH  68  72
ENDBRANCH  45  68
ENDBRANCH  44  50
ENDBRANCH   1  44
TORSDOF 28
ENDMDL
MODEL 7
REMARK VINA RESULT:      -4.0      1.936      4.611
REMARK  Name = 
REMARK  29 active torsions:
REMARK  status: ('A' for Active; 'I' for Inactive)
REMARK    1  A    between atoms: C_1  and  C_2
REMARK    2  A    between atoms: C_3  and  O_65
REMARK    3  A    between atoms: C_4  and  O_64
REMARK    4  A    between atoms: C_5  and  O_63
REMARK    5  A    between atoms: C_6  and  O_8
REMARK    6  A    between atoms: O_8  and  C_9
REMARK    7  A    between atoms: C_11  and  O_62
REMARK    8  A    between atoms: C_16  and  C_54
REMARK    9  A    between atoms: C_17  and  O_20
REMARK   10  A    between atoms: O_20  and  C_21
REMARK   11  A    between atoms: C_22  and  O_31
REMARK   12  A    between atoms: C_23  and  O_30
REMARK   13  A    between atoms: C_24  and  O_29
REMARK   14  A    between atoms: C_25  and  C_27
REMARK   15  A    between atoms: C_27  and  O_28
REMARK   16  A    between atoms: O_31  and  C_32
REMARK   17  A    between atoms: C_33  and  O_42
REMARK   18  A    between atoms: C_34  and  O_41
REMARK   19  A    between atoms: C_35  and  O_40
REMARK   20  A    between atoms: C_36  and  C_38
REMARK   21  A    between atoms: C_38  and  O_39
REMARK   22  A    between atoms: O_42  and  C_43
REMARK   23  A    between atoms: C_44  and  O_53
REMARK   24  A    between atoms: C_45  and  O_52
REMARK   25  A    between atoms: C_46  and  O_51
REMARK   26  A    between atoms: C_47  and  C_49
REMARK   27  A    between atoms: C_49  and  O_50
REMARK   28  A    between atoms: C_56  and  O_61
REMARK   29  A    between atoms: C_57  and  O_60
REMARK                            x       y       z     vdW  Elec       q    Type
REMARK                         _______ _______ _______ _____ _____    ______ ____
ROOT
ATOM      1  C   UNL     1       7.668   0.856  24.344  0.00  0.00    +0.340 C 
ATOM      2  O   UNL     1       7.801  -0.548  24.023  0.00  0.00    -0.331 OA
ATOM      3  C   UNL     1       9.000  -1.203  24.462  0.00  0.00    +0.179 C 
ATOM      4  C   UNL     1      10.192  -0.489  23.860  0.00  0.00    +0.177 C 
ATOM      5  C   UNL     1      10.243   0.938  24.392  0.00  0.00    +0.180 C 
ATOM      6  C   UNL     1       8.950   1.742  24.098  0.00  0.00    +0.221 C 
ENDROOT
BRANCH   5   7
ATOM      7  O   UNL     1      11.386   1.569  23.793  0.00  0.00    -0.386 OA
ATOM      8  H   UNL     1      12.108   0.919  23.726  0.00  0.00    +0.210 HD
ENDBRANCH   5   7
BRANCH   4   9
ATOM      9  O   UNL     1      10.119  -0.456  22.426  0.00  0.00    -0.386 OA
ATOM     10  H   UNL     1       9.897  -1.355  22.117  0.00  0.00    +0.210 HD
ENDBRANCH   4   9
BRANCH   6  11
ATOM     11  O   UNL     1       8.806   2.990  24.840  0.00  0.00    -0.337 OA
BRANCH  11  12
ATOM     12  C   UNL     1       8.509   4.175  24.079  0.00  0.00    +0.283 C 
ATOM     13  O   UNL     1       9.618   4.553  23.255  0.00  0.00    -0.341 OA
ATOM     14  C   UNL     1      10.839   4.702  23.983  0.00  0.00    +0.178 C 
ATOM     15  C   UNL     1      10.721   5.817  25.015  0.00  0.00    +0.177 C 
ATOM     16  C   UNL     1       9.461   5.625  25.878  0.00  0.00    +0.179 C 
ATOM     17  C   UNL     1       8.205   5.424  24.987  0.00  0.00    +0.208 C 
BRANCH  16  18
ATOM     18  O   UNL     1       9.399   6.783  26.726  0.00  0.00    -0.386 OA
ATOM     19  H   UNL     1      10.036   7.425  26.366  0.00  0.00    +0.210 HD
ENDBRANCH  16  18
BRANCH  15  20
ATOM     20  O   UNL     1      10.685   7.103  24.375  0.00  0.00    -0.386 OA
ATOM     21  H   UNL     1      10.410   6.940  23.447  0.00  0.00    +0.210 HD
ENDBRANCH  15  20
BRANCH  14  22
ATOM     22  C   UNL     1      11.984   4.903  22.987  0.00  0.00    +0.190 C 
BRANCH  22  23
ATOM     23  O   UNL     1      13.188   5.252  23.668  0.00  0.00    -0.392 OA
ATOM     24  H   UNL     1      13.683   5.832  23.063  0.00  0.00    +0.210 HD
ENDBRANCH  22  23
ENDBRANCH  14  22
BRANCH  17  25
ATOM     25  O   UNL     1       6.941   5.317  25.696  0.00  0.00    -0.338 OA
BRANCH  25  26
ATOM     26  C   UNL     1       6.505   6.516  26.369  0.00  0.00    +0.282 C 
ATOM     27  O   UNL     1       6.914   6.507  27.760  0.00  0.00    -0.341 OA
ATOM     28  C   UNL     1       6.222   5.566  28.596  0.00  0.00    +0.178 C 
ATOM     29  C   UNL     1       4.708   5.828  28.571  0.00  0.00    +0.177 C 
ATOM     30  C   UNL     1       4.209   5.818  27.123  0.00  0.00    +0.179 C 
ATOM     31  C   UNL     1       4.989   6.847  26.300  0.00  0.00    +0.201 C 
BRANCH  29  32
ATOM     32  O   UNL     1       4.373   7.106  29.148  0.00  0.00    -0.386 OA
ATOM     33  H   UNL     1       4.733   7.136  30.056  0.00  0.00    +0.210 HD
ENDBRANCH  29  32
BRANCH  30  34
ATOM     34  O   UNL     1       2.813   6.152  27.070  0.00  0.00    -0.386 OA
ATOM     35  H   UNL     1       2.677   6.618  26.219  0.00  0.00    +0.210 HD
ENDBRANCH  30  34
BRANCH  31  36
ATOM     36  O   UNL     1       4.426   6.947  24.991  0.00  0.00    -0.384 OA
ATOM     37  H   UNL     1       5.188   6.899  24.376  0.00  0.00    +0.210 HD
ENDBRANCH  31  36
BRANCH  28  38
ATOM     38  C   UNL     1       6.775   5.705  30.029  0.00  0.00    +0.190 C 
BRANCH  38  39
ATOM     39  O   UNL     1       8.210   5.831  30.020  0.00  0.00    -0.392 OA
ATOM     40  H   UNL     1       8.425   6.449  29.301  0.00  0.00    +0.210 HD
ENDBRANCH  38  39
ENDBRANCH  28  38
ENDBRANCH  25  26
ENDBRANCH  17  25
ENDBRANCH  11  12
ENDBRANCH   6  11
BRANCH   3  41
ATOM     41  C   UNL     1       8.962  -2.654  23.953  0.00  0.00    +0.190 C 
BRANCH  41  42
ATOM     42  O   UNL     1      10.287  -3.168  23.850  0.00  0.00    -0.392 OA
ATOM     43  H   UNL     1      10.308  -3.716  23.046  0.00  0.00    +0.210 HD
ENDBRANCH  41  42
ENDBRANCH   3  41
BRANCH   1  44
ATOM     44  O   UNL     1       7.169   1.012  25.679  0.00  0.00    -0.453 OA
BRANCH  44  50
ATOM     45  C   UNL     1       3.639  -4.260  26.816  0.00  0.00    +0.131 A 
ATOM     46  C   UNL     1       3.362  -2.907  26.612  0.00  0.00    +0.093 A 
ATOM     47  C   UNL     1       4.368  -1.939  26.666  0.00  0.00    +0.147 A 
ATOM     48  O   UNL     1       3.968  -0.645  26.461  0.00  0.00    -0.451 OA
ATOM     49  C   UNL     1       4.925   0.285  26.078  0.00  0.00    +0.181 A 
ATOM     50  C   UNL     1       6.260   0.093  26.213  0.00  0.00    +0.214 A 
ATOM     51  C   UNL     1       6.676  -1.194  26.910  0.00  0.00    +0.238 A 
ATOM     52  O   UNL     1       7.758  -1.336  27.465  0.00  0.00    -0.283 OA
ATOM     53  C   UNL     1       5.681  -2.296  26.914  0.00  0.00    +0.109 A 
ATOM     54  C   UNL     1       5.974  -3.655  27.124  0.00  0.00    +0.135 A 
ATOM     55  C   UNL     1       4.958  -4.629  27.076  0.00  0.00    +0.092 A 
BRANCH  49  56
ATOM     56  C   UNL     1       4.324   1.505  25.486  0.00  0.00    +0.025 A 
ATOM     57  C   UNL     1       4.923   2.147  24.384  0.00  0.00    +0.015 A 
ATOM     58  C   UNL     1       4.353   3.284  23.808  0.00  0.00    +0.050 A 
ATOM     59  C   UNL     1       3.200   3.812  24.360  0.00  0.00    +0.158 A 
ATOM     60  C   UNL     1       2.617   3.224  25.478  0.00  0.00    +0.159 A 
ATOM     61  C   UNL     1       3.171   2.078  26.047  0.00  0.00    +0.060 A 
BRANCH  60  62
ATOM     62  O   UNL     1       1.488   3.811  25.979  0.00  0.00    -0.503 OA
ATOM     63  H   UNL     1       1.264   3.380  26.821  0.00  0.00    +0.292 HD
ENDBRANCH  60  62
BRANCH  59  64
ATOM     64  O   UNL     1       2.643   4.923  23.797  0.00  0.00    -0.503 OA
ATOM     65  H   UNL     1       3.281   5.640  23.980  0.00  0.00    +0.292 HD
ENDBRANCH  59  64
ENDBRANCH  49  56
BRANCH  54  66
ATOM     66  O   UNL     1       7.259  -4.072  27.348  0.00  0.00    -0.506 OA
ATOM     67  H   UNL     1       7.818  -3.308  27.583  0.00  0.00    +0.292 HD
ENDBRANCH  54  66
BRANCH  45  68
ATOM     68  O   UNL     1       2.709  -5.280  26.787  0.00  0.00    -0.461 OA
BRANCH  68  72
ATOM     69  C   UNL     1       3.865  -6.216  22.808  0.00  0.00    +0.041 C 
ATOM     70  C   UNL     1       2.397  -6.065  23.228  0.00  0.00    +0.150 C 
ATOM     71  O   UNL     1       2.267  -5.380  24.476  0.00  0.00    -0.334 OA
ATOM     72  C   UNL     1       2.737  -6.114  25.615  0.00  0.00    +0.339 C 
ATOM     73  C   UNL     1       1.848  -7.370  25.780  0.00  0.00    +0.214 C 
ATOM     74  C   UNL     1       1.989  -8.216  24.500  0.00  0.00    +0.180 C 
ATOM     75  C   UNL     1       1.627  -7.392  23.247  0.00  0.00    +0.174 C 
BRANCH  73  76
ATOM     76  O   UNL     1       0.453  -7.042  25.936  0.00  0.00    -0.383 OA
ATOM     77  H   UNL     1       0.411  -6.147  26.327  0.00  0.00    +0.210 HD
ENDBRANCH  73  76
BRANCH  74  78
ATOM     78  O   UNL     1       1.152  -9.376  24.559  0.00  0.00    -0.386 OA
ATOM     79  H   UNL     1       1.379  -9.831  25.396  0.00  0.00    +0.210 HD
ENDBRANCH  74  78
BRANCH  75  80
ATOM     80  O   UNL     1       1.892  -8.106  22.037  0.00  0.00    -0.387 OA
ATOM     81  H   UNL     1       2.838  -8.008  21.830  0.00  0.00    +0.210 HD
ENDBRANCH  75  80
ENDBRANCH  68  72
ENDBRANCH  45  68
ENDBRANCH  44  50
ENDBRANCH   1  44
TORSDOF 28
ENDMDL
MODEL 8
REMARK VINA RESULT:      -3.6      2.528      5.187
REMARK  Name = 
REMARK  29 active torsions:
REMARK  status: ('A' for Active; 'I' for Inactive)
REMARK    1  A    between atoms: C_1  and  C_2
REMARK    2  A    between atoms: C_3  and  O_65
REMARK    3  A    between atoms: C_4  and  O_64
REMARK    4  A    between atoms: C_5  and  O_63
REMARK    5  A    between atoms: C_6  and  O_8
REMARK    6  A    between atoms: O_8  and  C_9
REMARK    7  A    between atoms: C_11  and  O_62
REMARK    8  A    between atoms: C_16  and  C_54
REMARK    9  A    between atoms: C_17  and  O_20
REMARK   10  A    between atoms: O_20  and  C_21
REMARK   11  A    between atoms: C_22  and  O_31
REMARK   12  A    between atoms: C_23  and  O_30
REMARK   13  A    between atoms: C_24  and  O_29
REMARK   14  A    between atoms: C_25  and  C_27
REMARK   15  A    between atoms: C_27  and  O_28
REMARK   16  A    between atoms: O_31  and  C_32
REMARK   17  A    between atoms: C_33  and  O_42
REMARK   18  A    between atoms: C_34  and  O_41
REMARK   19  A    between atoms: C_35  and  O_40
REMARK   20  A    between atoms: C_36  and  C_38
REMARK   21  A    between atoms: C_38  and  O_39
REMARK   22  A    between atoms: O_42  and  C_43
REMARK   23  A    between atoms: C_44  and  O_53
REMARK   24  A    between atoms: C_45  and  O_52
REMARK   25  A    between atoms: C_46  and  O_51
REMARK   26  A    between atoms: C_47  and  C_49
REMARK   27  A    between atoms: C_49  and  O_50
REMARK   28  A    between atoms: C_56  and  O_61
REMARK   29  A    between atoms: C_57  and  O_60
REMARK                            x       y       z     vdW  Elec       q    Type
REMARK                         _______ _______ _______ _____ _____    ______ ____
ROOT
ATOM      1  C   UNL     1       6.551   3.189  26.533  0.00  0.00    +0.340 C 
ATOM      2  O   UNL     1       7.483   2.149  26.915  0.00  0.00    -0.331 OA
ATOM      3  C   UNL     1       7.010   1.164  27.844  0.00  0.00    +0.179 C 
ATOM      4  C   UNL     1       6.572   1.864  29.113  0.00  0.00    +0.177 C 
ATOM      5  C   UNL     1       5.397   2.782  28.800  0.00  0.00    +0.180 C 
ATOM      6  C   UNL     1       5.723   3.835  27.709  0.00  0.00    +0.221 C 
ENDROOT
BRANCH   5   7
ATOM      7  O   UNL     1       5.021   3.418  30.032  0.00  0.00    -0.386 OA
ATOM      8  H   UNL     1       5.789   3.903  30.384  0.00  0.00    +0.210 HD
ENDBRANCH   5   7
BRANCH   4   9
ATOM      9  O   UNL     1       7.638   2.640  29.683  0.00  0.00    -0.386 OA
ATOM     10  H   UNL     1       8.278   2.020  30.083  0.00  0.00    +0.210 HD
ENDBRANCH   4   9
BRANCH   6  11
ATOM     11  O   UNL     1       4.570   4.528  27.144  0.00  0.00    -0.337 OA
BRANCH  11  12
ATOM     12  C   UNL     1       4.306   5.859  27.624  0.00  0.00    +0.283 C 
ATOM     13  O   UNL     1       3.473   5.833  28.788  0.00  0.00    -0.341 OA
ATOM     14  C   UNL     1       2.258   5.105  28.600  0.00  0.00    +0.178 C 
ATOM     15  C   UNL     1       1.400   5.753  27.519  0.00  0.00    +0.177 C 
ATOM     16  C   UNL     1       2.226   5.993  26.243  0.00  0.00    +0.179 C 
ATOM     17  C   UNL     1       3.544   6.748  26.571  0.00  0.00    +0.208 C 
BRANCH  16  18
ATOM     18  O   UNL     1       1.352   6.701  25.350  0.00  0.00    -0.386 OA
ATOM     19  H   UNL     1       0.749   6.038  24.969  0.00  0.00    +0.210 HD
ENDBRANCH  16  18
BRANCH  15  20
ATOM     20  O   UNL     1       0.845   6.993  27.986  0.00  0.00    -0.386 OA
ATOM     21  H   UNL     1       1.377   7.706  27.571  0.00  0.00    +0.210 HD
ENDBRANCH  15  20
BRANCH  14  22
ATOM     22  C   UNL     1       1.551   4.970  29.951  0.00  0.00    +0.190 C 
BRANCH  22  23
ATOM     23  O   UNL     1       0.697   3.827  29.960  0.00  0.00    -0.392 OA
ATOM     24  H   UNL     1      -0.120   4.102  30.413  0.00  0.00    +0.210 HD
ENDBRANCH  22  23
ENDBRANCH  14  22
BRANCH  17  25
ATOM     25  O   UNL     1       4.366   7.104  25.428  0.00  0.00    -0.338 OA
BRANCH  25  26
ATOM     26  C   UNL     1       4.770   6.002  24.589  0.00  0.00    +0.282 C 
ATOM     27  O   UNL     1       6.214   5.929  24.490  0.00  0.00    -0.341 OA
ATOM     28  C   UNL     1       6.830   6.977  23.725  0.00  0.00    +0.178 C 
ATOM     29  C   UNL     1       6.279   6.999  22.290  0.00  0.00    +0.177 C 
ATOM     30  C   UNL     1       4.752   7.107  22.329  0.00  0.00    +0.179 C 
ATOM     31  C   UNL     1       4.172   5.957  23.156  0.00  0.00    +0.201 C 
BRANCH  29  32
ATOM     32  O   UNL     1       6.621   5.800  21.563  0.00  0.00    -0.386 OA
ATOM     33  H   UNL     1       7.566   5.607  21.720  0.00  0.00    +0.210 HD
ENDBRANCH  29  32
BRANCH  30  34
ATOM     34  O   UNL     1       4.208   7.036  21.001  0.00  0.00    -0.386 OA
ATOM     35  H   UNL     1       4.237   6.091  20.745  0.00  0.00    +0.210 HD
ENDBRANCH  30  34
BRANCH  31  36
ATOM     36  O   UNL     1       2.746   5.968  23.068  0.00  0.00    -0.384 OA
ATOM     37  H   UNL     1       2.517   6.830  22.660  0.00  0.00    +0.210 HD
ENDBRANCH  31  36
BRANCH  28  38
ATOM     38  C   UNL     1       8.353   6.731  23.719  0.00  0.00    +0.190 C 
BRANCH  38  39
ATOM     39  O   UNL     1       8.698   5.640  22.844  0.00  0.00    -0.392 OA
ATOM     40  H   UNL     1       8.786   4.855  23.409  0.00  0.00    +0.210 HD
ENDBRANCH  38  39
ENDBRANCH  28  38
ENDBRANCH  25  26
ENDBRANCH  17  25
ENDBRANCH  11  12
ENDBRANCH   6  11
BRANCH   3  41
ATOM     41  C   UNL     1       8.176   0.212  28.161  0.00  0.00    +0.190 C 
BRANCH  41  42
ATOM     42  O   UNL     1       8.184  -0.873  27.237  0.00  0.00    -0.392 OA
ATOM     43  H   UNL     1       9.117  -1.051  27.030  0.00  0.00    +0.210 HD
ENDBRANCH  41  42
ENDBRANCH   3  41
BRANCH   1  44
ATOM     44  O   UNL     1       5.697   2.722  25.481  0.00  0.00    -0.453 OA
BRANCH  44  50
ATOM     45  C   UNL     1       4.308  -3.384  27.006  0.00  0.00    +0.131 A 
ATOM     46  C   UNL     1       5.048  -2.758  26.002  0.00  0.00    +0.093 A 
ATOM     47  C   UNL     1       4.940  -1.386  25.762  0.00  0.00    +0.147 A 
ATOM     48  O   UNL     1       5.708  -0.892  24.742  0.00  0.00    -0.451 OA
ATOM     49  C   UNL     1       5.980   0.470  24.725  0.00  0.00    +0.181 A 
ATOM     50  C   UNL     1       5.281   1.387  25.437  0.00  0.00    +0.214 A 
ATOM     51  C   UNL     1       4.087   0.853  26.213  0.00  0.00    +0.238 A 
ATOM     52  O   UNL     1       3.143   1.552  26.556  0.00  0.00    -0.283 OA
ATOM     53  C   UNL     1       4.096  -0.599  26.525  0.00  0.00    +0.109 A 
ATOM     54  C   UNL     1       3.343  -1.217  27.538  0.00  0.00    +0.135 A 
ATOM     55  C   UNL     1       3.449  -2.601  27.775  0.00  0.00    +0.092 A 
BRANCH  49  56
ATOM     56  C   UNL     1       7.133   0.807  23.856  0.00  0.00    +0.025 A 
ATOM     57  C   UNL     1       6.939   1.342  22.566  0.00  0.00    +0.015 A 
ATOM     58  C   UNL     1       8.019   1.680  21.750  0.00  0.00    +0.050 A 
ATOM     59  C   UNL     1       9.304   1.446  22.203  0.00  0.00    +0.158 A 
ATOM     60  C   UNL     1       9.521   0.875  23.453  0.00  0.00    +0.159 A 
ATOM     61  C   UNL     1       8.447   0.550  24.281  0.00  0.00    +0.060 A 
BRANCH  60  62
ATOM     62  O   UNL     1      10.818   0.658  23.827  0.00  0.00    -0.503 OA
ATOM     63  H   UNL     1      10.842   0.514  24.788  0.00  0.00    +0.292 HD
ENDBRANCH  60  62
BRANCH  59  64
ATOM     64  O   UNL     1      10.361   1.778  21.406  0.00  0.00    -0.503 OA
ATOM     65  H   UNL     1      10.393   2.755  21.431  0.00  0.00    +0.292 HD
ENDBRANCH  59  64
ENDBRANCH  49  56
BRANCH  54  66
ATOM     66  O   UNL     1       2.511  -0.486  28.343  0.00  0.00    -0.506 OA
ATOM     67  H   UNL     1       2.147  -1.054  29.047  0.00  0.00    +0.292 HD
ENDBRANCH  54  66
BRANCH  45  68
ATOM     68  O   UNL     1       4.350  -4.731  27.308  0.00  0.00    -0.461 OA
BRANCH  68  72
ATOM     69  C   UNL     1       0.924  -4.459  29.805  0.00  0.00    +0.041 C 
ATOM     70  C   UNL     1       2.079  -5.428  30.090  0.00  0.00    +0.150 C 
ATOM     71  O   UNL     1       3.262  -5.076  29.368  0.00  0.00    -0.334 OA
ATOM     72  C   UNL     1       3.176  -5.262  27.948  0.00  0.00    +0.339 C 
ATOM     73  C   UNL     1       3.002  -6.774  27.670  0.00  0.00    +0.214 C 
ATOM     74  C   UNL     1       1.697  -7.229  28.352  0.00  0.00    +0.180 C 
ATOM     75  C   UNL     1       1.714  -6.900  29.858  0.00  0.00    +0.174 C 
BRANCH  73  76
ATOM     76  O   UNL     1       4.078  -7.564  28.214  0.00  0.00    -0.383 OA
ATOM     77  H   UNL     1       4.886  -7.016  28.169  0.00  0.00    +0.210 HD
ENDBRANCH  73  76
BRANCH  74  78
ATOM     78  O   UNL     1       1.493  -8.636  28.178  0.00  0.00    -0.386 OA
ATOM     79  H   UNL     1       2.145  -8.923  27.506  0.00  0.00    +0.210 HD
ENDBRANCH  74  78
BRANCH  75  80
ATOM     80  O   UNL     1       0.458  -7.176  30.485  0.00  0.00    -0.387 OA
ATOM     81  H   UNL     1       0.626  -7.741  31.260  0.00  0.00    +0.210 HD
ENDBRANCH  75  80
ENDBRANCH  68  72
ENDBRANCH  45  68
ENDBRANCH  44  50
ENDBRANCH   1  44
TORSDOF 28
ENDMDL
MODEL 9
REMARK VINA RESULT:      -3.5      2.077      4.818
REMARK  Name = 
REMARK  29 active torsions:
REMARK  status: ('A' for Active; 'I' for Inactive)
REMARK    1  A    between atoms: C_1  and  C_2
REMARK    2  A    between atoms: C_3  and  O_65
REMARK    3  A    between atoms: C_4  and  O_64
REMARK    4  A    between atoms: C_5  and  O_63
REMARK    5  A    between atoms: C_6  and  O_8
REMARK    6  A    between atoms: O_8  and  C_9
REMARK    7  A    between atoms: C_11  and  O_62
REMARK    8  A    between atoms: C_16  and  C_54
REMARK    9  A    between atoms: C_17  and  O_20
REMARK   10  A    between atoms: O_20  and  C_21
REMARK   11  A    between atoms: C_22  and  O_31
REMARK   12  A    between atoms: C_23  and  O_30
REMARK   13  A    between atoms: C_24  and  O_29
REMARK   14  A    between atoms: C_25  and  C_27
REMARK   15  A    between atoms: C_27  and  O_28
REMARK   16  A    between atoms: O_31  and  C_32
REMARK   17  A    between atoms: C_33  and  O_42
REMARK   18  A    between atoms: C_34  and  O_41
REMARK   19  A    between atoms: C_35  and  O_40
REMARK   20  A    between atoms: C_36  and  C_38
REMARK   21  A    between atoms: C_38  and  O_39
REMARK   22  A    between atoms: O_42  and  C_43
REMARK   23  A    between atoms: C_44  and  O_53
REMARK   24  A    between atoms: C_45  and  O_52
REMARK   25  A    between atoms: C_46  and  O_51
REMARK   26  A    between atoms: C_47  and  C_49
REMARK   27  A    between atoms: C_49  and  O_50
REMARK   28  A    between atoms: C_56  and  O_61
REMARK   29  A    between atoms: C_57  and  O_60
REMARK                            x       y       z     vdW  Elec       q    Type
REMARK                         _______ _______ _______ _____ _____    ______ ____
ROOT
ATOM      1  C   UNL     1       6.691   3.110  26.660  0.00  0.00    +0.340 C 
ATOM      2  O   UNL     1       7.569   2.033  27.064  0.00  0.00    -0.331 OA
ATOM      3  C   UNL     1       7.032   1.068  27.981  0.00  0.00    +0.179 C 
ATOM      4  C   UNL     1       6.591   1.785  29.239  0.00  0.00    +0.177 C 
ATOM      5  C   UNL     1       5.463   2.751  28.897  0.00  0.00    +0.180 C 
ATOM      6  C   UNL     1       5.860   3.790  27.816  0.00  0.00    +0.221 C 
ENDROOT
BRANCH   5   7
ATOM      7  O   UNL     1       5.083   3.403  30.119  0.00  0.00    -0.386 OA
ATOM      8  H   UNL     1       5.714   3.157  30.819  0.00  0.00    +0.210 HD
ENDBRANCH   5   7
BRANCH   4   9
ATOM      9  O   UNL     1       7.673   2.516  29.837  0.00  0.00    -0.386 OA
ATOM     10  H   UNL     1       7.348   2.901  30.673  0.00  0.00    +0.210 HD
ENDBRANCH   4   9
BRANCH   6  11
ATOM     11  O   UNL     1       4.751   4.530  27.222  0.00  0.00    -0.337 OA
BRANCH  11  12
ATOM     12  C   UNL     1       4.533   5.872  27.695  0.00  0.00    +0.283 C 
ATOM     13  O   UNL     1       3.719   5.880  28.873  0.00  0.00    -0.341 OA
ATOM     14  C   UNL     1       2.482   5.184  28.713  0.00  0.00    +0.178 C 
ATOM     15  C   UNL     1       1.623   5.846  27.641  0.00  0.00    +0.177 C 
ATOM     16  C   UNL     1       2.434   6.052  26.349  0.00  0.00    +0.179 C 
ATOM     17  C   UNL     1       3.777   6.773  26.647  0.00  0.00    +0.208 C 
BRANCH  16  18
ATOM     18  O   UNL     1       1.564   6.776  25.464  0.00  0.00    -0.386 OA
ATOM     19  H   UNL     1       1.191   7.512  25.983  0.00  0.00    +0.210 HD
ENDBRANCH  16  18
BRANCH  15  20
ATOM     20  O   UNL     1       1.111   7.105  28.105  0.00  0.00    -0.386 OA
ATOM     21  H   UNL     1       1.224   7.105  29.080  0.00  0.00    +0.210 HD
ENDBRANCH  15  20
BRANCH  14  22
ATOM     22  C   UNL     1       1.795   5.080  30.076  0.00  0.00    +0.190 C 
BRANCH  22  23
ATOM     23  O   UNL     1       1.442   3.728  30.360  0.00  0.00    -0.392 OA
ATOM     24  H   UNL     1       0.580   3.576  29.933  0.00  0.00    +0.210 HD
ENDBRANCH  22  23
ENDBRANCH  14  22
BRANCH  17  25
ATOM     25  O   UNL     1       4.589   7.096  25.486  0.00  0.00    -0.338 OA
BRANCH  25  26
ATOM     26  C   UNL     1       4.937   5.978  24.644  0.00  0.00    +0.282 C 
ATOM     27  O   UNL     1       6.375   5.803  24.584  0.00  0.00    -0.341 OA
ATOM     28  C   UNL     1       7.085   6.812  23.850  0.00  0.00    +0.178 C 
ATOM     29  C   UNL     1       6.578   6.890  22.402  0.00  0.00    +0.177 C 
ATOM     30  C   UNL     1       5.063   7.108  22.400  0.00  0.00    +0.179 C 
ATOM     31  C   UNL     1       4.378   5.993  23.194  0.00  0.00    +0.201 C 
BRANCH  29  32
ATOM     32  O   UNL     1       6.855   5.679  21.668  0.00  0.00    -0.386 OA
ATOM     33  H   UNL     1       7.800   5.459  21.787  0.00  0.00    +0.210 HD
ENDBRANCH  29  32
BRANCH  30  34
ATOM     34  O   UNL     1       4.554   7.092  21.056  0.00  0.00    -0.386 OA
ATOM     35  H   UNL     1       4.278   6.168  20.881  0.00  0.00    +0.210 HD
ENDBRANCH  30  34
BRANCH  31  36
ATOM     36  O   UNL     1       2.960   6.107  23.067  0.00  0.00    -0.384 OA
ATOM     37  H   UNL     1       2.799   7.031  22.782  0.00  0.00    +0.210 HD
ENDBRANCH  31  36
BRANCH  28  38
ATOM     38  C   UNL     1       8.586   6.458  23.884  0.00  0.00    +0.190 C 
BRANCH  38  39
ATOM     39  O   UNL     1       8.781   5.056  24.155  0.00  0.00    -0.392 OA
ATOM     40  H   UNL     1       7.896   4.655  24.161  0.00  0.00    +0.210 HD
ENDBRANCH  38  39
ENDBRANCH  28  38
ENDBRANCH  25  26
ENDBRANCH  17  25
ENDBRANCH  11  12
ENDBRANCH   6  11
BRANCH   3  41
ATOM     41  C   UNL     1       8.149   0.069  28.326  0.00  0.00    +0.190 C 
BRANCH  41  42
ATOM     42  O   UNL     1       8.554  -0.632  27.153  0.00  0.00    -0.392 OA
ATOM     43  H   UNL     1       8.250  -1.550  27.262  0.00  0.00    +0.210 HD
ENDBRANCH  41  42
ENDBRANCH   3  41
BRANCH   1  44
ATOM     44  O   UNL     1       5.845   2.679  25.586  0.00  0.00    -0.453 OA
BRANCH  44  50
ATOM     45  C   UNL     1       4.926  -3.628  26.542  0.00  0.00    +0.131 A 
ATOM     46  C   UNL     1       5.631  -2.859  25.615  0.00  0.00    +0.093 A 
ATOM     47  C   UNL     1       5.417  -1.484  25.492  0.00  0.00    +0.147 A 
ATOM     48  O   UNL     1       6.162  -0.843  24.539  0.00  0.00    -0.451 OA
ATOM     49  C   UNL     1       6.323   0.532  24.646  0.00  0.00    +0.181 A 
ATOM     50  C   UNL     1       5.539   1.325  25.417  0.00  0.00    +0.214 A 
ATOM     51  C   UNL     1       4.377   0.632  26.112  0.00  0.00    +0.238 A 
ATOM     52  O   UNL     1       3.374   1.222  26.491  0.00  0.00    -0.283 OA
ATOM     53  C   UNL     1       4.498  -0.837  26.298  0.00  0.00    +0.109 A 
ATOM     54  C   UNL     1       3.779  -1.599  27.235  0.00  0.00    +0.135 A 
ATOM     55  C   UNL     1       3.992  -2.986  27.354  0.00  0.00    +0.092 A 
BRANCH  49  56
ATOM     56  C   UNL     1       7.461   1.034  23.839  0.00  0.00    +0.025 A 
ATOM     57  C   UNL     1       7.261   1.542  22.539  0.00  0.00    +0.015 A 
ATOM     58  C   UNL     1       8.325   2.036  21.782  0.00  0.00    +0.050 A 
ATOM     59  C   UNL     1       9.604   1.985  22.304  0.00  0.00    +0.158 A 
ATOM     60  C   UNL     1       9.833   1.443  23.564  0.00  0.00    +0.159 A 
ATOM     61  C   UNL     1       8.774   0.965  24.334  0.00  0.00    +0.060 A 
BRANCH  60  62
ATOM     62  O   UNL     1      11.126   1.411  24.008  0.00  0.00    -0.503 OA
ATOM     63  H   UNL     1      11.717   1.386  23.237  0.00  0.00    +0.292 HD
ENDBRANCH  60  62
BRANCH  59  64
ATOM     64  O   UNL     1      10.643   2.468  21.563  0.00  0.00    -0.503 OA
ATOM     65  H   UNL     1      10.931   3.273  22.036  0.00  0.00    +0.292 HD
ENDBRANCH  59  64
ENDBRANCH  49  56
BRANCH  54  66
ATOM     66  O   UNL     1       2.875  -1.010  28.078  0.00  0.00    -0.506 OA
ATOM     67  H   UNL     1       2.433  -1.691  28.618  0.00  0.00    +0.292 HD
ENDBRANCH  54  66
BRANCH  45  68
ATOM     68  O   UNL     1       5.070  -4.989  26.727  0.00  0.00    -0.461 OA
BRANCH  68  72
ATOM     69  C   UNL     1       4.548  -5.991  22.633  0.00  0.00    +0.041 C 
ATOM     70  C   UNL     1       3.366  -5.735  23.578  0.00  0.00    +0.150 C 
ATOM     71  O   UNL     1       3.771  -5.047  24.764  0.00  0.00    -0.334 OA
ATOM     72  C   UNL     1       4.590  -5.818  25.655  0.00  0.00    +0.339 C 
ATOM     73  C   UNL     1       3.746  -7.006  26.177  0.00  0.00    +0.214 C 
ATOM     74  C   UNL     1       3.328  -7.855  24.961  0.00  0.00    +0.180 C 
ATOM     75  C   UNL     1       2.573  -7.002  23.922  0.00  0.00    +0.174 C 
BRANCH  73  76
ATOM     76  O   UNL     1       2.544  -6.578  26.846  0.00  0.00    -0.383 OA
ATOM     77  H   UNL     1       1.913  -7.324  26.806  0.00  0.00    +0.210 HD
ENDBRANCH  73  76
BRANCH  74  78
ATOM     78  O   UNL     1       2.500  -8.951  25.363  0.00  0.00    -0.386 OA
ATOM     79  H   UNL     1       1.850  -8.581  25.996  0.00  0.00    +0.210 HD
ENDBRANCH  74  78
BRANCH  75  80
ATOM     80  O   UNL     1       2.304  -7.728  22.720  0.00  0.00    -0.387 OA
ATOM     81  H   UNL     1       2.974  -7.477  22.059  0.00  0.00    +0.210 HD
ENDBRANCH  75  80
ENDBRANCH  68  72
ENDBRANCH  45  68
ENDBRANCH  44  50
ENDBRANCH   1  44
TORSDOF 28
ENDMDL
