MODEL 1
REMARK VINA RESULT:      -7.4      0.000      0.000
REMARK  Name = 
REMARK  21 active torsions:
REMARK  status: ('A' for Active; 'I' for Inactive)
REMARK    1  A    between atoms: C_1  and  C_2
REMARK    2  A    between atoms: C_3  and  O_60
REMARK    3  A    between atoms: C_5  and  O_59
REMARK    4  A    between atoms: C_6  and  O_58
REMARK    5  A    between atoms: C_8  and  O_11
REMARK    6  A    between atoms: O_11  and  C_12
REMARK    7  A    between atoms: C_13  and  O_57
REMARK    8  A    between atoms: C_15  and  O_56
REMARK    9  A    between atoms: C_18  and  O_20
REMARK   10  A    between atoms: O_20  and  C_21
REMARK   11  A    between atoms: C_22  and  C_48
REMARK   12  A    between atoms: C_26  and  O_33
REMARK   13  A    between atoms: C_28  and  O_32
REMARK   14  A    between atoms: O_33  and  C_34
REMARK   15  A    between atoms: C_36  and  O_47
REMARK   16  A    between atoms: C_37  and  O_46
REMARK   17  A    between atoms: C_39  and  O_45
REMARK   18  A    between atoms: C_41  and  C_43
REMARK   19  A    between atoms: C_43  and  O_44
REMARK   20  A    between atoms: C_50  and  O_55
REMARK   21  A    between atoms: C_51  and  O_54
REMARK                            x       y       z     vdW  Elec       q    Type
REMARK                         _______ _______ _______ _____ _____    ______ ____
ROOT
ATOM      1  C   UNL     1       5.243  -1.614  26.643  0.00  0.00    +0.214 A 
ATOM      2  C   UNL     1       4.404  -0.369  26.499  0.00  0.00    +0.238 A 
ATOM      3  O   UNL     1       3.193  -0.385  26.670  0.00  0.00    -0.283 OA
ATOM      4  C   UNL     1       5.119   0.884  26.143  0.00  0.00    +0.109 A 
ATOM      5  C   UNL     1       6.403   0.750  25.629  0.00  0.00    +0.147 A 
ATOM      6  C   UNL     1       7.200   1.870  25.339  0.00  0.00    +0.093 A 
ATOM      7  C   UNL     1       6.705   3.158  25.539  0.00  0.00    +0.131 A 
ATOM      8  C   UNL     1       5.398   3.303  26.019  0.00  0.00    +0.092 A 
ATOM      9  O   UNL     1       6.954  -0.474  25.364  0.00  0.00    -0.451 OA
ATOM     10  C   UNL     1       4.612   2.177  26.319  0.00  0.00    +0.135 A 
ATOM     11  C   UNL     1       6.452  -1.588  26.024  0.00  0.00    +0.181 A 
ENDROOT
BRANCH  11  12
ATOM     12  C   UNL     1       7.496  -2.636  26.016  0.00  0.00    +0.025 A 
ATOM     13  C   UNL     1       8.554  -2.505  25.101  0.00  0.00    +0.015 A 
ATOM     14  C   UNL     1       9.490  -3.536  24.947  0.00  0.00    +0.050 A 
ATOM     15  C   UNL     1       9.369  -4.683  25.716  0.00  0.00    +0.158 A 
ATOM     16  C   UNL     1       8.345  -4.814  26.651  0.00  0.00    +0.159 A 
ATOM     17  C   UNL     1       7.385  -3.812  26.788  0.00  0.00    +0.060 A 
BRANCH  16  18
ATOM     18  O   UNL     1       8.335  -5.954  27.406  0.00  0.00    -0.503 OA
ATOM     19  H   UNL     1       7.857  -5.785  28.237  0.00  0.00    +0.292 HD
ENDBRANCH  16  18
BRANCH  15  20
ATOM     20  O   UNL     1      10.272  -5.691  25.541  0.00  0.00    -0.503 OA
ATOM     21  H   UNL     1      10.001  -6.139  24.715  0.00  0.00    +0.292 HD
ENDBRANCH  15  20
ENDBRANCH  11  12
BRANCH  10  22
ATOM     22  O   UNL     1       3.349   2.363  26.806  0.00  0.00    -0.506 OA
ATOM     23  H   UNL     1       2.747   1.672  26.488  0.00  0.00    +0.292 HD
ENDBRANCH  10  22
BRANCH   7  24
ATOM     24  O   UNL     1       7.411   4.323  25.348  0.00  0.00    -0.461 OA
BRANCH  24  25
ATOM     25  C   UNL     1       7.639   4.745  23.985  0.00  0.00    +0.339 C 
ATOM     26  O   UNL     1       8.581   3.922  23.291  0.00  0.00    -0.331 OA
ATOM     27  C   UNL     1       9.898   3.921  23.871  0.00  0.00    +0.179 C 
ATOM     28  C   UNL     1      10.517   5.333  24.014  0.00  0.00    +0.177 C 
ATOM     29  C   UNL     1       9.522   6.364  24.565  0.00  0.00    +0.180 C 
ATOM     30  C   UNL     1       8.124   6.212  23.948  0.00  0.00    +0.214 C 
BRANCH  29  31
ATOM     31  O   UNL     1       9.468   6.316  25.995  0.00  0.00    -0.386 OA
ATOM     32  H   UNL     1       8.615   6.692  26.288  0.00  0.00    +0.210 HD
ENDBRANCH  29  31
BRANCH  30  33
ATOM     33  O   UNL     1       7.189   7.083  24.603  0.00  0.00    -0.383 OA
ATOM     34  H   UNL     1       6.290   6.810  24.341  0.00  0.00    +0.210 HD
ENDBRANCH  30  33
BRANCH  28  35
ATOM     35  O   UNL     1      10.997   5.808  22.750  0.00  0.00    -0.386 OA
ATOM     36  H   UNL     1      10.721   6.740  22.660  0.00  0.00    +0.210 HD
ENDBRANCH  28  35
BRANCH  27  37
ATOM     37  C   UNL     1      10.789   3.009  22.999  0.00  0.00    +0.190 C 
BRANCH  37  38
ATOM     38  O   UNL     1      10.120   2.553  21.820  0.00  0.00    -0.392 OA
ATOM     39  H   UNL     1      10.774   2.105  21.257  0.00  0.00    +0.210 HD
ENDBRANCH  37  38
ENDBRANCH  27  37
ENDBRANCH  24  25
ENDBRANCH   7  24
BRANCH   1  40
ATOM     40  O   UNL     1       4.656  -2.599  27.418  0.00  0.00    -0.453 OA
BRANCH  40  42
ATOM     41  C   UNL     1       3.658  -3.803  25.499  0.00  0.00    +0.221 C 
ATOM     42  C   UNL     1       3.519  -3.327  26.976  0.00  0.00    +0.340 C 
ATOM     43  O   UNL     1       3.251  -4.445  27.834  0.00  0.00    -0.337 OA
ATOM     44  C   UNL     1       1.961  -4.988  27.570  0.00  0.00    +0.198 C 
ATOM     45  C   UNL     1       1.825  -5.496  26.134  0.00  0.00    +0.171 C 
ATOM     46  C   UNL     1       2.284  -4.420  25.126  0.00  0.00    +0.180 C 
BRANCH  46  47
ATOM     47  O   UNL     1       2.196  -4.947  23.796  0.00  0.00    -0.386 OA
ATOM     48  H   UNL     1       2.786  -4.438  23.215  0.00  0.00    +0.210 HD
ENDBRANCH  46  47
BRANCH  45  49
ATOM     49  O   UNL     1       0.447  -5.839  25.923  0.00  0.00    -0.387 OA
ATOM     50  H   UNL     1       0.282  -5.885  24.965  0.00  0.00    +0.210 HD
ENDBRANCH  45  49
BRANCH  41  51
ATOM     51  O   UNL     1       4.792  -4.683  25.301  0.00  0.00    -0.337 OA
BRANCH  51  55
ATOM     52  C   UNL     1       6.472  -2.151  22.345  0.00  0.00    +0.041 C 
ATOM     53  C   UNL     1       5.588  -3.345  21.959  0.00  0.00    +0.149 C 
ATOM     54  O   UNL     1       4.798  -3.827  23.071  0.00  0.00    -0.343 OA
ATOM     55  C   UNL     1       5.583  -4.409  24.129  0.00  0.00    +0.282 C 
ATOM     56  C   UNL     1       6.355  -5.642  23.589  0.00  0.00    +0.201 C 
ATOM     57  C   UNL     1       7.222  -5.232  22.398  0.00  0.00    +0.179 C 
ATOM     58  C   UNL     1       6.405  -4.490  21.335  0.00  0.00    +0.174 C 
BRANCH  58  59
ATOM     59  O   UNL     1       5.529  -5.442  20.706  0.00  0.00    -0.387 OA
ATOM     60  H   UNL     1       4.666  -4.984  20.590  0.00  0.00    +0.210 HD
ENDBRANCH  58  59
BRANCH  57  61
ATOM     61  O   UNL     1       7.816  -6.413  21.836  0.00  0.00    -0.386 OA
ATOM     62  H   UNL     1       7.711  -7.108  22.522  0.00  0.00    +0.210 HD
ENDBRANCH  57  61
BRANCH  56  63
ATOM     63  O   UNL     1       5.457  -6.698  23.198  0.00  0.00    -0.384 OA
ATOM     64  H   UNL     1       5.520  -6.755  22.226  0.00  0.00    +0.210 HD
ENDBRANCH  56  63
ENDBRANCH  51  55
ENDBRANCH  41  51
ENDBRANCH  40  42
ENDBRANCH   1  40
TORSDOF 20
ENDMDL
MODEL 2
REMARK VINA RESULT:      -7.2      2.069      4.925
REMARK  Name = 
REMARK  21 active torsions:
REMARK  status: ('A' for Active; 'I' for Inactive)
REMARK    1  A    between atoms: C_1  and  C_2
REMARK    2  A    between atoms: C_3  and  O_60
REMARK    3  A    between atoms: C_5  and  O_59
REMARK    4  A    between atoms: C_6  and  O_58
REMARK    5  A    between atoms: C_8  and  O_11
REMARK    6  A    between atoms: O_11  and  C_12
REMARK    7  A    between atoms: C_13  and  O_57
REMARK    8  A    between atoms: C_15  and  O_56
REMARK    9  A    between atoms: C_18  and  O_20
REMARK   10  A    between atoms: O_20  and  C_21
REMARK   11  A    between atoms: C_22  and  C_48
REMARK   12  A    between atoms: C_26  and  O_33
REMARK   13  A    between atoms: C_28  and  O_32
REMARK   14  A    between atoms: O_33  and  C_34
REMARK   15  A    between atoms: C_36  and  O_47
REMARK   16  A    between atoms: C_37  and  O_46
REMARK   17  A    between atoms: C_39  and  O_45
REMARK   18  A    between atoms: C_41  and  C_43
REMARK   19  A    between atoms: C_43  and  O_44
REMARK   20  A    between atoms: C_50  and  O_55
REMARK   21  A    between atoms: C_51  and  O_54
REMARK                            x       y       z     vdW  Elec       q    Type
REMARK                         _______ _______ _______ _____ _____    ______ ____
ROOT
ATOM      1  C   UNL     1       8.132  -3.400  25.325  0.00  0.00    +0.214 A 
ATOM      2  C   UNL     1       9.306  -2.702  24.686  0.00  0.00    +0.238 A 
ATOM      3  O   UNL     1      10.199  -3.324  24.127  0.00  0.00    -0.283 OA
ATOM      4  C   UNL     1       9.326  -1.218  24.760  0.00  0.00    +0.109 A 
ATOM      5  C   UNL     1       8.486  -0.624  25.694  0.00  0.00    +0.147 A 
ATOM      6  C   UNL     1       8.364   0.771  25.790  0.00  0.00    +0.093 A 
ATOM      7  C   UNL     1       9.109   1.604  24.958  0.00  0.00    +0.131 A 
ATOM      8  C   UNL     1       9.989   1.016  24.040  0.00  0.00    +0.092 A 
ATOM      9  O   UNL     1       7.748  -1.364  26.578  0.00  0.00    -0.451 OA
ATOM     10  C   UNL     1      10.096  -0.383  23.941  0.00  0.00    +0.135 A 
ATOM     11  C   UNL     1       7.458  -2.685  26.263  0.00  0.00    +0.181 A 
ENDROOT
BRANCH  11  12
ATOM     12  C   UNL     1       6.258  -3.086  27.029  0.00  0.00    +0.025 A 
ATOM     13  C   UNL     1       5.310  -2.096  27.337  0.00  0.00    +0.015 A 
ATOM     14  C   UNL     1       4.231  -2.386  28.182  0.00  0.00    +0.050 A 
ATOM     15  C   UNL     1       4.100  -3.664  28.702  0.00  0.00    +0.158 A 
ATOM     16  C   UNL     1       5.013  -4.665  28.381  0.00  0.00    +0.159 A 
ATOM     17  C   UNL     1       6.113  -4.382  27.571  0.00  0.00    +0.060 A 
BRANCH  16  18
ATOM     18  O   UNL     1       4.775  -5.910  28.893  0.00  0.00    -0.503 OA
ATOM     19  H   UNL     1       5.132  -5.960  29.797  0.00  0.00    +0.292 HD
ENDBRANCH  16  18
BRANCH  15  20
ATOM     20  O   UNL     1       3.058  -3.928  29.543  0.00  0.00    -0.503 OA
ATOM     21  H   UNL     1       3.150  -4.873  29.778  0.00  0.00    +0.292 HD
ENDBRANCH  15  20
ENDBRANCH  11  12
BRANCH  10  22
ATOM     22  O   UNL     1      10.949  -0.916  23.018  0.00  0.00    -0.506 OA
ATOM     23  H   UNL     1      11.689  -1.373  23.448  0.00  0.00    +0.292 HD
ENDBRANCH  10  22
BRANCH   7  24
ATOM     24  O   UNL     1       9.028   2.977  24.921  0.00  0.00    -0.461 OA
BRANCH  24  25
ATOM     25  C   UNL     1       7.717   3.568  25.069  0.00  0.00    +0.339 C 
ATOM     26  O   UNL     1       6.754   3.036  24.154  0.00  0.00    -0.331 OA
ATOM     27  C   UNL     1       7.074   3.260  22.769  0.00  0.00    +0.179 C 
ATOM     28  C   UNL     1       7.293   4.751  22.413  0.00  0.00    +0.177 C 
ATOM     29  C   UNL     1       8.155   5.487  23.447  0.00  0.00    +0.180 C 
ATOM     30  C   UNL     1       7.794   5.101  24.889  0.00  0.00    +0.214 C 
BRANCH  29  31
ATOM     31  O   UNL     1       9.550   5.290  23.190  0.00  0.00    -0.386 OA
ATOM     32  H   UNL     1       9.869   6.018  22.621  0.00  0.00    +0.210 HD
ENDBRANCH  29  31
BRANCH  30  33
ATOM     33  O   UNL     1       8.725   5.685  25.813  0.00  0.00    -0.383 OA
ATOM     34  H   UNL     1       9.624   5.429  25.535  0.00  0.00    +0.210 HD
ENDBRANCH  30  33
BRANCH  28  35
ATOM     35  O   UNL     1       6.039   5.438  22.308  0.00  0.00    -0.386 OA
ATOM     36  H   UNL     1       5.347   4.841  22.649  0.00  0.00    +0.210 HD
ENDBRANCH  28  35
BRANCH  27  37
ATOM     37  C   UNL     1       5.934   2.648  21.924  0.00  0.00    +0.190 C 
BRANCH  37  38
ATOM     38  O   UNL     1       4.683   2.634  22.618  0.00  0.00    -0.392 OA
ATOM     39  H   UNL     1       4.119   1.958  22.206  0.00  0.00    +0.210 HD
ENDBRANCH  37  38
ENDBRANCH  27  37
ENDBRANCH  24  25
ENDBRANCH   7  24
BRANCH   1  40
ATOM     40  O   UNL     1       7.900  -4.672  24.834  0.00  0.00    -0.453 OA
BRANCH  40  42
ATOM     41  C   UNL     1       5.975  -5.542  23.543  0.00  0.00    +0.221 C 
ATOM     42  C   UNL     1       7.392  -4.894  23.525  0.00  0.00    +0.340 C 
ATOM     43  O   UNL     1       7.372  -3.679  22.762  0.00  0.00    -0.337 OA
ATOM     44  C   UNL     1       7.149  -3.953  21.382  0.00  0.00    +0.198 C 
ATOM     45  C   UNL     1       5.809  -4.648  21.135  0.00  0.00    +0.171 C 
ATOM     46  C   UNL     1       5.646  -5.871  22.062  0.00  0.00    +0.180 C 
BRANCH  46  47
ATOM     47  O   UNL     1       4.360  -6.464  21.844  0.00  0.00    -0.386 OA
ATOM     48  H   UNL     1       4.096  -6.950  22.643  0.00  0.00    +0.210 HD
ENDBRANCH  46  47
BRANCH  45  49
ATOM     49  O   UNL     1       5.774  -5.044  19.755  0.00  0.00    -0.387 OA
ATOM     50  H   UNL     1       6.473  -4.565  19.276  0.00  0.00    +0.210 HD
ENDBRANCH  45  49
BRANCH  41  51
ATOM     51  O   UNL     1       4.992  -4.716  24.214  0.00  0.00    -0.337 OA
BRANCH  51  55
ATOM     52  C   UNL     1       0.774  -4.899  24.598  0.00  0.00    +0.041 C 
ATOM     53  C   UNL     1       1.694  -5.209  25.787  0.00  0.00    +0.149 C 
ATOM     54  O   UNL     1       3.037  -4.711  25.587  0.00  0.00    -0.343 OA
ATOM     55  C   UNL     1       3.748  -5.373  24.523  0.00  0.00    +0.282 C 
ATOM     56  C   UNL     1       3.897  -6.881  24.855  0.00  0.00    +0.201 C 
ATOM     57  C   UNL     1       2.520  -7.501  25.090  0.00  0.00    +0.179 C 
ATOM     58  C   UNL     1       1.714  -6.709  26.126  0.00  0.00    +0.174 C 
BRANCH  58  59
ATOM     59  O   UNL     1       2.321  -6.922  27.414  0.00  0.00    -0.387 OA
ATOM     60  H   UNL     1       1.671  -7.441  27.939  0.00  0.00    +0.210 HD
ENDBRANCH  58  59
BRANCH  57  61
ATOM     61  O   UNL     1       2.697  -8.858  25.527  0.00  0.00    -0.386 OA
ATOM     62  H   UNL     1       1.824  -9.134  25.881  0.00  0.00    +0.210 HD
ENDBRANCH  57  61
BRANCH  56  63
ATOM     63  O   UNL     1       4.730  -7.088  26.012  0.00  0.00    -0.384 OA
ATOM     64  H   UNL     1       5.649  -7.031  25.692  0.00  0.00    +0.210 HD
ENDBRANCH  56  63
ENDBRANCH  51  55
ENDBRANCH  41  51
ENDBRANCH  40  42
ENDBRANCH   1  40
TORSDOF 20
ENDMDL
MODEL 3
REMARK VINA RESULT:      -7.2      2.547      5.674
REMARK  Name = 
REMARK  21 active torsions:
REMARK  status: ('A' for Active; 'I' for Inactive)
REMARK    1  A    between atoms: C_1  and  C_2
REMARK    2  A    between atoms: C_3  and  O_60
REMARK    3  A    between atoms: C_5  and  O_59
REMARK    4  A    between atoms: C_6  and  O_58
REMARK    5  A    between atoms: C_8  and  O_11
REMARK    6  A    between atoms: O_11  and  C_12
REMARK    7  A    between atoms: C_13  and  O_57
REMARK    8  A    between atoms: C_15  and  O_56
REMARK    9  A    between atoms: C_18  and  O_20
REMARK   10  A    between atoms: O_20  and  C_21
REMARK   11  A    between atoms: C_22  and  C_48
REMARK   12  A    between atoms: C_26  and  O_33
REMARK   13  A    between atoms: C_28  and  O_32
REMARK   14  A    between atoms: O_33  and  C_34
REMARK   15  A    between atoms: C_36  and  O_47
REMARK   16  A    between atoms: C_37  and  O_46
REMARK   17  A    between atoms: C_39  and  O_45
REMARK   18  A    between atoms: C_41  and  C_43
REMARK   19  A    between atoms: C_43  and  O_44
REMARK   20  A    between atoms: C_50  and  O_55
REMARK   21  A    between atoms: C_51  and  O_54
REMARK                            x       y       z     vdW  Elec       q    Type
REMARK                         _______ _______ _______ _____ _____    ______ ____
ROOT
ATOM      1  C   UNL     1       6.597  -3.834  26.031  0.00  0.00    +0.214 A 
ATOM      2  C   UNL     1       7.582  -2.809  26.533  0.00  0.00    +0.238 A 
ATOM      3  O   UNL     1       8.783  -3.037  26.579  0.00  0.00    -0.283 OA
ATOM      4  C   UNL     1       7.026  -1.500  26.965  0.00  0.00    +0.109 A 
ATOM      5  C   UNL     1       5.659  -1.449  27.212  0.00  0.00    +0.147 A 
ATOM      6  C   UNL     1       5.016  -0.245  27.543  0.00  0.00    +0.093 A 
ATOM      7  C   UNL     1       5.747   0.936  27.657  0.00  0.00    +0.131 A 
ATOM      8  C   UNL     1       7.131   0.887  27.449  0.00  0.00    +0.092 A 
ATOM      9  O   UNL     1       4.871  -2.567  27.162  0.00  0.00    -0.451 OA
ATOM     10  C   UNL     1       7.765  -0.319  27.105  0.00  0.00    +0.135 A 
ATOM     11  C   UNL     1       5.308  -3.658  26.421  0.00  0.00    +0.181 A 
ENDROOT
BRANCH  11  12
ATOM     12  C   UNL     1       4.126  -4.473  26.064  0.00  0.00    +0.025 A 
ATOM     13  C   UNL     1       3.137  -3.884  25.259  0.00  0.00    +0.015 A 
ATOM     14  C   UNL     1       1.933  -4.554  25.011  0.00  0.00    +0.050 A 
ATOM     15  C   UNL     1       1.730  -5.811  25.559  0.00  0.00    +0.158 A 
ATOM     16  C   UNL     1       2.713  -6.422  26.332  0.00  0.00    +0.159 A 
ATOM     17  C   UNL     1       3.902  -5.752  26.618  0.00  0.00    +0.060 A 
BRANCH  16  18
ATOM     18  O   UNL     1       2.451  -7.686  26.785  0.00  0.00    -0.503 OA
ATOM     19  H   UNL     1       3.181  -7.979  27.359  0.00  0.00    +0.292 HD
ENDBRANCH  16  18
BRANCH  15  20
ATOM     20  O   UNL     1       0.542  -6.444  25.331  0.00  0.00    -0.503 OA
ATOM     21  H   UNL     1       0.775  -7.383  25.184  0.00  0.00    +0.292 HD
ENDBRANCH  15  20
ENDBRANCH  11  12
BRANCH  10  22
ATOM     22  O   UNL     1       9.114  -0.319  26.890  0.00  0.00    -0.506 OA
ATOM     23  H   UNL     1       9.602  -0.311  27.728  0.00  0.00    +0.292 HD
ENDBRANCH  10  22
BRANCH   7  24
ATOM     24  O   UNL     1       5.219   2.180  27.916  0.00  0.00    -0.461 OA
BRANCH  24  25
ATOM     25  C   UNL     1       3.883   2.447  27.434  0.00  0.00    +0.339 C 
ATOM     26  O   UNL     1       3.815   2.581  26.011  0.00  0.00    -0.331 OA
ATOM     27  C   UNL     1       4.592   3.674  25.487  0.00  0.00    +0.179 C 
ATOM     28  C   UNL     1       4.235   5.047  26.109  0.00  0.00    +0.177 C 
ATOM     29  C   UNL     1       4.077   4.982  27.635  0.00  0.00    +0.180 C 
ATOM     30  C   UNL     1       3.318   3.727  28.090  0.00  0.00    +0.214 C 
BRANCH  29  31
ATOM     31  O   UNL     1       5.345   5.089  28.291  0.00  0.00    -0.386 OA
ATOM     32  H   UNL     1       5.881   4.304  28.066  0.00  0.00    +0.210 HD
ENDBRANCH  29  31
BRANCH  30  33
ATOM     33  O   UNL     1       3.333   3.624  29.522  0.00  0.00    -0.383 OA
ATOM     34  H   UNL     1       2.509   3.179  29.799  0.00  0.00    +0.210 HD
ENDBRANCH  30  33
BRANCH  28  35
ATOM     35  O   UNL     1       3.015   5.555  25.556  0.00  0.00    -0.386 OA
ATOM     36  H   UNL     1       3.248   6.108  24.786  0.00  0.00    +0.210 HD
ENDBRANCH  28  35
BRANCH  27  37
ATOM     37  C   UNL     1       4.395   3.691  23.954  0.00  0.00    +0.190 C 
BRANCH  37  38
ATOM     38  O   UNL     1       3.547   2.633  23.498  0.00  0.00    -0.392 OA
ATOM     39  H   UNL     1       3.796   1.823  23.973  0.00  0.00    +0.210 HD
ENDBRANCH  37  38
ENDBRANCH  27  37
ENDBRANCH  24  25
ENDBRANCH   7  24
BRANCH   1  40
ATOM     40  O   UNL     1       7.160  -4.800  25.216  0.00  0.00    -0.453 OA
BRANCH  40  42
ATOM     41  C   UNL     1       6.670  -3.780  23.015  0.00  0.00    +0.221 C 
ATOM     42  C   UNL     1       6.674  -5.058  23.906  0.00  0.00    +0.340 C 
ATOM     43  O   UNL     1       7.423  -6.103  23.269  0.00  0.00    -0.337 OA
ATOM     44  C   UNL     1       6.759  -6.558  22.094  0.00  0.00    +0.198 C 
ATOM     45  C   UNL     1       6.586  -5.448  21.056  0.00  0.00    +0.171 C 
ATOM     46  C   UNL     1       5.960  -4.190  21.697  0.00  0.00    +0.180 C 
BRANCH  46  47
ATOM     47  O   UNL     1       5.864  -3.153  20.712  0.00  0.00    -0.386 OA
ATOM     48  H   UNL     1       6.586  -3.258  20.070  0.00  0.00    +0.210 HD
ENDBRANCH  46  47
BRANCH  45  49
ATOM     49  O   UNL     1       5.746  -5.959  20.009  0.00  0.00    -0.387 OA
ATOM     50  H   UNL     1       5.338  -6.788  20.316  0.00  0.00    +0.210 HD
ENDBRANCH  45  49
BRANCH  41  51
ATOM     51  O   UNL     1       7.992  -3.214  22.842  0.00  0.00    -0.337 OA
BRANCH  51  55
ATOM     52  C   UNL     1       6.439   0.592  23.876  0.00  0.00    +0.041 C 
ATOM     53  C   UNL     1       7.227   0.383  22.577  0.00  0.00    +0.149 C 
ATOM     54  O   UNL     1       7.317  -1.013  22.206  0.00  0.00    -0.343 OA
ATOM     55  C   UNL     1       8.098  -1.805  23.121  0.00  0.00    +0.282 C 
ATOM     56  C   UNL     1       9.557  -1.278  23.152  0.00  0.00    +0.201 C 
ATOM     57  C   UNL     1       9.568   0.203  23.532  0.00  0.00    +0.179 C 
ATOM     58  C   UNL     1       8.626   1.020  22.640  0.00  0.00    +0.174 C 
BRANCH  58  59
ATOM     59  O   UNL     1       9.207   1.082  21.325  0.00  0.00    -0.387 OA
ATOM     60  H   UNL     1       9.784   1.879  21.320  0.00  0.00    +0.210 HD
ENDBRANCH  58  59
BRANCH  57  61
ATOM     61  O   UNL     1      10.913   0.694  23.421  0.00  0.00    -0.386 OA
ATOM     62  H   UNL     1      11.487  -0.097  23.513  0.00  0.00    +0.210 HD
ENDBRANCH  57  61
BRANCH  56  63
ATOM     63  O   UNL     1      10.213  -1.461  21.883  0.00  0.00    -0.384 OA
ATOM     64  H   UNL     1      11.170  -1.428  22.071  0.00  0.00    +0.210 HD
ENDBRANCH  56  63
ENDBRANCH  51  55
ENDBRANCH  41  51
ENDBRANCH  40  42
ENDBRANCH   1  40
TORSDOF 20
ENDMDL
MODEL 4
REMARK VINA RESULT:      -7.2      2.552      6.104
REMARK  Name = 
REMARK  21 active torsions:
REMARK  status: ('A' for Active; 'I' for Inactive)
REMARK    1  A    between atoms: C_1  and  C_2
REMARK    2  A    between atoms: C_3  and  O_60
REMARK    3  A    between atoms: C_5  and  O_59
REMARK    4  A    between atoms: C_6  and  O_58
REMARK    5  A    between atoms: C_8  and  O_11
REMARK    6  A    between atoms: O_11  and  C_12
REMARK    7  A    between atoms: C_13  and  O_57
REMARK    8  A    between atoms: C_15  and  O_56
REMARK    9  A    between atoms: C_18  and  O_20
REMARK   10  A    between atoms: O_20  and  C_21
REMARK   11  A    between atoms: C_22  and  C_48
REMARK   12  A    between atoms: C_26  and  O_33
REMARK   13  A    between atoms: C_28  and  O_32
REMARK   14  A    between atoms: O_33  and  C_34
REMARK   15  A    between atoms: C_36  and  O_47
REMARK   16  A    between atoms: C_37  and  O_46
REMARK   17  A    between atoms: C_39  and  O_45
REMARK   18  A    between atoms: C_41  and  C_43
REMARK   19  A    between atoms: C_43  and  O_44
REMARK   20  A    between atoms: C_50  and  O_55
REMARK   21  A    between atoms: C_51  and  O_54
REMARK                            x       y       z     vdW  Elec       q    Type
REMARK                         _______ _______ _______ _____ _____    ______ ____
ROOT
ATOM      1  C   UNL     1       7.156  -2.442  26.418  0.00  0.00    +0.214 A 
ATOM      2  C   UNL     1       7.609  -1.036  26.724  0.00  0.00    +0.238 A 
ATOM      3  O   UNL     1       8.763  -0.676  26.539  0.00  0.00    -0.283 OA
ATOM      4  C   UNL     1       6.583  -0.103  27.259  0.00  0.00    +0.109 A 
ATOM      5  C   UNL     1       5.419  -0.671  27.763  0.00  0.00    +0.147 A 
ATOM      6  C   UNL     1       4.351   0.121  28.215  0.00  0.00    +0.093 A 
ATOM      7  C   UNL     1       4.444   1.512  28.190  0.00  0.00    +0.131 A 
ATOM      8  C   UNL     1       5.629   2.093  27.721  0.00  0.00    +0.092 A 
ATOM      9  O   UNL     1       5.258  -2.026  27.862  0.00  0.00    -0.451 OA
ATOM     10  C   UNL     1       6.689   1.293  27.258  0.00  0.00    +0.135 A 
ATOM     11  C   UNL     1       6.025  -2.850  27.048  0.00  0.00    +0.181 A 
ENDROOT
BRANCH  11  12
ATOM     12  C   UNL     1       5.327  -4.148  26.922  0.00  0.00    +0.025 A 
ATOM     13  C   UNL     1       4.155  -4.195  26.149  0.00  0.00    +0.015 A 
ATOM     14  C   UNL     1       3.375  -5.358  26.114  0.00  0.00    +0.050 A 
ATOM     15  C   UNL     1       3.777  -6.468  26.840  0.00  0.00    +0.158 A 
ATOM     16  C   UNL     1       4.953  -6.448  27.586  0.00  0.00    +0.159 A 
ATOM     17  C   UNL     1       5.720  -5.285  27.660  0.00  0.00    +0.060 A 
BRANCH  16  18
ATOM     18  O   UNL     1       5.303  -7.605  28.225  0.00  0.00    -0.503 OA
ATOM     19  H   UNL     1       5.377  -8.323  27.572  0.00  0.00    +0.292 HD
ENDBRANCH  16  18
BRANCH  15  20
ATOM     20  O   UNL     1       2.996  -7.587  26.818  0.00  0.00    -0.503 OA
ATOM     21  H   UNL     1       2.542  -7.601  27.684  0.00  0.00    +0.292 HD
ENDBRANCH  15  20
ENDBRANCH  11  12
BRANCH  10  22
ATOM     22  O   UNL     1       7.818   1.900  26.788  0.00  0.00    -0.506 OA
ATOM     23  H   UNL     1       7.709   2.175  25.864  0.00  0.00    +0.292 HD
ENDBRANCH  10  22
BRANCH   7  24
ATOM     24  O   UNL     1       3.444   2.386  28.549  0.00  0.00    -0.461 OA
BRANCH  24  25
ATOM     25  C   UNL     1       2.151   2.204  27.930  0.00  0.00    +0.339 C 
ATOM     26  O   UNL     1       2.198   2.263  26.501  0.00  0.00    -0.331 OA
ATOM     27  C   UNL     1       2.651   3.526  25.980  0.00  0.00    +0.179 C 
ATOM     28  C   UNL     1       1.824   4.737  26.477  0.00  0.00    +0.177 C 
ATOM     29  C   UNL     1       1.531   4.677  27.982  0.00  0.00    +0.180 C 
ATOM     30  C   UNL     1       1.152   3.264  28.447  0.00  0.00    +0.214 C 
BRANCH  29  31
ATOM     31  O   UNL     1       2.626   5.199  28.743  0.00  0.00    -0.386 OA
ATOM     32  H   UNL     1       3.426   5.197  28.181  0.00  0.00    +0.210 HD
ENDBRANCH  29  31
BRANCH  30  33
ATOM     33  O   UNL     1       1.044   3.218  29.878  0.00  0.00    -0.383 OA
ATOM     34  H   UNL     1       1.126   4.131  30.214  0.00  0.00    +0.210 HD
ENDBRANCH  30  33
BRANCH  28  35
ATOM     35  O   UNL     1       0.573   4.818  25.782  0.00  0.00    -0.386 OA
ATOM     36  H   UNL     1       0.278   3.906  25.599  0.00  0.00    +0.210 HD
ENDBRANCH  28  35
BRANCH  27  37
ATOM     37  C   UNL     1       2.624   3.429  24.438  0.00  0.00    +0.190 C 
BRANCH  37  38
ATOM     38  O   UNL     1       1.520   2.658  23.956  0.00  0.00    -0.392 OA
ATOM     39  H   UNL     1       1.716   2.392  23.042  0.00  0.00    +0.210 HD
ENDBRANCH  37  38
ENDBRANCH  27  37
ENDBRANCH  24  25
ENDBRANCH   7  24
BRANCH   1  40
ATOM     40  O   UNL     1       7.961  -3.103  25.507  0.00  0.00    -0.453 OA
BRANCH  40  42
ATOM     41  C   UNL     1       6.921  -2.916  23.268  0.00  0.00    +0.221 C 
ATOM     42  C   UNL     1       7.420  -3.841  24.419  0.00  0.00    +0.340 C 
ATOM     43  O   UNL     1       8.366  -4.793  23.914  0.00  0.00    -0.337 OA
ATOM     44  C   UNL     1       7.732  -5.720  23.037  0.00  0.00    +0.198 C 
ATOM     45  C   UNL     1       7.107  -5.036  21.820  0.00  0.00    +0.171 C 
ATOM     46  C   UNL     1       6.214  -3.854  22.254  0.00  0.00    +0.180 C 
BRANCH  46  47
ATOM     47  O   UNL     1       5.690  -3.203  21.089  0.00  0.00    -0.386 OA
ATOM     48  H   UNL     1       4.961  -2.618  21.355  0.00  0.00    +0.210 HD
ENDBRANCH  46  47
BRANCH  45  49
ATOM     49  O   UNL     1       6.340  -6.023  21.114  0.00  0.00    -0.387 OA
ATOM     50  H   UNL     1       6.530  -6.897  21.499  0.00  0.00    +0.210 HD
ENDBRANCH  45  49
BRANCH  41  51
ATOM     51  O   UNL     1       7.980  -2.102  22.707  0.00  0.00    -0.337 OA
BRANCH  51  55
ATOM     52  C   UNL     1       6.014   1.485  23.818  0.00  0.00    +0.041 C 
ATOM     53  C   UNL     1       6.900   1.420  22.568  0.00  0.00    +0.149 C 
ATOM     54  O   UNL     1       7.144   0.062  22.135  0.00  0.00    -0.343 OA
ATOM     55  C   UNL     1       7.936  -0.707  23.062  0.00  0.00    +0.282 C 
ATOM     56  C   UNL     1       9.334  -0.053  23.220  0.00  0.00    +0.201 C 
ATOM     57  C   UNL     1       9.181   1.399  23.672  0.00  0.00    +0.179 C 
ATOM     58  C   UNL     1       8.226   2.176  22.759  0.00  0.00    +0.174 C 
BRANCH  58  59
ATOM     59  O   UNL     1       8.882   2.364  21.492  0.00  0.00    -0.387 OA
ATOM     60  H   UNL     1       9.469   1.584  21.370  0.00  0.00    +0.210 HD
ENDBRANCH  58  59
BRANCH  57  61
ATOM     61  O   UNL     1      10.479   2.015  23.678  0.00  0.00    -0.386 OA
ATOM     62  H   UNL     1      10.787   1.962  24.609  0.00  0.00    +0.210 HD
ENDBRANCH  57  61
BRANCH  56  63
ATOM     63  O   UNL     1      10.084  -0.105  21.991  0.00  0.00    -0.384 OA
ATOM     64  H   UNL     1      10.994   0.159  22.224  0.00  0.00    +0.210 HD
ENDBRANCH  56  63
ENDBRANCH  51  55
ENDBRANCH  41  51
ENDBRANCH  40  42
ENDBRANCH   1  40
TORSDOF 20
ENDMDL
MODEL 5
REMARK VINA RESULT:      -7.1      2.922      9.899
REMARK  Name = 
REMARK  21 active torsions:
REMARK  status: ('A' for Active; 'I' for Inactive)
REMARK    1  A    between atoms: C_1  and  C_2
REMARK    2  A    between atoms: C_3  and  O_60
REMARK    3  A    between atoms: C_5  and  O_59
REMARK    4  A    between atoms: C_6  and  O_58
REMARK    5  A    between atoms: C_8  and  O_11
REMARK    6  A    between atoms: O_11  and  C_12
REMARK    7  A    between atoms: C_13  and  O_57
REMARK    8  A    between atoms: C_15  and  O_56
REMARK    9  A    between atoms: C_18  and  O_20
REMARK   10  A    between atoms: O_20  and  C_21
REMARK   11  A    between atoms: C_22  and  C_48
REMARK   12  A    between atoms: C_26  and  O_33
REMARK   13  A    between atoms: C_28  and  O_32
REMARK   14  A    between atoms: O_33  and  C_34
REMARK   15  A    between atoms: C_36  and  O_47
REMARK   16  A    between atoms: C_37  and  O_46
REMARK   17  A    between atoms: C_39  and  O_45
REMARK   18  A    between atoms: C_41  and  C_43
REMARK   19  A    between atoms: C_43  and  O_44
REMARK   20  A    between atoms: C_50  and  O_55
REMARK   21  A    between atoms: C_51  and  O_54
REMARK                            x       y       z     vdW  Elec       q    Type
REMARK                         _______ _______ _______ _____ _____    ______ ____
ROOT
ATOM      1  C   UNL     1       5.795   1.809  25.776  0.00  0.00    +0.214 A 
ATOM      2  C   UNL     1       4.779   1.244  26.738  0.00  0.00    +0.238 A 
ATOM      3  O   UNL     1       4.211   1.947  27.562  0.00  0.00    -0.283 OA
ATOM      4  C   UNL     1       4.495  -0.211  26.634  0.00  0.00    +0.109 A 
ATOM      5  C   UNL     1       5.415  -0.983  25.936  0.00  0.00    +0.147 A 
ATOM      6  C   UNL     1       5.202  -2.352  25.705  0.00  0.00    +0.093 A 
ATOM      7  C   UNL     1       4.061  -2.981  26.198  0.00  0.00    +0.131 A 
ATOM      8  C   UNL     1       3.146  -2.220  26.937  0.00  0.00    +0.092 A 
ATOM      9  O   UNL     1       6.582  -0.457  25.451  0.00  0.00    -0.451 OA
ATOM     10  C   UNL     1       3.360  -0.847  27.152  0.00  0.00    +0.135 A 
ATOM     11  C   UNL     1       6.656   0.912  25.230  0.00  0.00    +0.181 A 
ENDROOT
BRANCH  11  12
ATOM     12  C   UNL     1       7.727   1.160  24.240  0.00  0.00    +0.025 A 
ATOM     13  C   UNL     1       8.975   1.598  24.713  0.00  0.00    +0.015 A 
ATOM     14  C   UNL     1       9.977   1.987  23.816  0.00  0.00    +0.050 A 
ATOM     15  C   UNL     1       9.730   1.924  22.453  0.00  0.00    +0.158 A 
ATOM     16  C   UNL     1       8.510   1.461  21.967  0.00  0.00    +0.159 A 
ATOM     17  C   UNL     1       7.490   1.105  22.850  0.00  0.00    +0.060 A 
BRANCH  16  18
ATOM     18  O   UNL     1       8.373   1.378  20.609  0.00  0.00    -0.503 OA
ATOM     19  H   UNL     1       7.527   1.782  20.346  0.00  0.00    +0.292 HD
ENDBRANCH  16  18
BRANCH  15  20
ATOM     20  O   UNL     1      10.706   2.329  21.589  0.00  0.00    -0.503 OA
ATOM     21  H   UNL     1      10.319   3.082  21.098  0.00  0.00    +0.292 HD
ENDBRANCH  15  20
ENDBRANCH  11  12
BRANCH  10  22
ATOM     22  O   UNL     1       2.433  -0.136  27.860  0.00  0.00    -0.506 OA
ATOM     23  H   UNL     1       2.444  -0.384  28.798  0.00  0.00    +0.292 HD
ENDBRANCH  10  22
BRANCH   7  24
ATOM     24  O   UNL     1       3.718  -4.296  25.985  0.00  0.00    -0.461 OA
BRANCH  24  25
ATOM     25  C   UNL     1       3.938  -4.832  24.661  0.00  0.00    +0.339 C 
ATOM     26  O   UNL     1       2.724  -5.136  23.968  0.00  0.00    -0.331 OA
ATOM     27  C   UNL     1       1.916  -6.138  24.612  0.00  0.00    +0.179 C 
ATOM     28  C   UNL     1       2.661  -7.471  24.866  0.00  0.00    +0.177 C 
ATOM     29  C   UNL     1       4.075  -7.261  25.426  0.00  0.00    +0.180 C 
ATOM     30  C   UNL     1       4.811  -6.105  24.734  0.00  0.00    +0.214 C 
BRANCH  29  31
ATOM     31  O   UNL     1       4.047  -7.083  26.846  0.00  0.00    -0.386 OA
ATOM     32  H   UNL     1       3.140  -7.259  27.166  0.00  0.00    +0.210 HD
ENDBRANCH  29  31
BRANCH  30  33
ATOM     33  O   UNL     1       6.060  -5.840  25.391  0.00  0.00    -0.383 OA
ATOM     34  H   UNL     1       6.306  -6.635  25.899  0.00  0.00    +0.210 HD
ENDBRANCH  30  33
BRANCH  28  35
ATOM     35  O   UNL     1       2.769  -8.233  23.657  0.00  0.00    -0.386 OA
ATOM     36  H   UNL     1       2.031  -8.871  23.644  0.00  0.00    +0.210 HD
ENDBRANCH  28  35
BRANCH  27  37
ATOM     37  C   UNL     1       0.664  -6.360  23.733  0.00  0.00    +0.190 C 
BRANCH  37  38
ATOM     38  O   UNL     1       0.939  -6.208  22.337  0.00  0.00    -0.392 OA
ATOM     39  H   UNL     1       0.286  -6.732  21.843  0.00  0.00    +0.210 HD
ENDBRANCH  37  38
ENDBRANCH  27  37
ENDBRANCH  24  25
ENDBRANCH   7  24
BRANCH   1  40
ATOM     40  O   UNL     1       5.677   3.173  25.573  0.00  0.00    -0.453 OA
BRANCH  40  42
ATOM     41  C   UNL     1       6.013   4.552  23.546  0.00  0.00    +0.221 C 
ATOM     42  C   UNL     1       6.633   3.909  24.822  0.00  0.00    +0.340 C 
ATOM     43  O   UNL     1       7.264   4.914  25.627  0.00  0.00    -0.337 OA
ATOM     44  C   UNL     1       8.412   5.442  24.969  0.00  0.00    +0.198 C 
ATOM     45  C   UNL     1       8.066   6.103  23.633  0.00  0.00    +0.171 C 
ATOM     46  C   UNL     1       7.206   5.162  22.762  0.00  0.00    +0.180 C 
BRANCH  46  47
ATOM     47  O   UNL     1       6.854   5.831  21.545  0.00  0.00    -0.386 OA
ATOM     48  H   UNL     1       7.426   6.609  21.435  0.00  0.00    +0.210 HD
ENDBRANCH  46  47
BRANCH  45  49
ATOM     49  O   UNL     1       9.301   6.423  22.974  0.00  0.00    -0.387 OA
ATOM     50  H   UNL     1      10.018   6.403  23.632  0.00  0.00    +0.210 HD
ENDBRANCH  45  49
BRANCH  41  51
ATOM     51  O   UNL     1       4.947   5.484  23.851  0.00  0.00    -0.337 OA
BRANCH  51  55
ATOM     52  C   UNL     1       1.518   3.142  22.999  0.00  0.00    +0.041 C 
ATOM     53  C   UNL     1       2.459   3.608  21.881  0.00  0.00    +0.149 C 
ATOM     54  O   UNL     1       3.748   4.028  22.385  0.00  0.00    -0.343 OA
ATOM     55  C   UNL     1       3.692   5.217  23.197  0.00  0.00    +0.282 C 
ATOM     56  C   UNL     1       3.159   6.402  22.349  0.00  0.00    +0.201 C 
ATOM     57  C   UNL     1       1.792   6.050  21.763  0.00  0.00    +0.179 C 
ATOM     58  C   UNL     1       1.827   4.712  21.016  0.00  0.00    +0.174 C 
BRANCH  58  59
ATOM     59  O   UNL     1       2.588   4.899  19.810  0.00  0.00    -0.387 OA
ATOM     60  H   UNL     1       3.423   4.394  19.933  0.00  0.00    +0.210 HD
ENDBRANCH  58  59
BRANCH  57  61
ATOM     61  O   UNL     1       1.387   7.106  20.877  0.00  0.00    -0.386 OA
ATOM     62  H   UNL     1       0.566   7.474  21.270  0.00  0.00    +0.210 HD
ENDBRANCH  57  61
BRANCH  56  63
ATOM     63  O   UNL     1       4.071   6.746  21.288  0.00  0.00    -0.384 OA
ATOM     64  H   UNL     1       4.015   7.716  21.193  0.00  0.00    +0.210 HD
ENDBRANCH  56  63
ENDBRANCH  51  55
ENDBRANCH  41  51
ENDBRANCH  40  42
ENDBRANCH   1  40
TORSDOF 20
ENDMDL
MODEL 6
REMARK VINA RESULT:      -6.9      2.112      5.315
REMARK  Name = 
REMARK  21 active torsions:
REMARK  status: ('A' for Active; 'I' for Inactive)
REMARK    1  A    between atoms: C_1  and  C_2
REMARK    2  A    between atoms: C_3  and  O_60
REMARK    3  A    between atoms: C_5  and  O_59
REMARK    4  A    between atoms: C_6  and  O_58
REMARK    5  A    between atoms: C_8  and  O_11
REMARK    6  A    between atoms: O_11  and  C_12
REMARK    7  A    between atoms: C_13  and  O_57
REMARK    8  A    between atoms: C_15  and  O_56
REMARK    9  A    between atoms: C_18  and  O_20
REMARK   10  A    between atoms: O_20  and  C_21
REMARK   11  A    between atoms: C_22  and  C_48
REMARK   12  A    between atoms: C_26  and  O_33
REMARK   13  A    between atoms: C_28  and  O_32
REMARK   14  A    between atoms: O_33  and  C_34
REMARK   15  A    between atoms: C_36  and  O_47
REMARK   16  A    between atoms: C_37  and  O_46
REMARK   17  A    between atoms: C_39  and  O_45
REMARK   18  A    between atoms: C_41  and  C_43
REMARK   19  A    between atoms: C_43  and  O_44
REMARK   20  A    between atoms: C_50  and  O_55
REMARK   21  A    between atoms: C_51  and  O_54
REMARK                            x       y       z     vdW  Elec       q    Type
REMARK                         _______ _______ _______ _____ _____    ______ ____
ROOT
ATOM      1  C   UNL     1       7.445  -1.777  25.865  0.00  0.00    +0.214 A 
ATOM      2  C   UNL     1       8.713  -1.239  25.250  0.00  0.00    +0.238 A 
ATOM      3  O   UNL     1       9.667  -1.964  25.001  0.00  0.00    -0.283 OA
ATOM      4  C   UNL     1       8.749   0.217  24.952  0.00  0.00    +0.109 A 
ATOM      5  C   UNL     1       7.792   1.009  25.575  0.00  0.00    +0.147 A 
ATOM      6  C   UNL     1       7.682   2.382  25.301  0.00  0.00    +0.093 A 
ATOM      7  C   UNL     1       8.556   2.994  24.404  0.00  0.00    +0.131 A 
ATOM      8  C   UNL     1       9.549   2.211  23.801  0.00  0.00    +0.092 A 
ATOM      9  O   UNL     1       6.919   0.500  26.499  0.00  0.00    -0.451 OA
ATOM     10  C   UNL     1       9.644   0.835  24.071  0.00  0.00    +0.135 A 
ATOM     11  C   UNL     1       6.655  -0.864  26.486  0.00  0.00    +0.181 A 
ENDROOT
BRANCH  11  12
ATOM     12  C   UNL     1       5.349  -1.084  27.145  0.00  0.00    +0.025 A 
ATOM     13  C   UNL     1       4.331  -1.704  26.402  0.00  0.00    +0.015 A 
ATOM     14  C   UNL     1       3.035  -1.806  26.922  0.00  0.00    +0.050 A 
ATOM     15  C   UNL     1       2.768  -1.299  28.184  0.00  0.00    +0.158 A 
ATOM     16  C   UNL     1       3.773  -0.710  28.947  0.00  0.00    +0.159 A 
ATOM     17  C   UNL     1       5.060  -0.568  28.427  0.00  0.00    +0.060 A 
BRANCH  16  18
ATOM     18  O   UNL     1       3.434  -0.288  30.203  0.00  0.00    -0.503 OA
ATOM     19  H   UNL     1       3.937   0.517  30.418  0.00  0.00    +0.292 HD
ENDBRANCH  16  18
BRANCH  15  20
ATOM     20  O   UNL     1       1.495  -1.382  28.671  0.00  0.00    -0.503 OA
ATOM     21  H   UNL     1       1.369  -2.324  28.901  0.00  0.00    +0.292 HD
ENDBRANCH  15  20
ENDBRANCH  11  12
BRANCH  10  22
ATOM     22  O   UNL     1      10.613   0.104  23.445  0.00  0.00    -0.506 OA
ATOM     23  H   UNL     1      10.620  -0.813  23.763  0.00  0.00    +0.292 HD
ENDBRANCH  10  22
BRANCH   7  24
ATOM     24  O   UNL     1       8.505   4.312  24.013  0.00  0.00    -0.461 OA
BRANCH  24  25
ATOM     25  C   UNL     1       7.548   5.165  24.680  0.00  0.00    +0.339 C 
ATOM     26  O   UNL     1       6.195   4.738  24.502  0.00  0.00    -0.331 OA
ATOM     27  C   UNL     1       5.754   4.738  23.132  0.00  0.00    +0.179 C 
ATOM     28  C   UNL     1       5.916   6.107  22.425  0.00  0.00    +0.177 C 
ATOM     29  C   UNL     1       7.271   6.766  22.714  0.00  0.00    +0.180 C 
ATOM     30  C   UNL     1       7.689   6.622  24.185  0.00  0.00    +0.214 C 
BRANCH  29  31
ATOM     31  O   UNL     1       8.286   6.268  21.834  0.00  0.00    -0.386 OA
ATOM     32  H   UNL     1       8.387   5.308  21.985  0.00  0.00    +0.210 HD
ENDBRANCH  29  31
BRANCH  30  33
ATOM     33  O   UNL     1       9.026   7.107  24.376  0.00  0.00    -0.383 OA
ATOM     34  H   UNL     1       9.097   7.441  25.291  0.00  0.00    +0.210 HD
ENDBRANCH  30  33
BRANCH  28  35
ATOM     35  O   UNL     1       4.883   7.014  22.832  0.00  0.00    -0.386 OA
ATOM     36  H   UNL     1       5.104   7.330  23.728  0.00  0.00    +0.210 HD
ENDBRANCH  28  35
BRANCH  27  37
ATOM     37  C   UNL     1       4.280   4.276  23.118  0.00  0.00    +0.190 C 
BRANCH  37  38
ATOM     38  O   UNL     1       4.130   2.933  22.649  0.00  0.00    -0.392 OA
ATOM     39  H   UNL     1       3.308   2.886  22.132  0.00  0.00    +0.210 HD
ENDBRANCH  37  38
ENDBRANCH  27  37
ENDBRANCH  24  25
ENDBRANCH   7  24
BRANCH   1  40
ATOM     40  O   UNL     1       7.265  -3.136  25.679  0.00  0.00    -0.453 OA
BRANCH  40  42
ATOM     41  C   UNL     1       6.132  -4.977  24.474  0.00  0.00    +0.221 C 
ATOM     42  C   UNL     1       7.013  -3.695  24.397  0.00  0.00    +0.340 C 
ATOM     43  O   UNL     1       6.413  -2.733  23.519  0.00  0.00    -0.337 OA
ATOM     44  C   UNL     1       6.435  -3.194  22.171  0.00  0.00    +0.198 C 
ATOM     45  C   UNL     1       5.658  -4.499  21.989  0.00  0.00    +0.171 C 
ATOM     46  C   UNL     1       6.098  -5.550  23.031  0.00  0.00    +0.180 C 
BRANCH  46  47
ATOM     47  O   UNL     1       5.313  -6.737  22.868  0.00  0.00    -0.386 OA
ATOM     48  H   UNL     1       5.522  -7.138  22.007  0.00  0.00    +0.210 HD
ENDBRANCH  46  47
BRANCH  45  49
ATOM     49  O   UNL     1       5.905  -4.968  20.654  0.00  0.00    -0.387 OA
ATOM     50  H   UNL     1       6.413  -5.796  20.706  0.00  0.00    +0.210 HD
ENDBRANCH  45  49
BRANCH  41  51
ATOM     51  O   UNL     1       4.830  -4.727  25.058  0.00  0.00    -0.337 OA
BRANCH  51  55
ATOM     52  C   UNL     1       2.121  -7.337  27.012  0.00  0.00    +0.041 C 
ATOM     53  C   UNL     1       2.743  -6.143  27.747  0.00  0.00    +0.149 C 
ATOM     54  O   UNL     1       3.298  -5.164  26.838  0.00  0.00    -0.343 OA
ATOM     55  C   UNL     1       4.438  -5.643  26.097  0.00  0.00    +0.282 C 
ATOM     56  C   UNL     1       5.581  -6.008  27.080  0.00  0.00    +0.201 C 
ATOM     57  C   UNL     1       5.087  -7.041  28.093  0.00  0.00    +0.179 C 
ATOM     58  C   UNL     1       3.795  -6.584  28.779  0.00  0.00    +0.174 C 
BRANCH  58  59
ATOM     59  O   UNL     1       4.124  -5.493  29.657  0.00  0.00    -0.387 OA
ATOM     60  H   UNL     1       4.999  -5.156  29.358  0.00  0.00    +0.210 HD
ENDBRANCH  58  59
BRANCH  57  61
ATOM     61  O   UNL     1       6.121  -7.257  29.067  0.00  0.00    -0.386 OA
ATOM     62  H   UNL     1       5.699  -7.781  29.783  0.00  0.00    +0.210 HD
ENDBRANCH  57  61
BRANCH  56  63
ATOM     63  O   UNL     1       6.077  -4.845  27.770  0.00  0.00    -0.384 OA
ATOM     64  H   UNL     1       5.470  -4.703  28.521  0.00  0.00    +0.210 HD
ENDBRANCH  56  63
ENDBRANCH  51  55
ENDBRANCH  41  51
ENDBRANCH  40  42
ENDBRANCH   1  40
TORSDOF 20
ENDMDL
MODEL 7
REMARK VINA RESULT:      -6.9      1.900      4.805
REMARK  Name = 
REMARK  21 active torsions:
REMARK  status: ('A' for Active; 'I' for Inactive)
REMARK    1  A    between atoms: C_1  and  C_2
REMARK    2  A    between atoms: C_3  and  O_60
REMARK    3  A    between atoms: C_5  and  O_59
REMARK    4  A    between atoms: C_6  and  O_58
REMARK    5  A    between atoms: C_8  and  O_11
REMARK    6  A    between atoms: O_11  and  C_12
REMARK    7  A    between atoms: C_13  and  O_57
REMARK    8  A    between atoms: C_15  and  O_56
REMARK    9  A    between atoms: C_18  and  O_20
REMARK   10  A    between atoms: O_20  and  C_21
REMARK   11  A    between atoms: C_22  and  C_48
REMARK   12  A    between atoms: C_26  and  O_33
REMARK   13  A    between atoms: C_28  and  O_32
REMARK   14  A    between atoms: O_33  and  C_34
REMARK   15  A    between atoms: C_36  and  O_47
REMARK   16  A    between atoms: C_37  and  O_46
REMARK   17  A    between atoms: C_39  and  O_45
REMARK   18  A    between atoms: C_41  and  C_43
REMARK   19  A    between atoms: C_43  and  O_44
REMARK   20  A    between atoms: C_50  and  O_55
REMARK   21  A    between atoms: C_51  and  O_54
REMARK                            x       y       z     vdW  Elec       q    Type
REMARK                         _______ _______ _______ _____ _____    ______ ____
ROOT
ATOM      1  C   UNL     1       8.124  -3.665  25.318  0.00  0.00    +0.214 A 
ATOM      2  C   UNL     1       9.247  -2.855  24.720  0.00  0.00    +0.238 A 
ATOM      3  O   UNL     1      10.166  -3.381  24.107  0.00  0.00    -0.283 OA
ATOM      4  C   UNL     1       9.183  -1.381  24.904  0.00  0.00    +0.109 A 
ATOM      5  C   UNL     1       8.325  -0.908  25.888  0.00  0.00    +0.147 A 
ATOM      6  C   UNL     1       8.124   0.467  26.090  0.00  0.00    +0.093 A 
ATOM      7  C   UNL     1       8.808   1.401  25.313  0.00  0.00    +0.131 A 
ATOM      8  C   UNL     1       9.706   0.934  24.345  0.00  0.00    +0.092 A 
ATOM      9  O   UNL     1       7.643  -1.752  26.723  0.00  0.00    -0.451 OA
ATOM     10  C   UNL     1       9.891  -0.445  24.141  0.00  0.00    +0.135 A 
ATOM     11  C   UNL     1       7.425  -3.061  26.314  0.00  0.00    +0.181 A 
ENDROOT
BRANCH  11  12
ATOM     12  C   UNL     1       6.261  -3.587  27.061  0.00  0.00    +0.025 A 
ATOM     13  C   UNL     1       6.440  -4.750  27.828  0.00  0.00    +0.015 A 
ATOM     14  C   UNL     1       5.344  -5.374  28.436  0.00  0.00    +0.050 A 
ATOM     15  C   UNL     1       4.080  -4.825  28.285  0.00  0.00    +0.158 A 
ATOM     16  C   UNL     1       3.891  -3.654  27.556  0.00  0.00    +0.159 A 
ATOM     17  C   UNL     1       4.968  -3.043  26.913  0.00  0.00    +0.060 A 
BRANCH  16  18
ATOM     18  O   UNL     1       2.620  -3.152  27.506  0.00  0.00    -0.503 OA
ATOM     19  H   UNL     1       2.336  -3.089  26.578  0.00  0.00    +0.292 HD
ENDBRANCH  16  18
BRANCH  15  20
ATOM     20  O   UNL     1       3.016  -5.455  28.863  0.00  0.00    -0.503 OA
ATOM     21  H   UNL     1       3.273  -5.590  29.797  0.00  0.00    +0.292 HD
ENDBRANCH  15  20
ENDBRANCH  11  12
BRANCH  10  22
ATOM     22  O   UNL     1      10.760  -0.858  23.171  0.00  0.00    -0.506 OA
ATOM     23  H   UNL     1      10.773  -0.237  22.426  0.00  0.00    +0.292 HD
ENDBRANCH  10  22
BRANCH   7  24
ATOM     24  O   UNL     1       8.648   2.766  25.379  0.00  0.00    -0.461 OA
BRANCH  24  25
ATOM     25  C   UNL     1       8.294   3.452  24.157  0.00  0.00    +0.339 C 
ATOM     26  O   UNL     1       9.418   4.048  23.502  0.00  0.00    -0.331 OA
ATOM     27  C   UNL     1      10.083   5.059  24.281  0.00  0.00    +0.179 C 
ATOM     28  C   UNL     1       9.147   6.201  24.748  0.00  0.00    +0.177 C 
ATOM     29  C   UNL     1       7.807   5.684  25.289  0.00  0.00    +0.180 C 
ATOM     30  C   UNL     1       7.235   4.542  24.438  0.00  0.00    +0.214 C 
BRANCH  29  31
ATOM     31  O   UNL     1       7.918   5.302  26.665  0.00  0.00    -0.386 OA
ATOM     32  H   UNL     1       7.752   4.342  26.737  0.00  0.00    +0.210 HD
ENDBRANCH  29  31
BRANCH  30  33
ATOM     33  O   UNL     1       6.071   3.983  25.064  0.00  0.00    -0.383 OA
ATOM     34  H   UNL     1       5.902   3.110  24.661  0.00  0.00    +0.210 HD
ENDBRANCH  30  33
BRANCH  28  35
ATOM     35  O   UNL     1       8.874   7.108  23.672  0.00  0.00    -0.386 OA
ATOM     36  H   UNL     1       8.019   6.850  23.280  0.00  0.00    +0.210 HD
ENDBRANCH  28  35
BRANCH  27  37
ATOM     37  C   UNL     1      11.249   5.609  23.429  0.00  0.00    +0.190 C 
BRANCH  37  38
ATOM     38  O   UNL     1      11.915   4.586  22.683  0.00  0.00    -0.392 OA
ATOM     39  H   UNL     1      12.868   4.662  22.855  0.00  0.00    +0.210 HD
ENDBRANCH  37  38
ENDBRANCH  27  37
ENDBRANCH  24  25
ENDBRANCH   7  24
BRANCH   1  40
ATOM     40  O   UNL     1       7.959  -4.909  24.736  0.00  0.00    -0.453 OA
BRANCH  40  42
ATOM     41  C   UNL     1       6.080  -5.826  23.411  0.00  0.00    +0.221 C 
ATOM     42  C   UNL     1       7.438  -5.063  23.423  0.00  0.00    +0.340 C 
ATOM     43  O   UNL     1       7.299  -3.796  22.766  0.00  0.00    -0.337 OA
ATOM     44  C   UNL     1       7.065  -3.971  21.371  0.00  0.00    +0.198 C 
ATOM     45  C   UNL     1       5.781  -4.753  21.091  0.00  0.00    +0.171 C 
ATOM     46  C   UNL     1       5.742  -6.059  21.914  0.00  0.00    +0.180 C 
BRANCH  46  47
ATOM     47  O   UNL     1       4.504  -6.737  21.670  0.00  0.00    -0.386 OA
ATOM     48  H   UNL     1       4.653  -7.696  21.723  0.00  0.00    +0.210 HD
ENDBRANCH  46  47
BRANCH  45  49
ATOM     49  O   UNL     1       5.743  -5.036  19.683  0.00  0.00    -0.387 OA
ATOM     50  H   UNL     1       5.847  -5.995  19.557  0.00  0.00    +0.210 HD
ENDBRANCH  45  49
BRANCH  41  51
ATOM     51  O   UNL     1       5.049  -5.145  24.167  0.00  0.00    -0.337 OA
BRANCH  51  55
ATOM     52  C   UNL     1       0.877  -5.455  23.481  0.00  0.00    +0.041 C 
ATOM     53  C   UNL     1       1.464  -5.614  24.890  0.00  0.00    +0.149 C 
ATOM     54  O   UNL     1       2.807  -5.085  24.990  0.00  0.00    -0.343 OA
ATOM     55  C   UNL     1       3.776  -5.817  24.214  0.00  0.00    +0.282 C 
ATOM     56  C   UNL     1       3.855  -7.280  24.725  0.00  0.00    +0.201 C 
ATOM     57  C   UNL     1       2.472  -7.928  24.663  0.00  0.00    +0.179 C 
ATOM     58  C   UNL     1       1.417  -7.074  25.374  0.00  0.00    +0.174 C 
BRANCH  58  59
ATOM     59  O   UNL     1       1.674  -7.140  26.788  0.00  0.00    -0.387 OA
ATOM     60  H   UNL     1       1.592  -6.218  27.123  0.00  0.00    +0.210 HD
ENDBRANCH  58  59
BRANCH  57  61
ATOM     61  O   UNL     1       2.550  -9.230  25.267  0.00  0.00    -0.386 OA
ATOM     62  H   UNL     1       3.281  -9.171  25.919  0.00  0.00    +0.210 HD
ENDBRANCH  57  61
BRANCH  56  63
ATOM     63  O   UNL     1       4.365  -7.344  26.071  0.00  0.00    -0.384 OA
ATOM     64  H   UNL     1       4.540  -6.420  26.333  0.00  0.00    +0.210 HD
ENDBRANCH  56  63
ENDBRANCH  51  55
ENDBRANCH  41  51
ENDBRANCH  40  42
ENDBRANCH   1  40
TORSDOF 20
ENDMDL
MODEL 8
REMARK VINA RESULT:      -6.9      2.561      9.662
REMARK  Name = 
REMARK  21 active torsions:
REMARK  status: ('A' for Active; 'I' for Inactive)
REMARK    1  A    between atoms: C_1  and  C_2
REMARK    2  A    between atoms: C_3  and  O_60
REMARK    3  A    between atoms: C_5  and  O_59
REMARK    4  A    between atoms: C_6  and  O_58
REMARK    5  A    between atoms: C_8  and  O_11
REMARK    6  A    between atoms: O_11  and  C_12
REMARK    7  A    between atoms: C_13  and  O_57
REMARK    8  A    between atoms: C_15  and  O_56
REMARK    9  A    between atoms: C_18  and  O_20
REMARK   10  A    between atoms: O_20  and  C_21
REMARK   11  A    between atoms: C_22  and  C_48
REMARK   12  A    between atoms: C_26  and  O_33
REMARK   13  A    between atoms: C_28  and  O_32
REMARK   14  A    between atoms: O_33  and  C_34
REMARK   15  A    between atoms: C_36  and  O_47
REMARK   16  A    between atoms: C_37  and  O_46
REMARK   17  A    between atoms: C_39  and  O_45
REMARK   18  A    between atoms: C_41  and  C_43
REMARK   19  A    between atoms: C_43  and  O_44
REMARK   20  A    between atoms: C_50  and  O_55
REMARK   21  A    between atoms: C_51  and  O_54
REMARK                            x       y       z     vdW  Elec       q    Type
REMARK                         _______ _______ _______ _____ _____    ______ ____
ROOT
ATOM      1  C   UNL     1       6.212   2.033  26.113  0.00  0.00    +0.214 A 
ATOM      2  C   UNL     1       5.196   1.531  27.109  0.00  0.00    +0.238 A 
ATOM      3  O   UNL     1       4.832   2.212  28.057  0.00  0.00    -0.283 OA
ATOM      4  C   UNL     1       4.651   0.167  26.880  0.00  0.00    +0.109 A 
ATOM      5  C   UNL     1       5.359  -0.655  26.013  0.00  0.00    +0.147 A 
ATOM      6  C   UNL     1       4.889  -1.931  25.660  0.00  0.00    +0.093 A 
ATOM      7  C   UNL     1       3.699  -2.418  26.199  0.00  0.00    +0.131 A 
ATOM      8  C   UNL     1       2.999  -1.612  27.105  0.00  0.00    +0.092 A 
ATOM      9  O   UNL     1       6.557  -0.276  25.469  0.00  0.00    -0.451 OA
ATOM     10  C   UNL     1       3.469  -0.330  27.442  0.00  0.00    +0.135 A 
ATOM     11  C   UNL     1       6.853   1.079  25.389  0.00  0.00    +0.181 A 
ENDROOT
BRANCH  11  12
ATOM     12  C   UNL     1       7.865   1.265  24.326  0.00  0.00    +0.025 A 
ATOM     13  C   UNL     1       9.169   1.616  24.711  0.00  0.00    +0.015 A 
ATOM     14  C   UNL     1      10.128   1.948  23.746  0.00  0.00    +0.050 A 
ATOM     15  C   UNL     1       9.782   1.913  22.404  0.00  0.00    +0.158 A 
ATOM     16  C   UNL     1       8.503   1.536  22.005  0.00  0.00    +0.159 A 
ATOM     17  C   UNL     1       7.526   1.239  22.956  0.00  0.00    +0.060 A 
BRANCH  16  18
ATOM     18  O   UNL     1       8.265   1.475  20.660  0.00  0.00    -0.503 OA
ATOM     19  H   UNL     1       7.321   1.645  20.492  0.00  0.00    +0.292 HD
ENDBRANCH  16  18
BRANCH  15  20
ATOM     20  O   UNL     1      10.718   2.261  21.474  0.00  0.00    -0.503 OA
ATOM     21  H   UNL     1      10.243   2.823  20.829  0.00  0.00    +0.292 HD
ENDBRANCH  15  20
ENDBRANCH  11  12
BRANCH  10  22
ATOM     22  O   UNL     1       2.744   0.432  28.313  0.00  0.00    -0.506 OA
ATOM     23  H   UNL     1       2.313  -0.120  28.985  0.00  0.00    +0.292 HD
ENDBRANCH  10  22
BRANCH   7  24
ATOM     24  O   UNL     1       3.113  -3.621  25.883  0.00  0.00    -0.461 OA
BRANCH  24  25
ATOM     25  C   UNL     1       3.820  -4.823  26.261  0.00  0.00    +0.339 C 
ATOM     26  O   UNL     1       4.863  -5.174  25.347  0.00  0.00    -0.331 OA
ATOM     27  C   UNL     1       4.403  -5.455  24.012  0.00  0.00    +0.179 C 
ATOM     28  C   UNL     1       3.323  -6.562  23.945  0.00  0.00    +0.177 C 
ATOM     29  C   UNL     1       2.245  -6.404  25.027  0.00  0.00    +0.180 C 
ATOM     30  C   UNL     1       2.837  -6.009  26.387  0.00  0.00    +0.214 C 
BRANCH  29  31
ATOM     31  O   UNL     1       1.230  -5.483  24.613  0.00  0.00    -0.386 OA
ATOM     32  H   UNL     1       1.605  -4.889  23.934  0.00  0.00    +0.210 HD
ENDBRANCH  29  31
BRANCH  30  33
ATOM     33  O   UNL     1       1.790  -5.717  27.324  0.00  0.00    -0.383 OA
ATOM     34  H   UNL     1       1.006  -5.431  26.818  0.00  0.00    +0.210 HD
ENDBRANCH  30  33
BRANCH  28  35
ATOM     35  O   UNL     1       3.915  -7.859  24.091  0.00  0.00    -0.386 OA
ATOM     36  H   UNL     1       3.279  -8.421  24.573  0.00  0.00    +0.210 HD
ENDBRANCH  28  35
BRANCH  27  37
ATOM     37  C   UNL     1       5.640  -5.832  23.165  0.00  0.00    +0.190 C 
BRANCH  37  38
ATOM     38  O   UNL     1       5.287  -6.348  21.878  0.00  0.00    -0.392 OA
ATOM     39  H   UNL     1       4.509  -5.860  21.562  0.00  0.00    +0.210 HD
ENDBRANCH  37  38
ENDBRANCH  27  37
ENDBRANCH  24  25
ENDBRANCH   7  24
BRANCH   1  40
ATOM     40  O   UNL     1       6.321   3.411  26.071  0.00  0.00    -0.453 OA
BRANCH  40  42
ATOM     41  C   UNL     1       6.568   4.622  23.926  0.00  0.00    +0.221 C 
ATOM     42  C   UNL     1       7.246   4.069  25.215  0.00  0.00    +0.340 C 
ATOM     43  O   UNL     1       7.934   5.122  25.904  0.00  0.00    -0.337 OA
ATOM     44  C   UNL     1       9.053   5.575  25.147  0.00  0.00    +0.198 C 
ATOM     45  C   UNL     1       8.645   6.136  23.784  0.00  0.00    +0.171 C 
ATOM     46  C   UNL     1       7.726   5.146  23.035  0.00  0.00    +0.180 C 
BRANCH  46  47
ATOM     47  O   UNL     1       7.319   5.725  21.789  0.00  0.00    -0.386 OA
ATOM     48  H   UNL     1       7.719   5.222  21.061  0.00  0.00    +0.210 HD
ENDBRANCH  46  47
BRANCH  45  49
ATOM     49  O   UNL     1       9.847   6.381  23.038  0.00  0.00    -0.387 OA
ATOM     50  H   UNL     1      10.589   5.947  23.494  0.00  0.00    +0.210 HD
ENDBRANCH  45  49
BRANCH  41  51
ATOM     51  O   UNL     1       5.534   5.595  24.212  0.00  0.00    -0.337 OA
BRANCH  51  55
ATOM     52  C   UNL     1       1.986   3.280  24.074  0.00  0.00    +0.041 C 
ATOM     53  C   UNL     1       2.847   3.487  22.822  0.00  0.00    +0.149 C 
ATOM     54  O   UNL     1       4.183   3.941  23.141  0.00  0.00    -0.343 OA
ATOM     55  C   UNL     1       4.224   5.262  23.714  0.00  0.00    +0.282 C 
ATOM     56  C   UNL     1       3.658   6.289  22.697  0.00  0.00    +0.201 C 
ATOM     57  C   UNL     1       2.239   5.889  22.291  0.00  0.00    +0.179 C 
ATOM     58  C   UNL     1       2.178   4.435  21.811  0.00  0.00    +0.174 C 
BRANCH  58  59
ATOM     59  O   UNL     1       2.846   4.361  20.539  0.00  0.00    -0.387 OA
ATOM     60  H   UNL     1       3.646   4.929  20.618  0.00  0.00    +0.210 HD
ENDBRANCH  58  59
BRANCH  57  61
ATOM     61  O   UNL     1       1.794   6.777  21.252  0.00  0.00    -0.386 OA
ATOM     62  H   UNL     1       2.614   7.116  20.831  0.00  0.00    +0.210 HD
ENDBRANCH  57  61
BRANCH  56  63
ATOM     63  O   UNL     1       4.491   6.389  21.526  0.00  0.00    -0.384 OA
ATOM     64  H   UNL     1       4.282   5.605  20.984  0.00  0.00    +0.210 HD
ENDBRANCH  56  63
ENDBRANCH  51  55
ENDBRANCH  41  51
ENDBRANCH  40  42
ENDBRANCH   1  40
TORSDOF 20
ENDMDL
MODEL 9
REMARK VINA RESULT:      -6.8      2.580      9.344
REMARK  Name = 
REMARK  21 active torsions:
REMARK  status: ('A' for Active; 'I' for Inactive)
REMARK    1  A    between atoms: C_1  and  C_2
REMARK    2  A    between atoms: C_3  and  O_60
REMARK    3  A    between atoms: C_5  and  O_59
REMARK    4  A    between atoms: C_6  and  O_58
REMARK    5  A    between atoms: C_8  and  O_11
REMARK    6  A    between atoms: O_11  and  C_12
REMARK    7  A    between atoms: C_13  and  O_57
REMARK    8  A    between atoms: C_15  and  O_56
REMARK    9  A    between atoms: C_18  and  O_20
REMARK   10  A    between atoms: O_20  and  C_21
REMARK   11  A    between atoms: C_22  and  C_48
REMARK   12  A    between atoms: C_26  and  O_33
REMARK   13  A    between atoms: C_28  and  O_32
REMARK   14  A    between atoms: O_33  and  C_34
REMARK   15  A    between atoms: C_36  and  O_47
REMARK   16  A    between atoms: C_37  and  O_46
REMARK   17  A    between atoms: C_39  and  O_45
REMARK   18  A    between atoms: C_41  and  C_43
REMARK   19  A    between atoms: C_43  and  O_44
REMARK   20  A    between atoms: C_50  and  O_55
REMARK   21  A    between atoms: C_51  and  O_54
REMARK                            x       y       z     vdW  Elec       q    Type
REMARK                         _______ _______ _______ _____ _____    ______ ____
ROOT
ATOM      1  C   UNL     1       6.348   1.740  26.316  0.00  0.00    +0.214 A 
ATOM      2  C   UNL     1       5.520   1.192  27.451  0.00  0.00    +0.238 A 
ATOM      3  O   UNL     1       5.028   1.921  28.301  0.00  0.00    -0.283 OA
ATOM      4  C   UNL     1       5.325  -0.281  27.488  0.00  0.00    +0.109 A 
ATOM      5  C   UNL     1       6.187  -1.049  26.715  0.00  0.00    +0.147 A 
ATOM      6  C   UNL     1       6.038  -2.442  26.610  0.00  0.00    +0.093 A 
ATOM      7  C   UNL     1       5.024  -3.097  27.306  0.00  0.00    +0.131 A 
ATOM      8  C   UNL     1       4.174  -2.336  28.119  0.00  0.00    +0.092 A 
ATOM      9  O   UNL     1       7.235  -0.495  26.031  0.00  0.00    -0.451 OA
ATOM     10  C   UNL     1       4.321  -0.941  28.208  0.00  0.00    +0.135 A 
ATOM     11  C   UNL     1       7.183   0.855  25.711  0.00  0.00    +0.181 A 
ENDROOT
BRANCH  11  12
ATOM     12  C   UNL     1       8.083   1.089  24.561  0.00  0.00    +0.025 A 
ATOM     13  C   UNL     1       9.417   1.442  24.827  0.00  0.00    +0.015 A 
ATOM     14  C   UNL     1      10.273   1.816  23.784  0.00  0.00    +0.050 A 
ATOM     15  C   UNL     1       9.796   1.824  22.483  0.00  0.00    +0.158 A 
ATOM     16  C   UNL     1       8.486   1.446  22.199  0.00  0.00    +0.159 A 
ATOM     17  C   UNL     1       7.611   1.106  23.231  0.00  0.00    +0.060 A 
BRANCH  16  18
ATOM     18  O   UNL     1       8.117   1.428  20.882  0.00  0.00    -0.503 OA
ATOM     19  H   UNL     1       7.151   1.531  20.818  0.00  0.00    +0.292 HD
ENDBRANCH  16  18
BRANCH  15  20
ATOM     20  O   UNL     1      10.632   2.214  21.478  0.00  0.00    -0.503 OA
ATOM     21  H   UNL     1      10.086   2.195  20.667  0.00  0.00    +0.292 HD
ENDBRANCH  15  20
ENDBRANCH  11  12
BRANCH  10  22
ATOM     22  O   UNL     1       3.457  -0.234  28.995  0.00  0.00    -0.506 OA
ATOM     23  H   UNL     1       3.658  -0.360  29.936  0.00  0.00    +0.292 HD
ENDBRANCH  10  22
BRANCH   7  24
ATOM     24  O   UNL     1       4.745  -4.442  27.233  0.00  0.00    -0.461 OA
BRANCH  24  25
ATOM     25  C   UNL     1       5.618  -5.257  26.420  0.00  0.00    +0.339 C 
ATOM     26  O   UNL     1       5.580  -4.911  25.033  0.00  0.00    -0.331 OA
ATOM     27  C   UNL     1       4.289  -5.080  24.420  0.00  0.00    +0.179 C 
ATOM     28  C   UNL     1       3.712  -6.509  24.567  0.00  0.00    +0.177 C 
ATOM     29  C   UNL     1       3.883  -7.074  25.984  0.00  0.00    +0.180 C 
ATOM     30  C   UNL     1       5.262  -6.753  26.578  0.00  0.00    +0.214 C 
BRANCH  29  31
ATOM     31  O   UNL     1       2.829  -6.633  26.847  0.00  0.00    -0.386 OA
ATOM     32  H   UNL     1       2.438  -5.819  26.472  0.00  0.00    +0.210 HD
ENDBRANCH  29  31
BRANCH  30  33
ATOM     33  O   UNL     1       5.322  -7.156  27.955  0.00  0.00    -0.383 OA
ATOM     34  H   UNL     1       6.243  -7.051  28.258  0.00  0.00    +0.210 HD
ENDBRANCH  30  33
BRANCH  28  35
ATOM     35  O   UNL     1       4.344  -7.410  23.649  0.00  0.00    -0.386 OA
ATOM     36  H   UNL     1       4.524  -6.914  22.827  0.00  0.00    +0.210 HD
ENDBRANCH  28  35
BRANCH  27  37
ATOM     37  C   UNL     1       4.425  -4.685  22.933  0.00  0.00    +0.190 C 
BRANCH  37  38
ATOM     38  O   UNL     1       5.709  -5.010  22.394  0.00  0.00    -0.392 OA
ATOM     39  H   UNL     1       5.573  -5.565  21.608  0.00  0.00    +0.210 HD
ENDBRANCH  37  38
ENDBRANCH  27  37
ENDBRANCH  24  25
ENDBRANCH   7  24
BRANCH   1  40
ATOM     40  O   UNL     1       6.110   3.075  26.043  0.00  0.00    -0.453 OA
BRANCH  40  42
ATOM     41  C   UNL     1       6.142   4.372  23.935  0.00  0.00    +0.221 C 
ATOM     42  C   UNL     1       6.934   3.822  25.158  0.00  0.00    +0.340 C 
ATOM     43  O   UNL     1       7.594   4.895  25.844  0.00  0.00    -0.337 OA
ATOM     44  C   UNL     1       8.631   5.449  25.039  0.00  0.00    +0.198 C 
ATOM     45  C   UNL     1       8.102   6.028  23.726  0.00  0.00    +0.171 C 
ATOM     46  C   UNL     1       7.205   5.005  22.997  0.00  0.00    +0.180 C 
BRANCH  46  47
ATOM     47  O   UNL     1       6.683   5.597  21.801  0.00  0.00    -0.386 OA
ATOM     48  H   UNL     1       7.164   6.422  21.621  0.00  0.00    +0.210 HD
ENDBRANCH  46  47
BRANCH  45  49
ATOM     49  O   UNL     1       9.236   6.379  22.918  0.00  0.00    -0.387 OA
ATOM     50  H   UNL     1       9.480   5.610  22.374  0.00  0.00    +0.210 HD
ENDBRANCH  45  49
BRANCH  41  51
ATOM     51  O   UNL     1       5.066   5.263  24.320  0.00  0.00    -0.337 OA
BRANCH  51  55
ATOM     52  C   UNL     1       1.150   6.325  23.093  0.00  0.00    +0.041 C 
ATOM     53  C   UNL     1       1.405   5.063  23.927  0.00  0.00    +0.149 C 
ATOM     54  O   UNL     1       2.698   5.086  24.577  0.00  0.00    -0.343 OA
ATOM     55  C   UNL     1       3.808   5.027  23.660  0.00  0.00    +0.282 C 
ATOM     56  C   UNL     1       3.755   3.697  22.862  0.00  0.00    +0.201 C 
ATOM     57  C   UNL     1       2.414   3.578  22.139  0.00  0.00    +0.179 C 
ATOM     58  C   UNL     1       1.235   3.778  23.098  0.00  0.00    +0.174 C 
BRANCH  58  59
ATOM     59  O   UNL     1       1.170   2.631  23.964  0.00  0.00    -0.387 OA
ATOM     60  H   UNL     1       0.779   1.906  23.426  0.00  0.00    +0.210 HD
ENDBRANCH  58  59
BRANCH  57  61
ATOM     61  O   UNL     1       2.340   2.282  21.522  0.00  0.00    -0.386 OA
ATOM     62  H   UNL     1       2.016   1.678  22.225  0.00  0.00    +0.210 HD
ENDBRANCH  57  61
BRANCH  56  63
ATOM     63  O   UNL     1       3.950   2.557  23.721  0.00  0.00    -0.384 OA
ATOM     64  H   UNL     1       4.273   2.915  24.569  0.00  0.00    +0.210 HD
ENDBRANCH  56  63
ENDBRANCH  51  55
ENDBRANCH  41  51
ENDBRANCH  40  42
ENDBRANCH   1  40
TORSDOF 20
ENDMDL
