MODEL 1
REMARK VINA RESULT:      -7.1      0.000      0.000
REMARK  Name = 
REMARK  19 active torsions:
REMARK  status: ('A' for Active; 'I' for Inactive)
REMARK    1  A    between atoms: C_1  and  C_2
REMARK    2  A    between atoms: C_3  and  O_35
REMARK    3  A    between atoms: C_5  and  O_34
REMARK    4  A    between atoms: C_6  and  O_33
REMARK    5  A    between atoms: C_8  and  O_11
REMARK    6  A    between atoms: O_11  and  C_12
REMARK    7  A    between atoms: C_13  and  C_25
REMARK    8  A    between atoms: C_17  and  O_24
REMARK    9  A    between atoms: C_19  and  O_23
REMARK   10  A    between atoms: C_27  and  O_32
REMARK   11  A    between atoms: C_28  and  O_31
REMARK   12  A    between atoms: O_35  and  C_36
REMARK   13  A    between atoms: C_38  and  O_52
REMARK   14  A    between atoms: C_40  and  O_51
REMARK   15  A    between atoms: C_41  and  O_50
REMARK   16  A    between atoms: C_43  and  C_45
REMARK   17  A    between atoms: C_45  and  O_46
REMARK   18  A    between atoms: O_46  and  C_47
REMARK   19  A    between atoms: C_47  and  C_49
REMARK                            x       y       z     vdW  Elec       q    Type
REMARK                         _______ _______ _______ _____ _____    ______ ____
ROOT
ATOM      1  C   UNL     1      10.912   0.804  24.522  0.00  0.00    +0.041 C 
ATOM      2  C   UNL     1       9.726   1.737  24.284  0.00  0.00    +0.151 C 
ATOM      3  O   UNL     1       8.502   1.291  24.851  0.00  0.00    -0.334 OA
ATOM      4  C   UNL     1       7.824   0.228  24.186  0.00  0.00    +0.339 C 
ATOM      5  C   UNL     1       7.696   0.357  22.661  0.00  0.00    +0.214 C 
ATOM      6  C   UNL     1       8.965   0.917  22.032  0.00  0.00    +0.180 C 
ATOM      7  C   UNL     1       9.519   2.120  22.814  0.00  0.00    +0.181 C 
ENDROOT
BRANCH   6   8
ATOM      8  O   UNL     1       8.684   1.317  20.681  0.00  0.00    -0.386 OA
ATOM      9  H   UNL     1       8.649   2.294  20.718  0.00  0.00    +0.210 HD
ENDBRANCH   6   8
BRANCH   5  10
ATOM     10  O   UNL     1       6.576   1.215  22.359  0.00  0.00    -0.383 OA
ATOM     11  H   UNL     1       6.005   1.210  23.146  0.00  0.00    +0.210 HD
ENDBRANCH   5  10
BRANCH   7  12
ATOM     12  O   UNL     1       8.583   3.217  22.653  0.00  0.00    -0.340 OA
BRANCH  12  13
ATOM     13  C   UNL     1       8.734   4.304  23.570  0.00  0.00    +0.282 C 
ATOM     14  O   UNL     1       7.740   4.257  24.604  0.00  0.00    -0.339 OA
ATOM     15  C   UNL     1       6.384   4.374  24.140  0.00  0.00    +0.190 C 
ATOM     16  C   UNL     1       6.184   5.657  23.311  0.00  0.00    +0.178 C 
ATOM     17  C   UNL     1       7.263   5.795  22.233  0.00  0.00    +0.179 C 
ATOM     18  C   UNL     1       8.663   5.660  22.850  0.00  0.00    +0.201 C 
BRANCH  18  19
ATOM     19  O   UNL     1       8.929   6.758  23.736  0.00  0.00    -0.384 OA
ATOM     20  H   UNL     1       9.411   7.429  23.201  0.00  0.00    +0.210 HD
ENDBRANCH  18  19
BRANCH  17  21
ATOM     21  O   UNL     1       7.131   7.079  21.601  0.00  0.00    -0.386 OA
ATOM     22  H   UNL     1       7.628   7.026  20.760  0.00  0.00    +0.210 HD
ENDBRANCH  17  21
BRANCH  16  23
ATOM     23  O   UNL     1       6.265   6.817  24.162  0.00  0.00    -0.386 OA
ATOM     24  H   UNL     1       5.577   6.677  24.846  0.00  0.00    +0.210 HD
ENDBRANCH  16  23
BRANCH  15  25
ATOM     25  C   UNL     1       5.459   4.404  25.371  0.00  0.00    +0.266 C 
BRANCH  25  26
ATOM     26  O   UNL     1       5.447   3.156  26.086  0.00  0.00    -0.462 OA
BRANCH  26  27
ATOM     27  C   UNL     1       4.532   2.246  25.666  0.00  0.00    +0.304 C 
ATOM     28  C   UNL     1       3.210   2.487  26.331  0.00  0.00    +0.136 C 
ATOM     29  O   UNL     1       4.735   1.369  24.840  0.00  0.00    -0.251 OA
ENDBRANCH  26  27
ENDBRANCH  25  26
ENDBRANCH  15  25
ENDBRANCH  12  13
ENDBRANCH   7  12
BRANCH   4  30
ATOM     30  O   UNL     1       8.397  -1.008  24.547  0.00  0.00    -0.453 OA
BRANCH  30  31
ATOM     31  C   UNL     1       7.579  -2.078  24.844  0.00  0.00    +0.214 A 
ATOM     32  C   UNL     1       7.892  -3.257  23.964  0.00  0.00    +0.238 A 
ATOM     33  O   UNL     1       8.926  -3.285  23.305  0.00  0.00    -0.283 OA
ATOM     34  C   UNL     1       6.913  -4.360  23.935  0.00  0.00    +0.109 A 
ATOM     35  C   UNL     1       5.910  -4.345  24.902  0.00  0.00    +0.147 A 
ATOM     36  C   UNL     1       4.947  -5.355  24.943  0.00  0.00    +0.092 A 
ATOM     37  C   UNL     1       4.999  -6.379  24.001  0.00  0.00    +0.124 A 
ATOM     38  C   UNL     1       5.989  -6.410  23.023  0.00  0.00    +0.091 A 
ATOM     39  O   UNL     1       5.815  -3.378  25.868  0.00  0.00    -0.451 OA
ATOM     40  C   UNL     1       6.950  -5.400  22.993  0.00  0.00    +0.135 A 
ATOM     41  C   UNL     1       6.598  -2.226  25.772  0.00  0.00    +0.181 A 
BRANCH  41  42
ATOM     42  C   UNL     1       6.166  -1.259  26.830  0.00  0.00    +0.025 A 
ATOM     43  C   UNL     1       4.855  -1.296  27.352  0.00  0.00    +0.015 A 
ATOM     44  C   UNL     1       4.445  -0.405  28.358  0.00  0.00    +0.050 A 
ATOM     45  C   UNL     1       5.349   0.515  28.862  0.00  0.00    +0.158 A 
ATOM     46  C   UNL     1       6.639   0.585  28.348  0.00  0.00    +0.159 A 
ATOM     47  C   UNL     1       7.058  -0.297  27.344  0.00  0.00    +0.060 A 
BRANCH  46  48
ATOM     48  O   UNL     1       7.463   1.554  28.859  0.00  0.00    -0.503 OA
ATOM     49  H   UNL     1       7.281   1.632  29.811  0.00  0.00    +0.292 HD
ENDBRANCH  46  48
BRANCH  45  50
ATOM     50  O   UNL     1       4.959   1.358  29.866  0.00  0.00    -0.503 OA
ATOM     51  H   UNL     1       5.336   0.967  30.680  0.00  0.00    +0.292 HD
ENDBRANCH  45  50
ENDBRANCH  41  42
BRANCH  40  52
ATOM     52  O   UNL     1       7.904  -5.442  22.018  0.00  0.00    -0.506 OA
ATOM     53  H   UNL     1       8.352  -4.585  21.944  0.00  0.00    +0.292 HD
ENDBRANCH  40  52
BRANCH  37  54
ATOM     54  O   UNL     1       4.071  -7.374  23.982  0.00  0.00    -0.507 OA
ATOM     55  H   UNL     1       3.260  -7.064  24.425  0.00  0.00    +0.292 HD
ENDBRANCH  37  54
ENDBRANCH  30  31
ENDBRANCH   4  30
TORSDOF 17
ENDMDL
MODEL 2
REMARK VINA RESULT:      -6.9      2.045      8.209
REMARK  Name = 
REMARK  19 active torsions:
REMARK  status: ('A' for Active; 'I' for Inactive)
REMARK    1  A    between atoms: C_1  and  C_2
REMARK    2  A    between atoms: C_3  and  O_35
REMARK    3  A    between atoms: C_5  and  O_34
REMARK    4  A    between atoms: C_6  and  O_33
REMARK    5  A    between atoms: C_8  and  O_11
REMARK    6  A    between atoms: O_11  and  C_12
REMARK    7  A    between atoms: C_13  and  C_25
REMARK    8  A    between atoms: C_17  and  O_24
REMARK    9  A    between atoms: C_19  and  O_23
REMARK   10  A    between atoms: C_27  and  O_32
REMARK   11  A    between atoms: C_28  and  O_31
REMARK   12  A    between atoms: O_35  and  C_36
REMARK   13  A    between atoms: C_38  and  O_52
REMARK   14  A    between atoms: C_40  and  O_51
REMARK   15  A    between atoms: C_41  and  O_50
REMARK   16  A    between atoms: C_43  and  C_45
REMARK   17  A    between atoms: C_45  and  O_46
REMARK   18  A    between atoms: O_46  and  C_47
REMARK   19  A    between atoms: C_47  and  C_49
REMARK                            x       y       z     vdW  Elec       q    Type
REMARK                         _______ _______ _______ _____ _____    ______ ____
ROOT
ATOM      1  C   UNL     1       8.686  -2.026  22.193  0.00  0.00    +0.041 C 
ATOM      2  C   UNL     1       7.648  -2.699  23.090  0.00  0.00    +0.151 C 
ATOM      3  O   UNL     1       7.134  -1.869  24.122  0.00  0.00    -0.334 OA
ATOM      4  C   UNL     1       7.978  -1.627  25.246  0.00  0.00    +0.339 C 
ATOM      5  C   UNL     1       8.678  -2.857  25.842  0.00  0.00    +0.214 C 
ATOM      6  C   UNL     1       9.164  -3.812  24.759  0.00  0.00    +0.180 C 
ATOM      7  C   UNL     1       8.103  -4.043  23.670  0.00  0.00    +0.181 C 
ENDROOT
BRANCH   6   8
ATOM      8  O   UNL     1       9.508  -5.070  25.361  0.00  0.00    -0.386 OA
ATOM      9  H   UNL     1       8.651  -5.527  25.481  0.00  0.00    +0.210 HD
ENDBRANCH   6   8
BRANCH   5  10
ATOM     10  O   UNL     1       7.758  -3.536  26.721  0.00  0.00    -0.383 OA
ATOM     11  H   UNL     1       8.221  -4.325  27.050  0.00  0.00    +0.210 HD
ENDBRANCH   5  10
BRANCH   7  12
ATOM     12  O   UNL     1       7.010  -4.786  24.272  0.00  0.00    -0.340 OA
BRANCH  12  13
ATOM     13  C   UNL     1       5.694  -4.361  23.907  0.00  0.00    +0.282 C 
ATOM     14  O   UNL     1       4.979  -3.846  25.039  0.00  0.00    -0.339 OA
ATOM     15  C   UNL     1       4.762  -4.795  26.096  0.00  0.00    +0.190 C 
ATOM     16  C   UNL     1       4.041  -6.055  25.580  0.00  0.00    +0.178 C 
ATOM     17  C   UNL     1       4.723  -6.610  24.326  0.00  0.00    +0.179 C 
ATOM     18  C   UNL     1       4.891  -5.508  23.271  0.00  0.00    +0.201 C 
BRANCH  18  19
ATOM     19  O   UNL     1       3.610  -5.071  22.793  0.00  0.00    -0.384 OA
ATOM     20  H   UNL     1       3.141  -4.698  23.573  0.00  0.00    +0.210 HD
ENDBRANCH  18  19
BRANCH  17  21
ATOM     21  O   UNL     1       3.922  -7.678  23.793  0.00  0.00    -0.386 OA
ATOM     22  H   UNL     1       3.097  -7.267  23.465  0.00  0.00    +0.210 HD
ENDBRANCH  17  21
BRANCH  16  23
ATOM     23  O   UNL     1       2.677  -5.741  25.235  0.00  0.00    -0.386 OA
ATOM     24  H   UNL     1       2.184  -6.576  25.373  0.00  0.00    +0.210 HD
ENDBRANCH  16  23
BRANCH  15  25
ATOM     25  C   UNL     1       3.904  -4.116  27.180  0.00  0.00    +0.266 C 
BRANCH  25  26
ATOM     26  O   UNL     1       4.635  -3.878  28.397  0.00  0.00    -0.462 OA
BRANCH  26  27
ATOM     27  C   UNL     1       5.234  -4.965  28.945  0.00  0.00    +0.304 C 
ATOM     28  C   UNL     1       4.221  -5.833  29.630  0.00  0.00    +0.136 C 
ATOM     29  O   UNL     1       6.426  -5.226  28.874  0.00  0.00    -0.251 OA
ENDBRANCH  26  27
ENDBRANCH  25  26
ENDBRANCH  15  25
ENDBRANCH  12  13
ENDBRANCH   7  12
BRANCH   4  30
ATOM     30  O   UNL     1       8.905  -0.610  24.941  0.00  0.00    -0.453 OA
BRANCH  30  31
ATOM     31  C   UNL     1       8.510   0.710  24.994  0.00  0.00    +0.214 A 
ATOM     32  C   UNL     1       9.352   1.563  24.085  0.00  0.00    +0.238 A 
ATOM     33  O   UNL     1      10.071   1.046  23.236  0.00  0.00    -0.283 OA
ATOM     34  C   UNL     1       9.269   3.026  24.259  0.00  0.00    +0.109 A 
ATOM     35  C   UNL     1       8.245   3.513  25.067  0.00  0.00    +0.147 A 
ATOM     36  C   UNL     1       8.098   4.884  25.280  0.00  0.00    +0.092 A 
ATOM     37  C   UNL     1       8.994   5.763  24.674  0.00  0.00    +0.124 A 
ATOM     38  C   UNL     1      10.028   5.297  23.868  0.00  0.00    +0.091 A 
ATOM     39  O   UNL     1       7.321   2.703  25.674  0.00  0.00    -0.451 OA
ATOM     40  C   UNL     1      10.163   3.925  23.657  0.00  0.00    +0.135 A 
ATOM     41  C   UNL     1       7.518   1.322  25.692  0.00  0.00    +0.181 A 
BRANCH  41  42
ATOM     42  C   UNL     1       6.482   0.698  26.574  0.00  0.00    +0.025 A 
ATOM     43  C   UNL     1       6.684   0.595  27.968  0.00  0.00    +0.015 A 
ATOM     44  C   UNL     1       5.709   0.029  28.806  0.00  0.00    +0.050 A 
ATOM     45  C   UNL     1       4.519  -0.422  28.259  0.00  0.00    +0.158 A 
ATOM     46  C   UNL     1       4.307  -0.352  26.887  0.00  0.00    +0.159 A 
ATOM     47  C   UNL     1       5.272   0.210  26.042  0.00  0.00    +0.060 A 
BRANCH  46  48
ATOM     48  O   UNL     1       3.127  -0.863  26.411  0.00  0.00    -0.503 OA
ATOM     49  H   UNL     1       3.286  -1.785  26.143  0.00  0.00    +0.292 HD
ENDBRANCH  46  48
BRANCH  45  50
ATOM     50  O   UNL     1       3.557  -0.941  29.082  0.00  0.00    -0.503 OA
ATOM     51  H   UNL     1       2.768  -0.385  28.923  0.00  0.00    +0.292 HD
ENDBRANCH  45  50
ENDBRANCH  41  42
BRANCH  40  52
ATOM     52  O   UNL     1      11.192   3.489  22.873  0.00  0.00    -0.506 OA
ATOM     53  H   UNL     1      12.021   3.920  23.132  0.00  0.00    +0.292 HD
ENDBRANCH  40  52
BRANCH  37  54
ATOM     54  O   UNL     1       8.909   7.108  24.868  0.00  0.00    -0.507 OA
ATOM     55  H   UNL     1       9.807   7.484  24.900  0.00  0.00    +0.292 HD
ENDBRANCH  37  54
ENDBRANCH  30  31
ENDBRANCH   4  30
TORSDOF 17
ENDMDL
MODEL 3
REMARK VINA RESULT:      -6.9      2.578      8.760
REMARK  Name = 
REMARK  19 active torsions:
REMARK  status: ('A' for Active; 'I' for Inactive)
REMARK    1  A    between atoms: C_1  and  C_2
REMARK    2  A    between atoms: C_3  and  O_35
REMARK    3  A    between atoms: C_5  and  O_34
REMARK    4  A    between atoms: C_6  and  O_33
REMARK    5  A    between atoms: C_8  and  O_11
REMARK    6  A    between atoms: O_11  and  C_12
REMARK    7  A    between atoms: C_13  and  C_25
REMARK    8  A    between atoms: C_17  and  O_24
REMARK    9  A    between atoms: C_19  and  O_23
REMARK   10  A    between atoms: C_27  and  O_32
REMARK   11  A    between atoms: C_28  and  O_31
REMARK   12  A    between atoms: O_35  and  C_36
REMARK   13  A    between atoms: C_38  and  O_52
REMARK   14  A    between atoms: C_40  and  O_51
REMARK   15  A    between atoms: C_41  and  O_50
REMARK   16  A    between atoms: C_43  and  C_45
REMARK   17  A    between atoms: C_45  and  O_46
REMARK   18  A    between atoms: O_46  and  C_47
REMARK   19  A    between atoms: C_47  and  C_49
REMARK                            x       y       z     vdW  Elec       q    Type
REMARK                         _______ _______ _______ _____ _____    ______ ____
ROOT
ATOM      1  C   UNL     1       6.750   0.201  27.715  0.00  0.00    +0.041 C 
ATOM      2  C   UNL     1       7.707  -0.371  26.672  0.00  0.00    +0.151 C 
ATOM      3  O   UNL     1       8.643   0.564  26.154  0.00  0.00    -0.334 OA
ATOM      4  C   UNL     1       8.158   1.521  25.214  0.00  0.00    +0.339 C 
ATOM      5  C   UNL     1       7.268   0.972  24.090  0.00  0.00    +0.214 C 
ATOM      6  C   UNL     1       6.311  -0.100  24.598  0.00  0.00    +0.180 C 
ATOM      7  C   UNL     1       7.009  -1.110  25.523  0.00  0.00    +0.181 C 
ENDROOT
BRANCH   6   8
ATOM      8  O   UNL     1       5.745  -0.796  23.475  0.00  0.00    -0.386 OA
ATOM      9  H   UNL     1       4.941  -1.223  23.833  0.00  0.00    +0.210 HD
ENDBRANCH   6   8
BRANCH   5  10
ATOM     10  O   UNL     1       8.110   0.429  23.052  0.00  0.00    -0.383 OA
ATOM     11  H   UNL     1       7.514   0.070  22.373  0.00  0.00    +0.210 HD
ENDBRANCH   5  10
BRANCH   7  12
ATOM     12  O   UNL     1       7.936  -1.880  24.714  0.00  0.00    -0.340 OA
BRANCH  12  13
ATOM     13  C   UNL     1       7.497  -3.188  24.340  0.00  0.00    +0.282 C 
ATOM     14  O   UNL     1       6.651  -3.763  25.347  0.00  0.00    -0.339 OA
ATOM     15  C   UNL     1       7.282  -3.954  26.625  0.00  0.00    +0.190 C 
ATOM     16  C   UNL     1       8.558  -4.807  26.498  0.00  0.00    +0.178 C 
ATOM     17  C   UNL     1       9.470  -4.280  25.386  0.00  0.00    +0.179 C 
ATOM     18  C   UNL     1       8.686  -4.125  24.074  0.00  0.00    +0.201 C 
BRANCH  18  19
ATOM     19  O   UNL     1       8.267  -5.408  23.586  0.00  0.00    -0.384 OA
ATOM     20  H   UNL     1       7.339  -5.292  23.281  0.00  0.00    +0.210 HD
ENDBRANCH  18  19
BRANCH  17  21
ATOM     21  O   UNL     1      10.558  -5.199  25.198  0.00  0.00    -0.386 OA
ATOM     22  H   UNL     1      11.348  -4.777  25.590  0.00  0.00    +0.210 HD
ENDBRANCH  17  21
BRANCH  16  23
ATOM     23  O   UNL     1       8.216  -6.170  26.174  0.00  0.00    -0.386 OA
ATOM     24  H   UNL     1       7.510  -6.410  26.808  0.00  0.00    +0.210 HD
ENDBRANCH  16  23
BRANCH  15  25
ATOM     25  C   UNL     1       6.277  -4.663  27.553  0.00  0.00    +0.266 C 
BRANCH  25  26
ATOM     26  O   UNL     1       6.919  -5.525  28.509  0.00  0.00    -0.462 OA
BRANCH  26  27
ATOM     27  C   UNL     1       6.112  -6.427  29.122  0.00  0.00    +0.304 C 
ATOM     28  C   UNL     1       5.596  -5.875  30.417  0.00  0.00    +0.136 C 
ATOM     29  O   UNL     1       5.816  -7.526  28.678  0.00  0.00    -0.251 OA
ENDBRANCH  26  27
ENDBRANCH  25  26
ENDBRANCH  15  25
ENDBRANCH  12  13
ENDBRANCH   7  12
BRANCH   4  30
ATOM     30  O   UNL     1       7.527   2.584  25.892  0.00  0.00    -0.453 OA
BRANCH  30  31
ATOM     31  C   UNL     1       6.909   3.581  25.169  0.00  0.00    +0.214 A 
ATOM     32  C   UNL     1       5.416   3.390  25.152  0.00  0.00    +0.238 A 
ATOM     33  O   UNL     1       4.881   2.608  25.930  0.00  0.00    -0.283 OA
ATOM     34  C   UNL     1       4.643   4.178  24.174  0.00  0.00    +0.109 A 
ATOM     35  C   UNL     1       5.310   5.212  23.520  0.00  0.00    +0.147 A 
ATOM     36  C   UNL     1       4.648   6.005  22.582  0.00  0.00    +0.092 A 
ATOM     37  C   UNL     1       3.307   5.747  22.304  0.00  0.00    +0.124 A 
ATOM     38  C   UNL     1       2.624   4.716  22.941  0.00  0.00    +0.091 A 
ATOM     39  O   UNL     1       6.621   5.528  23.763  0.00  0.00    -0.451 OA
ATOM     40  C   UNL     1       3.293   3.933  23.881  0.00  0.00    +0.135 A 
ATOM     41  C   UNL     1       7.413   4.662  24.518  0.00  0.00    +0.181 A 
BRANCH  41  42
ATOM     42  C   UNL     1       8.831   5.137  24.468  0.00  0.00    +0.025 A 
ATOM     43  C   UNL     1       9.250   6.248  25.233  0.00  0.00    +0.015 A 
ATOM     44  C   UNL     1      10.583   6.691  25.208  0.00  0.00    +0.050 A 
ATOM     45  C   UNL     1      11.510   6.014  24.433  0.00  0.00    +0.158 A 
ATOM     46  C   UNL     1      11.117   4.931  23.655  0.00  0.00    +0.159 A 
ATOM     47  C   UNL     1       9.791   4.483  23.671  0.00  0.00    +0.060 A 
BRANCH  46  48
ATOM     48  O   UNL     1      12.078   4.342  22.874  0.00  0.00    -0.503 OA
ATOM     49  H   UNL     1      12.931   4.425  23.334  0.00  0.00    +0.292 HD
ENDBRANCH  46  48
BRANCH  45  50
ATOM     50  O   UNL     1      12.815   6.425  24.437  0.00  0.00    -0.503 OA
ATOM     51  H   UNL     1      12.915   6.929  25.269  0.00  0.00    +0.292 HD
ENDBRANCH  45  50
ENDBRANCH  41  42
BRANCH  40  52
ATOM     52  O   UNL     1       2.607   2.919  24.484  0.00  0.00    -0.506 OA
ATOM     53  H   UNL     1       1.657   2.998  24.305  0.00  0.00    +0.292 HD
ENDBRANCH  40  52
BRANCH  37  54
ATOM     54  O   UNL     1       2.621   6.475  21.381  0.00  0.00    -0.507 OA
ATOM     55  H   UNL     1       1.872   6.921  21.816  0.00  0.00    +0.292 HD
ENDBRANCH  37  54
ENDBRANCH  30  31
ENDBRANCH   4  30
TORSDOF 17
ENDMDL
MODEL 4
REMARK VINA RESULT:      -6.8      1.902      9.259
REMARK  Name = 
REMARK  19 active torsions:
REMARK  status: ('A' for Active; 'I' for Inactive)
REMARK    1  A    between atoms: C_1  and  C_2
REMARK    2  A    between atoms: C_3  and  O_35
REMARK    3  A    between atoms: C_5  and  O_34
REMARK    4  A    between atoms: C_6  and  O_33
REMARK    5  A    between atoms: C_8  and  O_11
REMARK    6  A    between atoms: O_11  and  C_12
REMARK    7  A    between atoms: C_13  and  C_25
REMARK    8  A    between atoms: C_17  and  O_24
REMARK    9  A    between atoms: C_19  and  O_23
REMARK   10  A    between atoms: C_27  and  O_32
REMARK   11  A    between atoms: C_28  and  O_31
REMARK   12  A    between atoms: O_35  and  C_36
REMARK   13  A    between atoms: C_38  and  O_52
REMARK   14  A    between atoms: C_40  and  O_51
REMARK   15  A    between atoms: C_41  and  O_50
REMARK   16  A    between atoms: C_43  and  C_45
REMARK   17  A    between atoms: C_45  and  O_46
REMARK   18  A    between atoms: O_46  and  C_47
REMARK   19  A    between atoms: C_47  and  C_49
REMARK                            x       y       z     vdW  Elec       q    Type
REMARK                         _______ _______ _______ _____ _____    ______ ____
ROOT
ATOM      1  C   UNL     1       8.277  -1.440  26.816  0.00  0.00    +0.041 C 
ATOM      2  C   UNL     1       7.175  -2.148  26.032  0.00  0.00    +0.151 C 
ATOM      3  O   UNL     1       6.515  -1.331  25.075  0.00  0.00    -0.334 OA
ATOM      4  C   UNL     1       5.578  -0.376  25.568  0.00  0.00    +0.339 C 
ATOM      5  C   UNL     1       4.582  -0.886  26.619  0.00  0.00    +0.214 C 
ATOM      6  C   UNL     1       5.242  -1.837  27.610  0.00  0.00    +0.180 C 
ATOM      7  C   UNL     1       6.145  -2.867  26.912  0.00  0.00    +0.181 C 
ENDROOT
BRANCH   6   8
ATOM      8  O   UNL     1       4.222  -2.525  28.352  0.00  0.00    -0.386 OA
ATOM      9  H   UNL     1       4.652  -2.759  29.199  0.00  0.00    +0.210 HD
ENDBRANCH   6   8
BRANCH   5  10
ATOM     10  O   UNL     1       3.495  -1.553  25.944  0.00  0.00    -0.383 OA
ATOM     11  H   UNL     1       2.935  -0.855  25.565  0.00  0.00    +0.210 HD
ENDBRANCH   5  10
BRANCH   7  12
ATOM     12  O   UNL     1       5.289  -3.758  26.150  0.00  0.00    -0.340 OA
BRANCH  12  13
ATOM     13  C   UNL     1       5.660  -5.139  26.164  0.00  0.00    +0.282 C 
ATOM     14  O   UNL     1       6.027  -5.594  24.853  0.00  0.00    -0.339 OA
ATOM     15  C   UNL     1       4.975  -5.521  23.875  0.00  0.00    +0.190 C 
ATOM     16  C   UNL     1       3.723  -6.289  24.339  0.00  0.00    +0.178 C 
ATOM     17  C   UNL     1       3.326  -5.893  25.764  0.00  0.00    +0.179 C 
ATOM     18  C   UNL     1       4.526  -6.019  26.714  0.00  0.00    +0.201 C 
BRANCH  18  19
ATOM     19  O   UNL     1       4.921  -7.393  26.844  0.00  0.00    -0.384 OA
ATOM     20  H   UNL     1       5.860  -7.379  27.139  0.00  0.00    +0.210 HD
ENDBRANCH  18  19
BRANCH  17  21
ATOM     21  O   UNL     1       2.261  -6.750  26.208  0.00  0.00    -0.386 OA
ATOM     22  H   UNL     1       2.478  -7.009  27.126  0.00  0.00    +0.210 HD
ENDBRANCH  17  21
BRANCH  16  23
ATOM     23  O   UNL     1       3.980  -7.708  24.335  0.00  0.00    -0.386 OA
ATOM     24  H   UNL     1       4.896  -7.799  24.668  0.00  0.00    +0.210 HD
ENDBRANCH  16  23
BRANCH  15  25
ATOM     25  C   UNL     1       5.500  -6.133  22.563  0.00  0.00    +0.266 C 
BRANCH  25  26
ATOM     26  O   UNL     1       6.670  -5.458  22.066  0.00  0.00    -0.462 OA
BRANCH  26  27
ATOM     27  C   UNL     1       6.506  -4.148  21.754  0.00  0.00    +0.304 C 
ATOM     28  C   UNL     1       7.556  -3.314  22.423  0.00  0.00    +0.136 C 
ATOM     29  O   UNL     1       5.646  -3.702  21.009  0.00  0.00    -0.251 OA
ENDBRANCH  26  27
ENDBRANCH  25  26
ENDBRANCH  15  25
ENDBRANCH  12  13
ENDBRANCH   7  12
BRANCH   4  30
ATOM     30  O   UNL     1       6.258   0.772  26.024  0.00  0.00    -0.453 OA
BRANCH  30  31
ATOM     31  C   UNL     1       6.432   1.843  25.173  0.00  0.00    +0.214 A 
ATOM     32  C   UNL     1       5.549   2.996  25.567  0.00  0.00    +0.238 A 
ATOM     33  O   UNL     1       5.000   3.012  26.664  0.00  0.00    -0.283 OA
ATOM     34  C   UNL     1       5.382   4.088  24.590  0.00  0.00    +0.109 A 
ATOM     35  C   UNL     1       6.240   4.095  23.493  0.00  0.00    +0.147 A 
ATOM     36  C   UNL     1       6.147   5.096  22.524  0.00  0.00    +0.092 A 
ATOM     37  C   UNL     1       5.181   6.089  22.667  0.00  0.00    +0.124 A 
ATOM     38  C   UNL     1       4.310   6.097  23.753  0.00  0.00    +0.091 A 
ATOM     39  O   UNL     1       7.223   3.159  23.304  0.00  0.00    -0.451 OA
ATOM     40  C   UNL     1       4.414   5.096  24.718  0.00  0.00    +0.135 A 
ATOM     41  C   UNL     1       7.248   2.013  24.100  0.00  0.00    +0.181 A 
BRANCH  41  42
ATOM     42  C   UNL     1       8.287   1.078  23.567  0.00  0.00    +0.025 A 
ATOM     43  C   UNL     1       9.328   0.603  24.395  0.00  0.00    +0.015 A 
ATOM     44  C   UNL     1      10.297  -0.290  23.909  0.00  0.00    +0.050 A 
ATOM     45  C   UNL     1      10.222  -0.729  22.597  0.00  0.00    +0.158 A 
ATOM     46  C   UNL     1       9.219  -0.259  21.757  0.00  0.00    +0.159 A 
ATOM     47  C   UNL     1       8.249   0.632  22.230  0.00  0.00    +0.060 A 
BRANCH  46  48
ATOM     48  O   UNL     1       9.237  -0.697  20.458  0.00  0.00    -0.503 OA
ATOM     49  H   UNL     1      10.013  -0.307  20.020  0.00  0.00    +0.292 HD
ENDBRANCH  46  48
BRANCH  45  50
ATOM     50  O   UNL     1      11.146  -1.626  22.136  0.00  0.00    -0.503 OA
ATOM     51  H   UNL     1      10.652  -2.192  21.509  0.00  0.00    +0.292 HD
ENDBRANCH  45  50
ENDBRANCH  41  42
BRANCH  40  52
ATOM     52  O   UNL     1       3.542   5.115  25.767  0.00  0.00    -0.506 OA
ATOM     53  H   UNL     1       3.505   6.001  26.161  0.00  0.00    +0.292 HD
ENDBRANCH  40  52
BRANCH  37  54
ATOM     54  O   UNL     1       5.033   7.074  21.739  0.00  0.00    -0.507 OA
ATOM     55  H   UNL     1       5.260   6.722  20.860  0.00  0.00    +0.292 HD
ENDBRANCH  37  54
ENDBRANCH  30  31
ENDBRANCH   4  30
TORSDOF 17
ENDMDL
MODEL 5
REMARK VINA RESULT:      -6.7      2.105      5.231
REMARK  Name = 
REMARK  19 active torsions:
REMARK  status: ('A' for Active; 'I' for Inactive)
REMARK    1  A    between atoms: C_1  and  C_2
REMARK    2  A    between atoms: C_3  and  O_35
REMARK    3  A    between atoms: C_5  and  O_34
REMARK    4  A    between atoms: C_6  and  O_33
REMARK    5  A    between atoms: C_8  and  O_11
REMARK    6  A    between atoms: O_11  and  C_12
REMARK    7  A    between atoms: C_13  and  C_25
REMARK    8  A    between atoms: C_17  and  O_24
REMARK    9  A    between atoms: C_19  and  O_23
REMARK   10  A    between atoms: C_27  and  O_32
REMARK   11  A    between atoms: C_28  and  O_31
REMARK   12  A    between atoms: O_35  and  C_36
REMARK   13  A    between atoms: C_38  and  O_52
REMARK   14  A    between atoms: C_40  and  O_51
REMARK   15  A    between atoms: C_41  and  O_50
REMARK   16  A    between atoms: C_43  and  C_45
REMARK   17  A    between atoms: C_45  and  O_46
REMARK   18  A    between atoms: O_46  and  C_47
REMARK   19  A    between atoms: C_47  and  C_49
REMARK                            x       y       z     vdW  Elec       q    Type
REMARK                         _______ _______ _______ _____ _____    ______ ____
ROOT
ATOM      1  C   UNL     1       3.445   0.810  27.120  0.00  0.00    +0.041 C 
ATOM      2  C   UNL     1       4.679   1.324  26.382  0.00  0.00    +0.151 C 
ATOM      3  O   UNL     1       5.123   0.489  25.321  0.00  0.00    -0.334 OA
ATOM      4  C   UNL     1       5.811  -0.708  25.678  0.00  0.00    +0.339 C 
ATOM      5  C   UNL     1       6.905  -0.567  26.745  0.00  0.00    +0.214 C 
ATOM      6  C   UNL     1       6.493   0.394  27.854  0.00  0.00    +0.180 C 
ATOM      7  C   UNL     1       5.854   1.679  27.301  0.00  0.00    +0.181 C 
ENDROOT
BRANCH   6   8
ATOM      8  O   UNL     1       7.651   0.736  28.634  0.00  0.00    -0.386 OA
ATOM      9  H   UNL     1       7.604   1.709  28.726  0.00  0.00    +0.210 HD
ENDBRANCH   6   8
BRANCH   5  10
ATOM     10  O   UNL     1       8.114  -0.100  26.113  0.00  0.00    -0.383 OA
ATOM     11  H   UNL     1       7.921   0.789  25.770  0.00  0.00    +0.210 HD
ENDBRANCH   5  10
BRANCH   7  12
ATOM     12  O   UNL     1       6.892   2.425  26.614  0.00  0.00    -0.340 OA
BRANCH  12  13
ATOM     13  C   UNL     1       6.445   3.295  25.570  0.00  0.00    +0.282 C 
ATOM     14  O   UNL     1       7.394   3.349  24.494  0.00  0.00    -0.339 OA
ATOM     15  C   UNL     1       8.684   3.868  24.857  0.00  0.00    +0.190 C 
ATOM     16  C   UNL     1       8.568   5.266  25.493  0.00  0.00    +0.178 C 
ATOM     17  C   UNL     1       7.515   5.284  26.605  0.00  0.00    +0.179 C 
ATOM     18  C   UNL     1       6.183   4.715  26.096  0.00  0.00    +0.201 C 
BRANCH  18  19
ATOM     19  O   UNL     1       5.624   5.571  25.088  0.00  0.00    -0.384 OA
ATOM     20  H   UNL     1       6.093   6.432  25.172  0.00  0.00    +0.210 HD
ENDBRANCH  18  19
BRANCH  17  21
ATOM     21  O   UNL     1       7.328   6.638  27.051  0.00  0.00    -0.386 OA
ATOM     22  H   UNL     1       6.542   6.632  27.633  0.00  0.00    +0.210 HD
ENDBRANCH  17  21
BRANCH  16  23
ATOM     23  O   UNL     1       8.172   6.234  24.500  0.00  0.00    -0.386 OA
ATOM     24  H   UNL     1       8.808   6.972  24.601  0.00  0.00    +0.210 HD
ENDBRANCH  16  23
BRANCH  15  25
ATOM     25  C   UNL     1       9.542   3.951  23.580  0.00  0.00    +0.266 C 
BRANCH  25  26
ATOM     26  O   UNL     1      10.640   3.022  23.589  0.00  0.00    -0.462 OA
BRANCH  26  27
ATOM     27  C   UNL     1      10.318   1.727  23.343  0.00  0.00    +0.304 C 
ATOM     28  C   UNL     1       9.889   1.556  21.917  0.00  0.00    +0.136 C 
ATOM     29  O   UNL     1      10.390   0.815  24.153  0.00  0.00    -0.251 OA
ENDBRANCH  26  27
ENDBRANCH  25  26
ENDBRANCH  15  25
ENDBRANCH  12  13
ENDBRANCH   7  12
BRANCH   4  30
ATOM     30  O   UNL     1       4.882  -1.709  26.028  0.00  0.00    -0.453 OA
BRANCH  30  31
ATOM     31  C   UNL     1       4.570  -2.697  25.118  0.00  0.00    +0.214 A 
ATOM     32  C   UNL     1       3.146  -3.155  25.284  0.00  0.00    +0.238 A 
ATOM     33  O   UNL     1       2.356  -2.498  25.954  0.00  0.00    -0.283 OA
ATOM     34  C   UNL     1       2.753  -4.407  24.611  0.00  0.00    +0.109 A 
ATOM     35  C   UNL     1       3.644  -4.934  23.679  0.00  0.00    +0.147 A 
ATOM     36  C   UNL     1       3.345  -6.115  22.998  0.00  0.00    +0.092 A 
ATOM     37  C   UNL     1       2.142  -6.764  23.265  0.00  0.00    +0.124 A 
ATOM     38  C   UNL     1       1.241  -6.258  24.197  0.00  0.00    +0.091 A 
ATOM     39  O   UNL     1       4.833  -4.334  23.357  0.00  0.00    -0.451 OA
ATOM     40  C   UNL     1       1.546  -5.075  24.869  0.00  0.00    +0.135 A 
ATOM     41  C   UNL     1       5.307  -3.277  24.136  0.00  0.00    +0.181 A 
BRANCH  41  42
ATOM     42  C   UNL     1       6.697  -2.938  23.694  0.00  0.00    +0.025 A 
ATOM     43  C   UNL     1       6.920  -1.996  22.666  0.00  0.00    +0.015 A 
ATOM     44  C   UNL     1       8.220  -1.657  22.257  0.00  0.00    +0.050 A 
ATOM     45  C   UNL     1       9.306  -2.242  22.886  0.00  0.00    +0.158 A 
ATOM     46  C   UNL     1       9.111  -3.188  23.887  0.00  0.00    +0.159 A 
ATOM     47  C   UNL     1       7.820  -3.535  24.301  0.00  0.00    +0.060 A 
BRANCH  46  48
ATOM     48  O   UNL     1      10.232  -3.763  24.429  0.00  0.00    -0.503 OA
ATOM     49  H   UNL     1      10.523  -4.474  23.833  0.00  0.00    +0.292 HD
ENDBRANCH  46  48
BRANCH  45  50
ATOM     50  O   UNL     1      10.573  -1.884  22.512  0.00  0.00    -0.503 OA
ATOM     51  H   UNL     1      11.073  -2.724  22.492  0.00  0.00    +0.292 HD
ENDBRANCH  45  50
ENDBRANCH  41  42
BRANCH  40  52
ATOM     52  O   UNL     1       0.655  -4.603  25.788  0.00  0.00    -0.506 OA
ATOM     53  H   UNL     1       1.033  -4.645  26.680  0.00  0.00    +0.292 HD
ENDBRANCH  40  52
BRANCH  37  54
ATOM     54  O   UNL     1       1.812  -7.931  22.646  0.00  0.00    -0.507 OA
ATOM     55  H   UNL     1       0.975  -8.264  23.015  0.00  0.00    +0.292 HD
ENDBRANCH  37  54
ENDBRANCH  30  31
ENDBRANCH   4  30
TORSDOF 17
ENDMDL
MODEL 6
REMARK VINA RESULT:      -6.7      2.380      9.278
REMARK  Name = 
REMARK  19 active torsions:
REMARK  status: ('A' for Active; 'I' for Inactive)
REMARK    1  A    between atoms: C_1  and  C_2
REMARK    2  A    between atoms: C_3  and  O_35
REMARK    3  A    between atoms: C_5  and  O_34
REMARK    4  A    between atoms: C_6  and  O_33
REMARK    5  A    between atoms: C_8  and  O_11
REMARK    6  A    between atoms: O_11  and  C_12
REMARK    7  A    between atoms: C_13  and  C_25
REMARK    8  A    between atoms: C_17  and  O_24
REMARK    9  A    between atoms: C_19  and  O_23
REMARK   10  A    between atoms: C_27  and  O_32
REMARK   11  A    between atoms: C_28  and  O_31
REMARK   12  A    between atoms: O_35  and  C_36
REMARK   13  A    between atoms: C_38  and  O_52
REMARK   14  A    between atoms: C_40  and  O_51
REMARK   15  A    between atoms: C_41  and  O_50
REMARK   16  A    between atoms: C_43  and  C_45
REMARK   17  A    between atoms: C_45  and  O_46
REMARK   18  A    between atoms: O_46  and  C_47
REMARK   19  A    between atoms: C_47  and  C_49
REMARK                            x       y       z     vdW  Elec       q    Type
REMARK                         _______ _______ _______ _____ _____    ______ ____
ROOT
ATOM      1  C   UNL     1       8.255  -4.022  26.735  0.00  0.00    +0.041 C 
ATOM      2  C   UNL     1       6.858  -4.110  26.125  0.00  0.00    +0.151 C 
ATOM      3  O   UNL     1       6.340  -2.873  25.656  0.00  0.00    -0.334 OA
ATOM      4  C   UNL     1       5.876  -1.946  26.635  0.00  0.00    +0.339 C 
ATOM      5  C   UNL     1       4.977  -2.522  27.738  0.00  0.00    +0.214 C 
ATOM      6  C   UNL     1       5.456  -3.892  28.202  0.00  0.00    +0.180 C 
ATOM      7  C   UNL     1       5.828  -4.807  27.023  0.00  0.00    +0.181 C 
ENDROOT
BRANCH   6   8
ATOM      8  O   UNL     1       4.421  -4.515  28.979  0.00  0.00    -0.386 OA
ATOM      9  H   UNL     1       4.787  -5.391  29.217  0.00  0.00    +0.210 HD
ENDBRANCH   6   8
BRANCH   5  10
ATOM     10  O   UNL     1       3.627  -2.616  27.237  0.00  0.00    -0.383 OA
ATOM     11  H   UNL     1       3.486  -1.834  26.676  0.00  0.00    +0.210 HD
ENDBRANCH   5  10
BRANCH   7  12
ATOM     12  O   UNL     1       4.603  -5.130  26.314  0.00  0.00    -0.340 OA
BRANCH  12  13
ATOM     13  C   UNL     1       4.563  -6.420  25.698  0.00  0.00    +0.282 C 
ATOM     14  O   UNL     1       5.186  -6.401  24.405  0.00  0.00    -0.339 OA
ATOM     15  C   UNL     1       4.556  -5.533  23.448  0.00  0.00    +0.190 C 
ATOM     16  C   UNL     1       3.064  -5.873  23.278  0.00  0.00    +0.178 C 
ATOM     17  C   UNL     1       2.360  -5.976  24.635  0.00  0.00    +0.179 C 
ATOM     18  C   UNL     1       3.120  -6.934  25.565  0.00  0.00    +0.201 C 
BRANCH  18  19
ATOM     19  O   UNL     1       3.068  -8.275  25.055  0.00  0.00    -0.384 OA
ATOM     20  H   UNL     1       2.933  -8.192  24.084  0.00  0.00    +0.210 HD
ENDBRANCH  18  19
BRANCH  17  21
ATOM     21  O   UNL     1       1.021  -6.454  24.432  0.00  0.00    -0.386 OA
ATOM     22  H   UNL     1       0.428  -5.813  24.873  0.00  0.00    +0.210 HD
ENDBRANCH  17  21
BRANCH  16  23
ATOM     23  O   UNL     1       2.915  -7.142  22.611  0.00  0.00    -0.386 OA
ATOM     24  H   UNL     1       2.936  -7.808  23.328  0.00  0.00    +0.210 HD
ENDBRANCH  16  23
BRANCH  15  25
ATOM     25  C   UNL     1       5.282  -5.703  22.099  0.00  0.00    +0.266 C 
BRANCH  25  26
ATOM     26  O   UNL     1       5.692  -4.448  21.529  0.00  0.00    -0.462 OA
BRANCH  26  27
ATOM     27  C   UNL     1       6.665  -3.785  22.204  0.00  0.00    +0.304 C 
ATOM     28  C   UNL     1       6.289  -2.345  22.386  0.00  0.00    +0.136 C 
ATOM     29  O   UNL     1       7.693  -4.285  22.634  0.00  0.00    -0.251 OA
ENDBRANCH  26  27
ENDBRANCH  25  26
ENDBRANCH  15  25
ENDBRANCH  12  13
ENDBRANCH   7  12
BRANCH   4  30
ATOM     30  O   UNL     1       6.966  -1.240  27.183  0.00  0.00    -0.453 OA
BRANCH  30  31
ATOM     31  C   UNL     1       7.131   0.096  26.884  0.00  0.00    +0.214 A 
ATOM     32  C   UNL     1       6.560   0.967  27.971  0.00  0.00    +0.238 A 
ATOM     33  O   UNL     1       6.270   0.489  29.062  0.00  0.00    -0.283 OA
ATOM     34  C   UNL     1       6.373   2.398  27.665  0.00  0.00    +0.109 A 
ATOM     35  C   UNL     1       6.963   2.881  26.500  0.00  0.00    +0.147 A 
ATOM     36  C   UNL     1       6.833   4.224  26.142  0.00  0.00    +0.092 A 
ATOM     37  C   UNL     1       6.102   5.077  26.965  0.00  0.00    +0.124 A 
ATOM     38  C   UNL     1       5.499   4.612  28.130  0.00  0.00    +0.091 A 
ATOM     39  O   UNL     1       7.711   2.099  25.659  0.00  0.00    -0.451 OA
ATOM     40  C   UNL     1       5.638   3.271  28.482  0.00  0.00    +0.135 A 
ATOM     41  C   UNL     1       7.713   0.714  25.824  0.00  0.00    +0.181 A 
BRANCH  41  42
ATOM     42  C   UNL     1       8.442   0.092  24.673  0.00  0.00    +0.025 A 
ATOM     43  C   UNL     1       8.606   0.792  23.457  0.00  0.00    +0.015 A 
ATOM     44  C   UNL     1       9.304   0.225  22.378  0.00  0.00    +0.050 A 
ATOM     45  C   UNL     1       9.858  -1.037  22.513  0.00  0.00    +0.158 A 
ATOM     46  C   UNL     1       9.691  -1.754  23.693  0.00  0.00    +0.159 A 
ATOM     47  C   UNL     1       8.996  -1.199  24.774  0.00  0.00    +0.060 A 
BRANCH  46  48
ATOM     48  O   UNL     1      10.223  -3.017  23.736  0.00  0.00    -0.503 OA
ATOM     49  H   UNL     1      11.055  -3.009  23.232  0.00  0.00    +0.292 HD
ENDBRANCH  46  48
BRANCH  45  50
ATOM     50  O   UNL     1      10.568  -1.573  21.474  0.00  0.00    -0.503 OA
ATOM     51  H   UNL     1      11.437  -1.125  21.509  0.00  0.00    +0.292 HD
ENDBRANCH  45  50
ENDBRANCH  41  42
BRANCH  40  52
ATOM     52  O   UNL     1       5.028   2.834  29.622  0.00  0.00    -0.506 OA
ATOM     53  H   UNL     1       4.076   3.021  29.591  0.00  0.00    +0.292 HD
ENDBRANCH  40  52
BRANCH  37  54
ATOM     54  O   UNL     1       5.925   6.389  26.649  0.00  0.00    -0.507 OA
ATOM     55  H   UNL     1       5.312   6.457  25.895  0.00  0.00    +0.292 HD
ENDBRANCH  37  54
ENDBRANCH  30  31
ENDBRANCH   4  30
TORSDOF 17
ENDMDL
MODEL 7
REMARK VINA RESULT:      -6.6      2.475      9.245
REMARK  Name = 
REMARK  19 active torsions:
REMARK  status: ('A' for Active; 'I' for Inactive)
REMARK    1  A    between atoms: C_1  and  C_2
REMARK    2  A    between atoms: C_3  and  O_35
REMARK    3  A    between atoms: C_5  and  O_34
REMARK    4  A    between atoms: C_6  and  O_33
REMARK    5  A    between atoms: C_8  and  O_11
REMARK    6  A    between atoms: O_11  and  C_12
REMARK    7  A    between atoms: C_13  and  C_25
REMARK    8  A    between atoms: C_17  and  O_24
REMARK    9  A    between atoms: C_19  and  O_23
REMARK   10  A    between atoms: C_27  and  O_32
REMARK   11  A    between atoms: C_28  and  O_31
REMARK   12  A    between atoms: O_35  and  C_36
REMARK   13  A    between atoms: C_38  and  O_52
REMARK   14  A    between atoms: C_40  and  O_51
REMARK   15  A    between atoms: C_41  and  O_50
REMARK   16  A    between atoms: C_43  and  C_45
REMARK   17  A    between atoms: C_45  and  O_46
REMARK   18  A    between atoms: O_46  and  C_47
REMARK   19  A    between atoms: C_47  and  C_49
REMARK                            x       y       z     vdW  Elec       q    Type
REMARK                         _______ _______ _______ _____ _____    ______ ____
ROOT
ATOM      1  C   UNL     1       5.130   0.122  28.479  0.00  0.00    +0.041 C 
ATOM      2  C   UNL     1       5.078  -1.391  28.280  0.00  0.00    +0.151 C 
ATOM      3  O   UNL     1       5.749  -1.857  27.117  0.00  0.00    -0.334 OA
ATOM      4  C   UNL     1       5.103  -1.650  25.863  0.00  0.00    +0.339 C 
ATOM      5  C   UNL     1       3.612  -2.010  25.804  0.00  0.00    +0.214 C 
ATOM      6  C   UNL     1       2.880  -1.602  27.076  0.00  0.00    +0.180 C 
ATOM      7  C   UNL     1       3.664  -1.981  28.344  0.00  0.00    +0.181 C 
ENDROOT
BRANCH   6   8
ATOM      8  O   UNL     1       1.593  -2.240  27.104  0.00  0.00    -0.386 OA
ATOM      9  H   UNL     1       1.484  -2.529  28.033  0.00  0.00    +0.210 HD
ENDBRANCH   6   8
BRANCH   5  10
ATOM     10  O   UNL     1       3.484  -3.432  25.597  0.00  0.00    -0.383 OA
ATOM     11  H   UNL     1       3.917  -3.627  24.748  0.00  0.00    +0.210 HD
ENDBRANCH   5  10
BRANCH   7  12
ATOM     12  O   UNL     1       3.670  -3.429  28.440  0.00  0.00    -0.340 OA
BRANCH  12  13
ATOM     13  C   UNL     1       4.927  -4.025  28.772  0.00  0.00    +0.282 C 
ATOM     14  O   UNL     1       5.511  -4.678  27.635  0.00  0.00    -0.339 OA
ATOM     15  C   UNL     1       4.735  -5.764  27.102  0.00  0.00    +0.190 C 
ATOM     16  C   UNL     1       4.429  -6.819  28.182  0.00  0.00    +0.178 C 
ATOM     17  C   UNL     1       3.867  -6.169  29.449  0.00  0.00    +0.179 C 
ATOM     18  C   UNL     1       4.783  -5.032  29.924  0.00  0.00    +0.201 C 
BRANCH  18  19
ATOM     19  O   UNL     1       6.052  -5.554  30.348  0.00  0.00    -0.384 OA
ATOM     20  H   UNL     1       5.850  -6.268  30.995  0.00  0.00    +0.210 HD
ENDBRANCH  18  19
BRANCH  17  21
ATOM     21  O   UNL     1       3.755  -7.167  30.476  0.00  0.00    -0.386 OA
ATOM     22  H   UNL     1       4.250  -6.826  31.248  0.00  0.00    +0.210 HD
ENDBRANCH  17  21
BRANCH  16  23
ATOM     23  O   UNL     1       5.635  -7.520  28.548  0.00  0.00    -0.386 OA
ATOM     24  H   UNL     1       5.985  -7.032  29.321  0.00  0.00    +0.210 HD
ENDBRANCH  16  23
BRANCH  15  25
ATOM     25  C   UNL     1       5.542  -6.412  25.960  0.00  0.00    +0.266 C 
BRANCH  25  26
ATOM     26  O   UNL     1       5.067  -6.025  24.658  0.00  0.00    -0.462 OA
BRANCH  26  27
ATOM     27  C   UNL     1       4.050  -6.770  24.157  0.00  0.00    +0.304 C 
ATOM     28  C   UNL     1       3.357  -6.035  23.049  0.00  0.00    +0.136 C 
ATOM     29  O   UNL     1       3.749  -7.894  24.528  0.00  0.00    -0.251 OA
ENDBRANCH  26  27
ENDBRANCH  25  26
ENDBRANCH  15  25
ENDBRANCH  12  13
ENDBRANCH   7  12
BRANCH   4  30
ATOM     30  O   UNL     1       5.328  -0.331  25.419  0.00  0.00    -0.453 OA
BRANCH  30  31
ATOM     31  C   UNL     1       6.564   0.017  24.917  0.00  0.00    +0.214 A 
ATOM     32  C   UNL     1       6.966   1.392  25.376  0.00  0.00    +0.238 A 
ATOM     33  O   UNL     1       6.366   1.942  26.293  0.00  0.00    -0.283 OA
ATOM     34  C   UNL     1       8.100   2.034  24.684  0.00  0.00    +0.109 A 
ATOM     35  C   UNL     1       8.865   1.232  23.840  0.00  0.00    +0.147 A 
ATOM     36  C   UNL     1       9.956   1.764  23.150  0.00  0.00    +0.092 A 
ATOM     37  C   UNL     1      10.270   3.112  23.315  0.00  0.00    +0.124 A 
ATOM     38  C   UNL     1       9.514   3.931  24.149  0.00  0.00    +0.091 A 
ATOM     39  O   UNL     1       8.621  -0.103  23.651  0.00  0.00    -0.451 OA
ATOM     40  C   UNL     1       8.429   3.389  24.837  0.00  0.00    +0.135 A 
ATOM     41  C   UNL     1       7.435  -0.663  24.126  0.00  0.00    +0.181 A 
BRANCH  41  42
ATOM     42  C   UNL     1       7.329  -2.069  23.624  0.00  0.00    +0.025 A 
ATOM     43  C   UNL     1       6.407  -2.408  22.610  0.00  0.00    +0.015 A 
ATOM     44  C   UNL     1       6.314  -3.721  22.118  0.00  0.00    +0.050 A 
ATOM     45  C   UNL     1       7.155  -4.698  22.624  0.00  0.00    +0.158 A 
ATOM     46  C   UNL     1       8.055  -4.393  23.638  0.00  0.00    +0.159 A 
ATOM     47  C   UNL     1       8.156  -3.089  24.136  0.00  0.00    +0.060 A 
BRANCH  46  48
ATOM     48  O   UNL     1       8.819  -5.422  24.125  0.00  0.00    -0.503 OA
ATOM     49  H   UNL     1       9.304  -5.815  23.378  0.00  0.00    +0.292 HD
ENDBRANCH  46  48
BRANCH  45  50
ATOM     50  O   UNL     1       7.087  -5.968  22.119  0.00  0.00    -0.503 OA
ATOM     51  H   UNL     1       8.018  -6.262  22.060  0.00  0.00    +0.292 HD
ENDBRANCH  45  50
ENDBRANCH  41  42
BRANCH  40  52
ATOM     52  O   UNL     1       7.695   4.214  25.639  0.00  0.00    -0.506 OA
ATOM     53  H   UNL     1       8.256   4.910  26.014  0.00  0.00    +0.292 HD
ENDBRANCH  40  52
BRANCH  37  54
ATOM     54  O   UNL     1      11.308   3.685  22.648  0.00  0.00    -0.507 OA
ATOM     55  H   UNL     1      11.691   4.392  23.198  0.00  0.00    +0.292 HD
ENDBRANCH  37  54
ENDBRANCH  30  31
ENDBRANCH   4  30
TORSDOF 17
ENDMDL
MODEL 8
REMARK VINA RESULT:      -6.3      2.364      5.479
REMARK  Name = 
REMARK  19 active torsions:
REMARK  status: ('A' for Active; 'I' for Inactive)
REMARK    1  A    between atoms: C_1  and  C_2
REMARK    2  A    between atoms: C_3  and  O_35
REMARK    3  A    between atoms: C_5  and  O_34
REMARK    4  A    between atoms: C_6  and  O_33
REMARK    5  A    between atoms: C_8  and  O_11
REMARK    6  A    between atoms: O_11  and  C_12
REMARK    7  A    between atoms: C_13  and  C_25
REMARK    8  A    between atoms: C_17  and  O_24
REMARK    9  A    between atoms: C_19  and  O_23
REMARK   10  A    between atoms: C_27  and  O_32
REMARK   11  A    between atoms: C_28  and  O_31
REMARK   12  A    between atoms: O_35  and  C_36
REMARK   13  A    between atoms: C_38  and  O_52
REMARK   14  A    between atoms: C_40  and  O_51
REMARK   15  A    between atoms: C_41  and  O_50
REMARK   16  A    between atoms: C_43  and  C_45
REMARK   17  A    between atoms: C_45  and  O_46
REMARK   18  A    between atoms: O_46  and  C_47
REMARK   19  A    between atoms: C_47  and  C_49
REMARK                            x       y       z     vdW  Elec       q    Type
REMARK                         _______ _______ _______ _____ _____    ______ ____
ROOT
ATOM      1  C   UNL     1       9.530  -0.229  25.380  0.00  0.00    +0.041 C 
ATOM      2  C   UNL     1       8.597   0.980  25.366  0.00  0.00    +0.151 C 
ATOM      3  O   UNL     1       7.535   0.917  26.308  0.00  0.00    -0.334 OA
ATOM      4  C   UNL     1       6.445   0.048  26.006  0.00  0.00    +0.339 C 
ATOM      5  C   UNL     1       5.893   0.129  24.576  0.00  0.00    +0.214 C 
ATOM      6  C   UNL     1       7.005   0.286  23.547  0.00  0.00    +0.180 C 
ATOM      7  C   UNL     1       8.050   1.330  23.977  0.00  0.00    +0.181 C 
ENDROOT
BRANCH   6   8
ATOM      8  O   UNL     1       6.430   0.679  22.290  0.00  0.00    -0.386 OA
ATOM      9  H   UNL     1       6.693  -0.031  21.669  0.00  0.00    +0.210 HD
ENDBRANCH   6   8
BRANCH   5  10
ATOM     10  O   UNL     1       4.982   1.245  24.492  0.00  0.00    -0.383 OA
ATOM     11  H   UNL     1       4.503   1.274  25.338  0.00  0.00    +0.210 HD
ENDBRANCH   5  10
BRANCH   7  12
ATOM     12  O   UNL     1       7.410   2.632  23.944  0.00  0.00    -0.340 OA
BRANCH  12  13
ATOM     13  C   UNL     1       7.932   3.558  22.987  0.00  0.00    +0.282 C 
ATOM     14  O   UNL     1       9.015   4.322  23.537  0.00  0.00    -0.339 OA
ATOM     15  C   UNL     1       8.661   5.141  24.664  0.00  0.00    +0.190 C 
ATOM     16  C   UNL     1       7.501   6.094  24.322  0.00  0.00    +0.178 C 
ATOM     17  C   UNL     1       6.340   5.342  23.665  0.00  0.00    +0.179 C 
ATOM     18  C   UNL     1       6.841   4.511  22.474  0.00  0.00    +0.201 C 
BRANCH  18  19
ATOM     19  O   UNL     1       7.319   5.370  21.429  0.00  0.00    -0.384 OA
ATOM     20  H   UNL     1       6.604   6.027  21.268  0.00  0.00    +0.210 HD
ENDBRANCH  18  19
BRANCH  17  21
ATOM     21  O   UNL     1       5.359   6.293  23.218  0.00  0.00    -0.386 OA
ATOM     22  H   UNL     1       4.901   5.881  22.458  0.00  0.00    +0.210 HD
ENDBRANCH  17  21
BRANCH  16  23
ATOM     23  O   UNL     1       7.944   7.107  23.397  0.00  0.00    -0.386 OA
ATOM     24  H   UNL     1       7.446   6.932  22.572  0.00  0.00    +0.210 HD
ENDBRANCH  16  23
BRANCH  15  25
ATOM     25  C   UNL     1       9.902   5.961  25.066  0.00  0.00    +0.266 C 
BRANCH  25  26
ATOM     26  O   UNL     1      10.758   6.257  23.948  0.00  0.00    -0.462 OA
BRANCH  26  27
ATOM     27  C   UNL     1      12.083   6.054  24.152  0.00  0.00    +0.304 C 
ATOM     28  C   UNL     1      12.662   5.214  23.054  0.00  0.00    +0.136 C 
ATOM     29  O   UNL     1      12.733   6.512  25.081  0.00  0.00    -0.251 OA
ENDBRANCH  26  27
ENDBRANCH  25  26
ENDBRANCH  15  25
ENDBRANCH  12  13
ENDBRANCH   7  12
BRANCH   4  30
ATOM     30  O   UNL     1       6.779  -1.278  26.350  0.00  0.00    -0.453 OA
BRANCH  30  31
ATOM     31  C   UNL     1       5.777  -2.180  26.636  0.00  0.00    +0.214 A 
ATOM     32  C   UNL     1       5.002  -1.758  27.855  0.00  0.00    +0.238 A 
ATOM     33  O   UNL     1       5.115  -0.621  28.300  0.00  0.00    -0.283 OA
ATOM     34  C   UNL     1       4.112  -2.759  28.473  0.00  0.00    +0.109 A 
ATOM     35  C   UNL     1       3.865  -3.923  27.750  0.00  0.00    +0.147 A 
ATOM     36  C   UNL     1       3.033  -4.918  28.266  0.00  0.00    +0.092 A 
ATOM     37  C   UNL     1       2.452  -4.732  29.519  0.00  0.00    +0.124 A 
ATOM     38  C   UNL     1       2.692  -3.579  30.260  0.00  0.00    +0.091 A 
ATOM     39  O   UNL     1       4.389  -4.157  26.505  0.00  0.00    -0.451 OA
ATOM     40  C   UNL     1       3.521  -2.589  29.734  0.00  0.00    +0.135 A 
ATOM     41  C   UNL     1       5.392  -3.323  26.010  0.00  0.00    +0.181 A 
BRANCH  41  42
ATOM     42  C   UNL     1       5.918  -3.905  24.735  0.00  0.00    +0.025 A 
ATOM     43  C   UNL     1       6.918  -4.901  24.752  0.00  0.00    +0.015 A 
ATOM     44  C   UNL     1       7.404  -5.467  23.561  0.00  0.00    +0.050 A 
ATOM     45  C   UNL     1       6.880  -5.055  22.348  0.00  0.00    +0.158 A 
ATOM     46  C   UNL     1       5.910  -4.060  22.305  0.00  0.00    +0.159 A 
ATOM     47  C   UNL     1       5.420  -3.487  23.484  0.00  0.00    +0.060 A 
BRANCH  46  48
ATOM     48  O   UNL     1       5.475  -3.666  21.066  0.00  0.00    -0.503 OA
ATOM     49  H   UNL     1       4.527  -3.457  21.133  0.00  0.00    +0.292 HD
ENDBRANCH  46  48
BRANCH  45  50
ATOM     50  O   UNL     1       7.329  -5.632  21.192  0.00  0.00    -0.503 OA
ATOM     51  H   UNL     1       6.964  -6.539  21.209  0.00  0.00    +0.292 HD
ENDBRANCH  45  50
ENDBRANCH  41  42
BRANCH  40  52
ATOM     52  O   UNL     1       3.751  -1.473  30.484  0.00  0.00    -0.506 OA
ATOM     53  H   UNL     1       4.550  -1.016  30.176  0.00  0.00    +0.292 HD
ENDBRANCH  40  52
BRANCH  37  54
ATOM     54  O   UNL     1       1.652  -5.681  30.077  0.00  0.00    -0.507 OA
ATOM     55  H   UNL     1       2.171  -6.493  30.222  0.00  0.00    +0.292 HD
ENDBRANCH  37  54
ENDBRANCH  30  31
ENDBRANCH   4  30
TORSDOF 17
ENDMDL
MODEL 9
REMARK VINA RESULT:      -6.2      2.209      8.759
REMARK  Name = 
REMARK  19 active torsions:
REMARK  status: ('A' for Active; 'I' for Inactive)
REMARK    1  A    between atoms: C_1  and  C_2
REMARK    2  A    between atoms: C_3  and  O_35
REMARK    3  A    between atoms: C_5  and  O_34
REMARK    4  A    between atoms: C_6  and  O_33
REMARK    5  A    between atoms: C_8  and  O_11
REMARK    6  A    between atoms: O_11  and  C_12
REMARK    7  A    between atoms: C_13  and  C_25
REMARK    8  A    between atoms: C_17  and  O_24
REMARK    9  A    between atoms: C_19  and  O_23
REMARK   10  A    between atoms: C_27  and  O_32
REMARK   11  A    between atoms: C_28  and  O_31
REMARK   12  A    between atoms: O_35  and  C_36
REMARK   13  A    between atoms: C_38  and  O_52
REMARK   14  A    between atoms: C_40  and  O_51
REMARK   15  A    between atoms: C_41  and  O_50
REMARK   16  A    between atoms: C_43  and  C_45
REMARK   17  A    between atoms: C_45  and  O_46
REMARK   18  A    between atoms: O_46  and  C_47
REMARK   19  A    between atoms: C_47  and  C_49
REMARK                            x       y       z     vdW  Elec       q    Type
REMARK                         _______ _______ _______ _____ _____    ______ ____
ROOT
ATOM      1  C   UNL     1       7.528   0.282  27.560  0.00  0.00    +0.041 C 
ATOM      2  C   UNL     1       8.374  -0.192  26.381  0.00  0.00    +0.151 C 
ATOM      3  O   UNL     1       8.981   0.851  25.633  0.00  0.00    -0.334 OA
ATOM      4  C   UNL     1       8.142   1.600  24.755  0.00  0.00    +0.339 C 
ATOM      5  C   UNL     1       7.194   0.782  23.867  0.00  0.00    +0.214 C 
ATOM      6  C   UNL     1       6.593  -0.400  24.617  0.00  0.00    +0.180 C 
ATOM      7  C   UNL     1       7.646  -1.161  25.440  0.00  0.00    +0.181 C 
ENDROOT
BRANCH   6   8
ATOM      8  O   UNL     1       5.987  -1.298  23.673  0.00  0.00    -0.386 OA
ATOM      9  H   UNL     1       5.025  -1.167  23.793  0.00  0.00    +0.210 HD
ENDBRANCH   6   8
BRANCH   5  10
ATOM     10  O   UNL     1       7.924   0.314  22.714  0.00  0.00    -0.383 OA
ATOM     11  H   UNL     1       8.559  -0.347  23.040  0.00  0.00    +0.210 HD
ENDBRANCH   5  10
BRANCH   7  12
ATOM     12  O   UNL     1       8.547  -1.812  24.507  0.00  0.00    -0.340 OA
BRANCH  12  13
ATOM     13  C   UNL     1       9.183  -3.001  24.984  0.00  0.00    +0.282 C 
ATOM     14  O   UNL     1       9.014  -4.088  24.063  0.00  0.00    -0.339 OA
ATOM     15  C   UNL     1       7.649  -4.482  23.843  0.00  0.00    +0.190 C 
ATOM     16  C   UNL     1       6.946  -4.835  25.167  0.00  0.00    +0.178 C 
ATOM     17  C   UNL     1       7.153  -3.737  26.215  0.00  0.00    +0.179 C 
ATOM     18  C   UNL     1       8.646  -3.410  26.365  0.00  0.00    +0.201 C 
BRANCH  18  19
ATOM     19  O   UNL     1       9.354  -4.533  26.910  0.00  0.00    -0.384 OA
ATOM     20  H   UNL     1       8.709  -5.011  27.479  0.00  0.00    +0.210 HD
ENDBRANCH  18  19
BRANCH  17  21
ATOM     21  O   UNL     1       6.624  -4.186  27.473  0.00  0.00    -0.386 OA
ATOM     22  H   UNL     1       7.305  -4.765  27.869  0.00  0.00    +0.210 HD
ENDBRANCH  17  21
BRANCH  16  23
ATOM     23  O   UNL     1       7.484  -6.060  25.705  0.00  0.00    -0.386 OA
ATOM     24  H   UNL     1       7.384  -5.974  26.676  0.00  0.00    +0.210 HD
ENDBRANCH  16  23
BRANCH  15  25
ATOM     25  C   UNL     1       7.651  -5.712  22.915  0.00  0.00    +0.266 C 
BRANCH  25  26
ATOM     26  O   UNL     1       6.381  -6.389  22.890  0.00  0.00    -0.462 OA
BRANCH  26  27
ATOM     27  C   UNL     1       5.469  -5.897  22.015  0.00  0.00    +0.304 C 
ATOM     28  C   UNL     1       6.095  -5.682  20.670  0.00  0.00    +0.136 C 
ATOM     29  O   UNL     1       4.293  -5.682  22.268  0.00  0.00    -0.251 OA
ENDBRANCH  26  27
ENDBRANCH  25  26
ENDBRANCH  15  25
ENDBRANCH  12  13
ENDBRANCH   7  12
BRANCH   4  30
ATOM     30  O   UNL     1       7.439   2.581  25.484  0.00  0.00    -0.453 OA
BRANCH  30  31
ATOM     31  C   UNL     1       6.855   3.636  24.816  0.00  0.00    +0.214 A 
ATOM     32  C   UNL     1       5.364   3.456  24.721  0.00  0.00    +0.238 A 
ATOM     33  O   UNL     1       4.794   2.618  25.411  0.00  0.00    -0.283 OA
ATOM     34  C   UNL     1       4.635   4.323  23.776  0.00  0.00    +0.109 A 
ATOM     35  C   UNL     1       5.332   5.401  23.235  0.00  0.00    +0.147 A 
ATOM     36  C   UNL     1       4.712   6.269  22.335  0.00  0.00    +0.092 A 
ATOM     37  C   UNL     1       3.383   6.042  21.981  0.00  0.00    +0.124 A 
ATOM     38  C   UNL     1       2.671   4.968  22.506  0.00  0.00    +0.091 A 
ATOM     39  O   UNL     1       6.632   5.690  23.557  0.00  0.00    -0.451 OA
ATOM     40  C   UNL     1       3.298   4.109  23.408  0.00  0.00    +0.135 A 
ATOM     41  C   UNL     1       7.389   4.762  24.274  0.00  0.00    +0.181 A 
BRANCH  41  42
ATOM     42  C   UNL     1       8.809   5.232  24.322  0.00  0.00    +0.025 A 
ATOM     43  C   UNL     1       9.186   6.317  25.144  0.00  0.00    +0.015 A 
ATOM     44  C   UNL     1      10.519   6.753  25.211  0.00  0.00    +0.050 A 
ATOM     45  C   UNL     1      11.488   6.096  24.471  0.00  0.00    +0.158 A 
ATOM     46  C   UNL     1      11.138   5.039  23.638  0.00  0.00    +0.159 A 
ATOM     47  C   UNL     1       9.812   4.597  23.562  0.00  0.00    +0.060 A 
BRANCH  46  48
ATOM     48  O   UNL     1      12.141   4.470  22.897  0.00  0.00    -0.503 OA
ATOM     49  H   UNL     1      12.855   5.124  22.805  0.00  0.00    +0.292 HD
ENDBRANCH  46  48
BRANCH  45  50
ATOM     50  O   UNL     1      12.792   6.499  24.564  0.00  0.00    -0.503 OA
ATOM     51  H   UNL     1      13.245   5.771  25.036  0.00  0.00    +0.292 HD
ENDBRANCH  45  50
ENDBRANCH  41  42
BRANCH  40  52
ATOM     52  O   UNL     1       2.585   3.055  23.900  0.00  0.00    -0.506 OA
ATOM     53  H   UNL     1       3.160   2.284  24.024  0.00  0.00    +0.292 HD
ENDBRANCH  40  52
BRANCH  37  54
ATOM     54  O   UNL     1       2.740   6.845  21.091  0.00  0.00    -0.507 OA
ATOM     55  H   UNL     1       3.119   6.708  20.204  0.00  0.00    +0.292 HD
ENDBRANCH  37  54
ENDBRANCH  30  31
ENDBRANCH   4  30
TORSDOF 17
ENDMDL
