MODEL 1
REMARK VINA RESULT:      -7.4      0.000      0.000
REMARK  Name = 
REMARK  23 active torsions:
REMARK  status: ('A' for Active; 'I' for Inactive)
REMARK    1  A    between atoms: C_1  and  C_2
REMARK    2  A    between atoms: C_3  and  O_62
REMARK    3  A    between atoms: C_5  and  O_61
REMARK    4  A    between atoms: C_7  and  O_60
REMARK    5  A    between atoms: C_8  and  O_11
REMARK    6  A    between atoms: O_11  and  C_12
REMARK    7  A    between atoms: C_12  and  C_13
REMARK    8  A    between atoms: C_14  and  O_59
REMARK    9  A    between atoms: C_16  and  O_58
REMARK   10  A    between atoms: C_17  and  O_57
REMARK   11  A    between atoms: C_18  and  O_21
REMARK   12  A    between atoms: O_21  and  C_22
REMARK   13  A    between atoms: C_23  and  C_49
REMARK   14  A    between atoms: C_27  and  O_34
REMARK   15  A    between atoms: C_29  and  O_33
REMARK   16  A    between atoms: O_34  and  C_35
REMARK   17  A    between atoms: C_37  and  O_48
REMARK   18  A    between atoms: C_38  and  O_47
REMARK   19  A    between atoms: C_40  and  O_46
REMARK   20  A    between atoms: C_42  and  C_44
REMARK   21  A    between atoms: C_44  and  O_45
REMARK   22  A    between atoms: C_51  and  O_56
REMARK   23  A    between atoms: C_52  and  O_55
REMARK                            x       y       z     vdW  Elec       q    Type
REMARK                         _______ _______ _______ _____ _____    ______ ____
ROOT
ATOM      1  C   UNL     1       8.136  -2.029  25.134  0.00  0.00    +0.214 A 
ATOM      2  C   UNL     1       8.344  -3.261  24.274  0.00  0.00    +0.238 A 
ATOM      3  O   UNL     1       9.351  -3.354  23.566  0.00  0.00    -0.283 OA
ATOM      4  C   UNL     1       7.308  -4.324  24.410  0.00  0.00    +0.109 A 
ATOM      5  C   UNL     1       6.557  -4.337  25.582  0.00  0.00    +0.147 A 
ATOM      6  C   UNL     1       5.546  -5.281  25.831  0.00  0.00    +0.093 A 
ATOM      7  C   UNL     1       5.197  -6.217  24.862  0.00  0.00    +0.131 A 
ATOM      8  C   UNL     1       5.938  -6.214  23.668  0.00  0.00    +0.092 A 
ATOM      9  O   UNL     1       6.731  -3.397  26.555  0.00  0.00    -0.451 OA
ATOM     10  C   UNL     1       7.000  -5.298  23.462  0.00  0.00    +0.135 A 
ATOM     11  C   UNL     1       7.291  -2.187  26.183  0.00  0.00    +0.181 A 
ENDROOT
BRANCH  11  12
ATOM     12  C   UNL     1       6.803  -1.091  27.057  0.00  0.00    +0.025 A 
ATOM     13  C   UNL     1       5.453  -1.101  27.434  0.00  0.00    +0.015 A 
ATOM     14  C   UNL     1       4.908  -0.092  28.215  0.00  0.00    +0.050 A 
ATOM     15  C   UNL     1       5.753   0.840  28.795  0.00  0.00    +0.158 A 
ATOM     16  C   UNL     1       7.130   0.781  28.577  0.00  0.00    +0.159 A 
ATOM     17  C   UNL     1       7.657  -0.149  27.674  0.00  0.00    +0.060 A 
BRANCH  16  18
ATOM     18  O   UNL     1       7.930   1.574  29.349  0.00  0.00    -0.503 OA
ATOM     19  H   UNL     1       7.510   1.735  30.204  0.00  0.00    +0.292 HD
ENDBRANCH  16  18
BRANCH  15  20
ATOM     20  O   UNL     1       5.241   1.793  29.625  0.00  0.00    -0.503 OA
ATOM     21  H   UNL     1       5.405   1.514  30.538  0.00  0.00    +0.292 HD
ENDBRANCH  15  20
ENDBRANCH  11  12
BRANCH  10  22
ATOM     22  O   UNL     1       7.692  -5.340  22.285  0.00  0.00    -0.506 OA
ATOM     23  H   UNL     1       8.009  -4.443  22.078  0.00  0.00    +0.292 HD
ENDBRANCH  10  22
BRANCH   7  24
ATOM     24  O   UNL     1       4.145  -7.116  24.953  0.00  0.00    -0.461 OA
BRANCH  24  25
ATOM     25  C   UNL     1       2.816  -6.554  24.860  0.00  0.00    +0.339 C 
ATOM     26  O   UNL     1       2.330  -6.169  26.151  0.00  0.00    -0.331 OA
ATOM     27  C   UNL     1       2.116  -7.293  27.018  0.00  0.00    +0.179 C 
ATOM     28  C   UNL     1       1.001  -8.200  26.461  0.00  0.00    +0.177 C 
ATOM     29  C   UNL     1       1.337  -8.666  25.036  0.00  0.00    +0.180 C 
ATOM     30  C   UNL     1       1.777  -7.478  24.171  0.00  0.00    +0.214 C 
BRANCH  30  31
ATOM     31  O   UNL     1       2.173  -7.877  22.859  0.00  0.00    -0.383 OA
ATOM     32  H   UNL     1       2.695  -8.695  22.937  0.00  0.00    +0.210 HD
ENDBRANCH  30  31
BRANCH  29  33
ATOM     33  O   UNL     1       2.311  -9.722  25.081  0.00  0.00    -0.386 OA
ATOM     34  H   UNL     1       2.807  -9.666  25.915  0.00  0.00    +0.210 HD
ENDBRANCH  29  33
BRANCH  28  35
ATOM     35  O   UNL     1       0.782  -9.328  27.317  0.00  0.00    -0.386 OA
ATOM     36  H   UNL     1       0.225  -9.016  28.061  0.00  0.00    +0.210 HD
ENDBRANCH  28  35
BRANCH  27  37
ATOM     37  C   UNL     1       1.767  -6.761  28.414  0.00  0.00    +0.190 C 
BRANCH  37  38
ATOM     38  O   UNL     1       2.248  -7.606  29.452  0.00  0.00    -0.392 OA
ATOM     39  H   UNL     1       2.119  -8.533  29.153  0.00  0.00    +0.210 HD
ENDBRANCH  37  38
ENDBRANCH  27  37
ENDBRANCH  24  25
ENDBRANCH   7  24
BRANCH   1  40
ATOM     40  O   UNL     1       8.869  -0.868  24.941  0.00  0.00    -0.453 OA
BRANCH  40  43
ATOM     41  C   UNL     1       6.831   1.233  22.562  0.00  0.00    +0.179 C 
ATOM     42  O   UNL     1       7.170   0.229  23.551  0.00  0.00    -0.331 OA
ATOM     43  C   UNL     1       8.472   0.280  24.148  0.00  0.00    +0.340 C 
ATOM     44  C   UNL     1       9.639   0.633  23.183  0.00  0.00    +0.214 C 
ATOM     45  C   UNL     1       9.276   1.882  22.378  0.00  0.00    +0.180 C 
ATOM     46  C   UNL     1       7.997   1.582  21.586  0.00  0.00    +0.177 C 
BRANCH  46  47
ATOM     47  O   UNL     1       7.672   2.697  20.750  0.00  0.00    -0.386 OA
ATOM     48  H   UNL     1       7.790   3.509  21.274  0.00  0.00    +0.210 HD
ENDBRANCH  46  47
BRANCH  45  49
ATOM     49  O   UNL     1      10.359   2.245  21.510  0.00  0.00    -0.386 OA
ATOM     50  H   UNL     1      10.013   2.918  20.894  0.00  0.00    +0.210 HD
ENDBRANCH  45  49
BRANCH  44  51
ATOM     51  O   UNL     1       9.966  -0.411  22.244  0.00  0.00    -0.383 OA
ATOM     52  H   UNL     1       9.971  -0.038  21.334  0.00  0.00    +0.210 HD
ENDBRANCH  44  51
BRANCH  41  53
ATOM     53  C   UNL     1       6.180   2.536  23.129  0.00  0.00    +0.197 C 
BRANCH  53  54
ATOM     54  O   UNL     1       6.771   3.110  24.291  0.00  0.00    -0.346 OA
BRANCH  54  58
ATOM     55  C   UNL     1       6.764   7.108  22.664  0.00  0.00    +0.041 C 
ATOM     56  C   UNL     1       7.932   6.123  22.639  0.00  0.00    +0.149 C 
ATOM     57  O   UNL     1       7.462   4.801  22.944  0.00  0.00    -0.343 OA
ATOM     58  C   UNL     1       7.230   4.458  24.325  0.00  0.00    +0.282 C 
ATOM     59  C   UNL     1       8.543   4.704  25.105  0.00  0.00    +0.201 C 
ATOM     60  C   UNL     1       8.861   6.208  24.992  0.00  0.00    +0.179 C 
ATOM     61  C   UNL     1       9.098   6.599  23.525  0.00  0.00    +0.174 C 
BRANCH  61  62
ATOM     62  O   UNL     1      10.337   6.051  23.055  0.00  0.00    -0.387 OA
ATOM     63  H   UNL     1      10.325   5.092  23.269  0.00  0.00    +0.210 HD
ENDBRANCH  61  62
BRANCH  60  64
ATOM     64  O   UNL     1       9.967   6.571  25.825  0.00  0.00    -0.386 OA
ATOM     65  H   UNL     1      10.658   6.950  25.247  0.00  0.00    +0.210 HD
ENDBRANCH  60  64
BRANCH  59  66
ATOM     66  O   UNL     1       9.625   3.927  24.541  0.00  0.00    -0.384 OA
ATOM     67  H   UNL     1      10.311   4.564  24.255  0.00  0.00    +0.210 HD
ENDBRANCH  59  66
ENDBRANCH  54  58
ENDBRANCH  53  54
ENDBRANCH  41  53
ENDBRANCH  40  43
ENDBRANCH   1  40
TORSDOF 22
ENDMDL
MODEL 2
REMARK VINA RESULT:      -7.1      2.144      4.964
REMARK  Name = 
REMARK  23 active torsions:
REMARK  status: ('A' for Active; 'I' for Inactive)
REMARK    1  A    between atoms: C_1  and  C_2
REMARK    2  A    between atoms: C_3  and  O_62
REMARK    3  A    between atoms: C_5  and  O_61
REMARK    4  A    between atoms: C_7  and  O_60
REMARK    5  A    between atoms: C_8  and  O_11
REMARK    6  A    between atoms: O_11  and  C_12
REMARK    7  A    between atoms: C_12  and  C_13
REMARK    8  A    between atoms: C_14  and  O_59
REMARK    9  A    between atoms: C_16  and  O_58
REMARK   10  A    between atoms: C_17  and  O_57
REMARK   11  A    between atoms: C_18  and  O_21
REMARK   12  A    between atoms: O_21  and  C_22
REMARK   13  A    between atoms: C_23  and  C_49
REMARK   14  A    between atoms: C_27  and  O_34
REMARK   15  A    between atoms: C_29  and  O_33
REMARK   16  A    between atoms: O_34  and  C_35
REMARK   17  A    between atoms: C_37  and  O_48
REMARK   18  A    between atoms: C_38  and  O_47
REMARK   19  A    between atoms: C_40  and  O_46
REMARK   20  A    between atoms: C_42  and  C_44
REMARK   21  A    between atoms: C_44  and  O_45
REMARK   22  A    between atoms: C_51  and  O_56
REMARK   23  A    between atoms: C_52  and  O_55
REMARK                            x       y       z     vdW  Elec       q    Type
REMARK                         _______ _______ _______ _____ _____    ______ ____
ROOT
ATOM      1  C   UNL     1       6.540   1.210  26.452  0.00  0.00    +0.214 A 
ATOM      2  C   UNL     1       7.212  -0.032  27.006  0.00  0.00    +0.238 A 
ATOM      3  O   UNL     1       8.223   0.076  27.706  0.00  0.00    -0.283 OA
ATOM      4  C   UNL     1       6.532  -1.323  26.700  0.00  0.00    +0.109 A 
ATOM      5  C   UNL     1       5.178  -1.272  26.386  0.00  0.00    +0.147 A 
ATOM      6  C   UNL     1       4.422  -2.415  26.072  0.00  0.00    +0.093 A 
ATOM      7  C   UNL     1       5.030  -3.664  25.988  0.00  0.00    +0.131 A 
ATOM      8  C   UNL     1       6.401  -3.735  26.294  0.00  0.00    +0.092 A 
ATOM      9  O   UNL     1       4.500  -0.090  26.322  0.00  0.00    -0.451 OA
ATOM     10  C   UNL     1       7.131  -2.581  26.675  0.00  0.00    +0.135 A 
ATOM     11  C   UNL     1       5.239   1.060  26.099  0.00  0.00    +0.181 A 
ENDROOT
BRANCH  11  12
ATOM     12  C   UNL     1       4.428   2.076  25.382  0.00  0.00    +0.025 A 
ATOM     13  C   UNL     1       3.547   2.865  26.135  0.00  0.00    +0.015 A 
ATOM     14  C   UNL     1       2.724   3.809  25.538  0.00  0.00    +0.050 A 
ATOM     15  C   UNL     1       2.912   4.114  24.199  0.00  0.00    +0.158 A 
ATOM     16  C   UNL     1       3.898   3.464  23.455  0.00  0.00    +0.159 A 
ATOM     17  C   UNL     1       4.626   2.413  24.024  0.00  0.00    +0.060 A 
BRANCH  16  18
ATOM     18  O   UNL     1       4.192   3.961  22.218  0.00  0.00    -0.503 OA
ATOM     19  H   UNL     1       4.461   4.886  22.289  0.00  0.00    +0.292 HD
ENDBRANCH  16  18
BRANCH  15  20
ATOM     20  O   UNL     1       2.161   5.092  23.616  0.00  0.00    -0.503 OA
ATOM     21  H   UNL     1       2.758   5.670  23.117  0.00  0.00    +0.292 HD
ENDBRANCH  15  20
ENDBRANCH  11  12
BRANCH  10  22
ATOM     22  O   UNL     1       8.460  -2.705  26.966  0.00  0.00    -0.506 OA
ATOM     23  H   UNL     1       8.739  -3.616  26.763  0.00  0.00    +0.292 HD
ENDBRANCH  10  22
BRANCH   7  24
ATOM     24  O   UNL     1       4.411  -4.835  25.578  0.00  0.00    -0.461 OA
BRANCH  24  25
ATOM     25  C   UNL     1       3.144  -4.681  24.897  0.00  0.00    +0.339 C 
ATOM     26  O   UNL     1       2.086  -5.300  25.636  0.00  0.00    -0.331 OA
ATOM     27  C   UNL     1       2.217  -6.728  25.697  0.00  0.00    +0.179 C 
ATOM     28  C   UNL     1       2.091  -7.344  24.290  0.00  0.00    +0.177 C 
ATOM     29  C   UNL     1       3.134  -6.741  23.335  0.00  0.00    +0.180 C 
ATOM     30  C   UNL     1       3.134  -5.210  23.437  0.00  0.00    +0.214 C 
BRANCH  30  31
ATOM     31  O   UNL     1       4.142  -4.611  22.623  0.00  0.00    -0.383 OA
ATOM     32  H   UNL     1       3.759  -3.822  22.200  0.00  0.00    +0.210 HD
ENDBRANCH  30  31
BRANCH  29  33
ATOM     33  O   UNL     1       4.423  -7.323  23.584  0.00  0.00    -0.386 OA
ATOM     34  H   UNL     1       5.056  -7.000  22.921  0.00  0.00    +0.210 HD
ENDBRANCH  29  33
BRANCH  28  35
ATOM     35  O   UNL     1       2.225  -8.769  24.340  0.00  0.00    -0.386 OA
ATOM     36  H   UNL     1       3.069  -8.959  24.802  0.00  0.00    +0.210 HD
ENDBRANCH  28  35
BRANCH  27  37
ATOM     37  C   UNL     1       1.140  -7.268  26.648  0.00  0.00    +0.190 C 
BRANCH  37  38
ATOM     38  O   UNL     1       1.442  -8.574  27.124  0.00  0.00    -0.392 OA
ATOM     39  H   UNL     1       1.550  -9.150  26.336  0.00  0.00    +0.210 HD
ENDBRANCH  37  38
ENDBRANCH  27  37
ENDBRANCH  24  25
ENDBRANCH   7  24
BRANCH   1  40
ATOM     40  O   UNL     1       7.173   2.443  26.443  0.00  0.00    -0.453 OA
BRANCH  40  43
ATOM     41  C   UNL     1       9.746   3.542  23.913  0.00  0.00    +0.179 C 
ATOM     42  O   UNL     1       9.059   2.732  24.900  0.00  0.00    -0.331 OA
ATOM     43  C   UNL     1       7.733   3.116  25.287  0.00  0.00    +0.340 C 
ATOM     44  C   UNL     1       7.498   4.645  25.450  0.00  0.00    +0.214 C 
ATOM     45  C   UNL     1       8.021   5.377  24.214  0.00  0.00    +0.180 C 
ATOM     46  C   UNL     1       9.519   5.076  24.081  0.00  0.00    +0.177 C 
BRANCH  46  47
ATOM     47  O   UNL     1      10.066   5.815  22.984  0.00  0.00    -0.386 OA
ATOM     48  H   UNL     1      10.028   5.250  22.193  0.00  0.00    +0.210 HD
ENDBRANCH  46  47
BRANCH  45  49
ATOM     49  O   UNL     1       7.777   6.786  24.331  0.00  0.00    -0.386 OA
ATOM     50  H   UNL     1       8.203   7.211  23.563  0.00  0.00    +0.210 HD
ENDBRANCH  45  49
BRANCH  44  51
ATOM     51  O   UNL     1       8.143   5.221  26.603  0.00  0.00    -0.383 OA
ATOM     52  H   UNL     1       7.663   4.942  27.416  0.00  0.00    +0.210 HD
ENDBRANCH  44  51
BRANCH  41  53
ATOM     53  C   UNL     1       9.523   3.113  22.426  0.00  0.00    +0.197 C 
BRANCH  53  54
ATOM     54  O   UNL     1       8.378   2.315  22.140  0.00  0.00    -0.346 OA
BRANCH  54  58
ATOM     55  C   UNL     1       6.478  -1.533  22.591  0.00  0.00    +0.041 C 
ATOM     56  C   UNL     1       7.598  -0.969  23.464  0.00  0.00    +0.149 C 
ATOM     57  O   UNL     1       7.724   0.444  23.245  0.00  0.00    -0.343 OA
ATOM     58  C   UNL     1       8.438   0.893  22.075  0.00  0.00    +0.282 C 
ATOM     59  C   UNL     1       9.854   0.275  22.113  0.00  0.00    +0.201 C 
ATOM     60  C   UNL     1       9.681  -1.256  22.056  0.00  0.00    +0.179 C 
ATOM     61  C   UNL     1       8.909  -1.757  23.286  0.00  0.00    +0.174 C 
BRANCH  61  62
ATOM     62  O   UNL     1       9.721  -1.646  24.465  0.00  0.00    -0.387 OA
ATOM     63  H   UNL     1       9.500  -0.785  24.884  0.00  0.00    +0.210 HD
ENDBRANCH  61  62
BRANCH  60  64
ATOM     64  O   UNL     1      10.942  -1.919  21.912  0.00  0.00    -0.386 OA
ATOM     65  H   UNL     1      11.533  -1.580  22.612  0.00  0.00    +0.210 HD
ENDBRANCH  60  64
BRANCH  59  66
ATOM     66  O   UNL     1      10.543   0.648  23.330  0.00  0.00    -0.384 OA
ATOM     67  H   UNL     1      10.356   1.596  23.480  0.00  0.00    +0.210 HD
ENDBRANCH  59  66
ENDBRANCH  54  58
ENDBRANCH  53  54
ENDBRANCH  41  53
ENDBRANCH  40  43
ENDBRANCH   1  40
TORSDOF 22
ENDMDL
MODEL 3
REMARK VINA RESULT:      -7.1      2.393      5.772
REMARK  Name = 
REMARK  23 active torsions:
REMARK  status: ('A' for Active; 'I' for Inactive)
REMARK    1  A    between atoms: C_1  and  C_2
REMARK    2  A    between atoms: C_3  and  O_62
REMARK    3  A    between atoms: C_5  and  O_61
REMARK    4  A    between atoms: C_7  and  O_60
REMARK    5  A    between atoms: C_8  and  O_11
REMARK    6  A    between atoms: O_11  and  C_12
REMARK    7  A    between atoms: C_12  and  C_13
REMARK    8  A    between atoms: C_14  and  O_59
REMARK    9  A    between atoms: C_16  and  O_58
REMARK   10  A    between atoms: C_17  and  O_57
REMARK   11  A    between atoms: C_18  and  O_21
REMARK   12  A    between atoms: O_21  and  C_22
REMARK   13  A    between atoms: C_23  and  C_49
REMARK   14  A    between atoms: C_27  and  O_34
REMARK   15  A    between atoms: C_29  and  O_33
REMARK   16  A    between atoms: O_34  and  C_35
REMARK   17  A    between atoms: C_37  and  O_48
REMARK   18  A    between atoms: C_38  and  O_47
REMARK   19  A    between atoms: C_40  and  O_46
REMARK   20  A    between atoms: C_42  and  C_44
REMARK   21  A    between atoms: C_44  and  O_45
REMARK   22  A    between atoms: C_51  and  O_56
REMARK   23  A    between atoms: C_52  and  O_55
REMARK                            x       y       z     vdW  Elec       q    Type
REMARK                         _______ _______ _______ _____ _____    ______ ____
ROOT
ATOM      1  C   UNL     1       5.718   2.412  25.852  0.00  0.00    +0.214 A 
ATOM      2  C   UNL     1       6.567   1.434  26.642  0.00  0.00    +0.238 A 
ATOM      3  O   UNL     1       7.546   1.842  27.275  0.00  0.00    -0.283 OA
ATOM      4  C   UNL     1       6.094   0.020  26.639  0.00  0.00    +0.109 A 
ATOM      5  C   UNL     1       4.749  -0.201  26.358  0.00  0.00    +0.147 A 
ATOM      6  C   UNL     1       4.178  -1.485  26.318  0.00  0.00    +0.093 A 
ATOM      7  C   UNL     1       4.970  -2.617  26.489  0.00  0.00    +0.131 A 
ATOM      8  C   UNL     1       6.333  -2.414  26.766  0.00  0.00    +0.092 A 
ATOM      9  O   UNL     1       3.900   0.824  26.059  0.00  0.00    -0.451 OA
ATOM     10  C   UNL     1       6.877  -1.109  26.870  0.00  0.00    +0.135 A 
ATOM     11  C   UNL     1       4.458   1.995  25.574  0.00  0.00    +0.181 A 
ENDROOT
BRANCH  11  12
ATOM     12  C   UNL     1       3.506   2.698  24.677  0.00  0.00    +0.025 A 
ATOM     13  C   UNL     1       2.314   3.183  25.232  0.00  0.00    +0.015 A 
ATOM     14  C   UNL     1       1.354   3.816  24.456  0.00  0.00    +0.050 A 
ATOM     15  C   UNL     1       1.660   4.147  23.146  0.00  0.00    +0.158 A 
ATOM     16  C   UNL     1       2.906   3.827  22.606  0.00  0.00    +0.159 A 
ATOM     17  C   UNL     1       3.815   3.062  23.347  0.00  0.00    +0.060 A 
BRANCH  16  18
ATOM     18  O   UNL     1       3.236   4.374  21.400  0.00  0.00    -0.503 OA
ATOM     19  H   UNL     1       4.194   4.476  21.334  0.00  0.00    +0.292 HD
ENDBRANCH  16  18
BRANCH  15  20
ATOM     20  O   UNL     1       0.754   4.834  22.393  0.00  0.00    -0.503 OA
ATOM     21  H   UNL     1      -0.107   4.403  22.494  0.00  0.00    +0.292 HD
ENDBRANCH  15  20
ENDBRANCH  11  12
BRANCH  10  22
ATOM     22  O   UNL     1       8.207  -0.967  27.146  0.00  0.00    -0.506 OA
ATOM     23  H   UNL     1       8.452  -0.033  27.019  0.00  0.00    +0.292 HD
ENDBRANCH  10  22
BRANCH   7  24
ATOM     24  O   UNL     1       4.539  -3.929  26.356  0.00  0.00    -0.461 OA
BRANCH  24  25
ATOM     25  C   UNL     1       5.573  -4.924  26.176  0.00  0.00    +0.339 C 
ATOM     26  O   UNL     1       5.907  -5.072  24.792  0.00  0.00    -0.331 OA
ATOM     27  C   UNL     1       4.829  -5.622  24.019  0.00  0.00    +0.179 C 
ATOM     28  C   UNL     1       4.515  -7.060  24.476  0.00  0.00    +0.177 C 
ATOM     29  C   UNL     1       4.184  -7.095  25.977  0.00  0.00    +0.180 C 
ATOM     30  C   UNL     1       5.234  -6.314  26.778  0.00  0.00    +0.214 C 
BRANCH  30  31
ATOM     31  O   UNL     1       4.924  -6.256  28.169  0.00  0.00    -0.383 OA
ATOM     32  H   UNL     1       4.066  -6.694  28.307  0.00  0.00    +0.210 HD
ENDBRANCH  30  31
BRANCH  29  33
ATOM     33  O   UNL     1       2.844  -6.625  26.196  0.00  0.00    -0.386 OA
ATOM     34  H   UNL     1       2.829  -5.655  26.136  0.00  0.00    +0.210 HD
ENDBRANCH  29  33
BRANCH  28  35
ATOM     35  O   UNL     1       3.437  -7.616  23.715  0.00  0.00    -0.386 OA
ATOM     36  H   UNL     1       2.650  -7.056  23.885  0.00  0.00    +0.210 HD
ENDBRANCH  28  35
BRANCH  27  37
ATOM     37  C   UNL     1       5.229  -5.575  22.538  0.00  0.00    +0.190 C 
BRANCH  37  38
ATOM     38  O   UNL     1       5.949  -6.733  22.134  0.00  0.00    -0.392 OA
ATOM     39  H   UNL     1       5.646  -6.960  21.229  0.00  0.00    +0.210 HD
ENDBRANCH  37  38
ENDBRANCH  27  37
ENDBRANCH  24  25
ENDBRANCH   7  24
BRANCH   1  40
ATOM     40  O   UNL     1       6.156   3.693  25.560  0.00  0.00    -0.453 OA
BRANCH  40  43
ATOM     41  C   UNL     1       9.604   4.847  24.554  0.00  0.00    +0.179 C 
ATOM     42  O   UNL     1       8.534   4.256  25.334  0.00  0.00    -0.331 OA
ATOM     43  C   UNL     1       7.266   4.050  24.698  0.00  0.00    +0.340 C 
ATOM     44  C   UNL     1       6.800   5.190  23.748  0.00  0.00    +0.214 C 
ATOM     45  C   UNL     1       7.930   5.543  22.780  0.00  0.00    +0.180 C 
ATOM     46  C   UNL     1       9.139   5.996  23.608  0.00  0.00    +0.177 C 
BRANCH  46  47
ATOM     47  O   UNL     1      10.191   6.421  22.735  0.00  0.00    -0.386 OA
ATOM     48  H   UNL     1      10.801   6.979  23.249  0.00  0.00    +0.210 HD
ENDBRANCH  46  47
BRANCH  45  49
ATOM     49  O   UNL     1       7.503   6.567  21.870  0.00  0.00    -0.386 OA
ATOM     50  H   UNL     1       6.884   6.147  21.244  0.00  0.00    +0.210 HD
ENDBRANCH  45  49
BRANCH  44  51
ATOM     51  O   UNL     1       6.411   6.401  24.425  0.00  0.00    -0.383 OA
ATOM     52  H   UNL     1       6.540   7.166  23.821  0.00  0.00    +0.210 HD
ENDBRANCH  44  51
BRANCH  41  53
ATOM     53  C   UNL     1      10.507   3.830  23.782  0.00  0.00    +0.197 C 
BRANCH  53  54
ATOM     54  O   UNL     1      10.332   2.447  24.075  0.00  0.00    -0.346 OA
BRANCH  54  58
ATOM     55  C   UNL     1       6.626   1.112  22.312  0.00  0.00    +0.041 C 
ATOM     56  C   UNL     1       7.484   0.336  23.310  0.00  0.00    +0.149 C 
ATOM     57  O   UNL     1       8.428   1.220  23.934  0.00  0.00    -0.343 OA
ATOM     58  C   UNL     1       9.624   1.568  23.206  0.00  0.00    +0.282 C 
ATOM     59  C   UNL     1      10.353   0.256  22.833  0.00  0.00    +0.201 C 
ATOM     60  C   UNL     1       9.406  -0.543  21.917  0.00  0.00    +0.179 C 
ATOM     61  C   UNL     1       8.116  -0.912  22.667  0.00  0.00    +0.174 C 
BRANCH  61  62
ATOM     62  O   UNL     1       8.386  -1.905  23.667  0.00  0.00    -0.387 OA
ATOM     63  H   UNL     1       8.444  -2.770  23.203  0.00  0.00    +0.210 HD
ENDBRANCH  61  62
BRANCH  60  64
ATOM     64  O   UNL     1      10.055  -1.699  21.375  0.00  0.00    -0.386 OA
ATOM     65  H   UNL     1      11.007  -1.493  21.301  0.00  0.00    +0.210 HD
ENDBRANCH  60  64
BRANCH  59  66
ATOM     66  O   UNL     1      10.659  -0.514  24.019  0.00  0.00    -0.384 OA
ATOM     67  H   UNL     1      10.376   0.023  24.786  0.00  0.00    +0.210 HD
ENDBRANCH  59  66
ENDBRANCH  54  58
ENDBRANCH  53  54
ENDBRANCH  41  53
ENDBRANCH  40  43
ENDBRANCH   1  40
TORSDOF 22
ENDMDL
MODEL 4
REMARK VINA RESULT:      -7.0      1.993      3.286
REMARK  Name = 
REMARK  23 active torsions:
REMARK  status: ('A' for Active; 'I' for Inactive)
REMARK    1  A    between atoms: C_1  and  C_2
REMARK    2  A    between atoms: C_3  and  O_62
REMARK    3  A    between atoms: C_5  and  O_61
REMARK    4  A    between atoms: C_7  and  O_60
REMARK    5  A    between atoms: C_8  and  O_11
REMARK    6  A    between atoms: O_11  and  C_12
REMARK    7  A    between atoms: C_12  and  C_13
REMARK    8  A    between atoms: C_14  and  O_59
REMARK    9  A    between atoms: C_16  and  O_58
REMARK   10  A    between atoms: C_17  and  O_57
REMARK   11  A    between atoms: C_18  and  O_21
REMARK   12  A    between atoms: O_21  and  C_22
REMARK   13  A    between atoms: C_23  and  C_49
REMARK   14  A    between atoms: C_27  and  O_34
REMARK   15  A    between atoms: C_29  and  O_33
REMARK   16  A    between atoms: O_34  and  C_35
REMARK   17  A    between atoms: C_37  and  O_48
REMARK   18  A    between atoms: C_38  and  O_47
REMARK   19  A    between atoms: C_40  and  O_46
REMARK   20  A    between atoms: C_42  and  C_44
REMARK   21  A    between atoms: C_44  and  O_45
REMARK   22  A    between atoms: C_51  and  O_56
REMARK   23  A    between atoms: C_52  and  O_55
REMARK                            x       y       z     vdW  Elec       q    Type
REMARK                         _______ _______ _______ _____ _____    ______ ____
ROOT
ATOM      1  C   UNL     1       7.866  -1.504  26.476  0.00  0.00    +0.214 A 
ATOM      2  C   UNL     1       8.227  -2.969  26.638  0.00  0.00    +0.238 A 
ATOM      3  O   UNL     1       9.408  -3.298  26.779  0.00  0.00    -0.283 OA
ATOM      4  C   UNL     1       7.076  -3.915  26.680  0.00  0.00    +0.109 A 
ATOM      5  C   UNL     1       5.837  -3.398  27.042  0.00  0.00    +0.147 A 
ATOM      6  C   UNL     1       4.672  -4.182  27.114  0.00  0.00    +0.093 A 
ATOM      7  C   UNL     1       4.698  -5.523  26.744  0.00  0.00    +0.131 A 
ATOM      8  C   UNL     1       5.940  -6.062  26.365  0.00  0.00    +0.092 A 
ATOM      9  O   UNL     1       5.665  -2.072  27.315  0.00  0.00    -0.451 OA
ATOM     10  C   UNL     1       7.118  -5.273  26.366  0.00  0.00    +0.135 A 
ATOM     11  C   UNL     1       6.582  -1.185  26.778  0.00  0.00    +0.181 A 
ENDROOT
BRANCH  11  12
ATOM     12  C   UNL     1       5.955   0.139  26.536  0.00  0.00    +0.025 A 
ATOM     13  C   UNL     1       6.220   1.169  27.449  0.00  0.00    +0.015 A 
ATOM     14  C   UNL     1       5.641   2.423  27.319  0.00  0.00    +0.050 A 
ATOM     15  C   UNL     1       4.941   2.724  26.161  0.00  0.00    +0.158 A 
ATOM     16  C   UNL     1       4.798   1.772  25.152  0.00  0.00    +0.159 A 
ATOM     17  C   UNL     1       5.259   0.465  25.350  0.00  0.00    +0.060 A 
BRANCH  16  18
ATOM     18  O   UNL     1       4.304   2.189  23.949  0.00  0.00    -0.503 OA
ATOM     19  H   UNL     1       4.016   3.109  24.012  0.00  0.00    +0.292 HD
ENDBRANCH  16  18
BRANCH  15  20
ATOM     20  O   UNL     1       4.430   3.976  25.986  0.00  0.00    -0.503 OA
ATOM     21  H   UNL     1       4.014   4.009  25.111  0.00  0.00    +0.292 HD
ENDBRANCH  15  20
ENDBRANCH  11  12
BRANCH  10  22
ATOM     22  O   UNL     1       8.300  -5.847  25.994  0.00  0.00    -0.506 OA
ATOM     23  H   UNL     1       8.440  -5.684  25.044  0.00  0.00    +0.292 HD
ENDBRANCH  10  22
BRANCH   7  24
ATOM     24  O   UNL     1       3.594  -6.358  26.664  0.00  0.00    -0.461 OA
BRANCH  24  25
ATOM     25  C   UNL     1       3.675  -7.432  25.698  0.00  0.00    +0.339 C 
ATOM     26  O   UNL     1       4.357  -7.006  24.514  0.00  0.00    -0.331 OA
ATOM     27  C   UNL     1       3.628  -6.007  23.785  0.00  0.00    +0.179 C 
ATOM     28  C   UNL     1       2.300  -6.585  23.257  0.00  0.00    +0.177 C 
ATOM     29  C   UNL     1       1.453  -7.148  24.410  0.00  0.00    +0.180 C 
ATOM     30  C   UNL     1       2.304  -8.050  25.312  0.00  0.00    +0.214 C 
BRANCH  30  31
ATOM     31  O   UNL     1       1.576  -8.533  26.440  0.00  0.00    -0.383 OA
ATOM     32  H   UNL     1       1.930  -8.100  27.237  0.00  0.00    +0.210 HD
ENDBRANCH  30  31
BRANCH  29  33
ATOM     33  O   UNL     1       0.818  -6.074  25.122  0.00  0.00    -0.386 OA
ATOM     34  H   UNL     1      -0.144  -6.124  24.990  0.00  0.00    +0.210 HD
ENDBRANCH  29  33
BRANCH  28  35
ATOM     35  O   UNL     1       1.562  -5.594  22.532  0.00  0.00    -0.386 OA
ATOM     36  H   UNL     1       2.161  -4.827  22.409  0.00  0.00    +0.210 HD
ENDBRANCH  28  35
BRANCH  27  37
ATOM     37  C   UNL     1       4.519  -5.502  22.642  0.00  0.00    +0.190 C 
BRANCH  37  38
ATOM     38  O   UNL     1       4.490  -4.086  22.518  0.00  0.00    -0.392 OA
ATOM     39  H   UNL     1       4.619  -3.877  21.568  0.00  0.00    +0.210 HD
ENDBRANCH  37  38
ENDBRANCH  27  37
ENDBRANCH  24  25
ENDBRANCH   7  24
BRANCH   1  40
ATOM     40  O   UNL     1       8.819  -0.543  26.179  0.00  0.00    -0.453 OA
BRANCH  40  43
ATOM     41  C   UNL     1       8.489   0.585  22.595  0.00  0.00    +0.179 C 
ATOM     42  O   UNL     1       8.288  -0.178  23.811  0.00  0.00    -0.331 OA
ATOM     43  C   UNL     1       8.816   0.349  25.035  0.00  0.00    +0.340 C 
ATOM     44  C   UNL     1      10.218   1.013  24.931  0.00  0.00    +0.214 C 
ATOM     45  C   UNL     1      10.226   2.010  23.771  0.00  0.00    +0.180 C 
ATOM     46  C   UNL     1       9.898   1.244  22.484  0.00  0.00    +0.177 C 
BRANCH  46  47
ATOM     47  O   UNL     1       9.982   2.127  21.360  0.00  0.00    -0.386 OA
ATOM     48  H   UNL     1       9.075   2.357  21.090  0.00  0.00    +0.210 HD
ENDBRANCH  46  47
BRANCH  45  49
ATOM     49  O   UNL     1      11.502   2.661  23.684  0.00  0.00    -0.386 OA
ATOM     50  H   UNL     1      11.911   2.599  24.567  0.00  0.00    +0.210 HD
ENDBRANCH  45  49
BRANCH  44  51
ATOM     51  O   UNL     1      11.297   0.082  24.713  0.00  0.00    -0.383 OA
ATOM     52  H   UNL     1      12.156   0.549  24.826  0.00  0.00    +0.210 HD
ENDBRANCH  44  51
BRANCH  41  53
ATOM     53  C   UNL     1       7.368   1.625  22.267  0.00  0.00    +0.197 C 
BRANCH  53  54
ATOM     54  O   UNL     1       7.058   2.590  23.269  0.00  0.00    -0.346 OA
BRANCH  54  58
ATOM     55  C   UNL     1       8.878   6.125  24.948  0.00  0.00    +0.041 C 
ATOM     56  C   UNL     1       7.394   5.930  24.640  0.00  0.00    +0.149 C 
ATOM     57  O   UNL     1       7.117   4.537  24.433  0.00  0.00    -0.343 OA
ATOM     58  C   UNL     1       7.437   3.958  23.152  0.00  0.00    +0.282 C 
ATOM     59  C   UNL     1       6.700   4.771  22.063  0.00  0.00    +0.201 C 
ATOM     60  C   UNL     1       7.243   6.213  22.129  0.00  0.00    +0.179 C 
ATOM     61  C   UNL     1       6.926   6.845  23.493  0.00  0.00    +0.174 C 
BRANCH  61  62
ATOM     62  O   UNL     1       5.520   7.108  23.608  0.00  0.00    -0.387 OA
ATOM     63  H   UNL     1       5.272   6.937  24.544  0.00  0.00    +0.210 HD
ENDBRANCH  61  62
BRANCH  60  64
ATOM     64  O   UNL     1       6.748   7.008  21.046  0.00  0.00    -0.386 OA
ATOM     65  H   UNL     1       6.932   7.943  21.260  0.00  0.00    +0.210 HD
ENDBRANCH  60  64
BRANCH  59  66
ATOM     66  O   UNL     1       5.273   4.771  22.303  0.00  0.00    -0.384 OA
ATOM     67  H   UNL     1       5.022   5.692  22.517  0.00  0.00    +0.210 HD
ENDBRANCH  59  66
ENDBRANCH  54  58
ENDBRANCH  53  54
ENDBRANCH  41  53
ENDBRANCH  40  43
ENDBRANCH   1  40
TORSDOF 22
ENDMDL
MODEL 5
REMARK VINA RESULT:      -6.9      2.209     11.124
REMARK  Name = 
REMARK  23 active torsions:
REMARK  status: ('A' for Active; 'I' for Inactive)
REMARK    1  A    between atoms: C_1  and  C_2
REMARK    2  A    between atoms: C_3  and  O_62
REMARK    3  A    between atoms: C_5  and  O_61
REMARK    4  A    between atoms: C_7  and  O_60
REMARK    5  A    between atoms: C_8  and  O_11
REMARK    6  A    between atoms: O_11  and  C_12
REMARK    7  A    between atoms: C_12  and  C_13
REMARK    8  A    between atoms: C_14  and  O_59
REMARK    9  A    between atoms: C_16  and  O_58
REMARK   10  A    between atoms: C_17  and  O_57
REMARK   11  A    between atoms: C_18  and  O_21
REMARK   12  A    between atoms: O_21  and  C_22
REMARK   13  A    between atoms: C_23  and  C_49
REMARK   14  A    between atoms: C_27  and  O_34
REMARK   15  A    between atoms: C_29  and  O_33
REMARK   16  A    between atoms: O_34  and  C_35
REMARK   17  A    between atoms: C_37  and  O_48
REMARK   18  A    between atoms: C_38  and  O_47
REMARK   19  A    between atoms: C_40  and  O_46
REMARK   20  A    between atoms: C_42  and  C_44
REMARK   21  A    between atoms: C_44  and  O_45
REMARK   22  A    between atoms: C_51  and  O_56
REMARK   23  A    between atoms: C_52  and  O_55
REMARK                            x       y       z     vdW  Elec       q    Type
REMARK                         _______ _______ _______ _____ _____    ______ ____
ROOT
ATOM      1  C   UNL     1       7.489  -2.325  25.670  0.00  0.00    +0.214 A 
ATOM      2  C   UNL     1       7.903  -1.055  26.390  0.00  0.00    +0.238 A 
ATOM      3  O   UNL     1       8.449  -1.125  27.495  0.00  0.00    -0.283 OA
ATOM      4  C   UNL     1       7.667   0.214  25.645  0.00  0.00    +0.109 A 
ATOM      5  C   UNL     1       7.558   0.131  24.261  0.00  0.00    +0.147 A 
ATOM      6  C   UNL     1       7.328   1.251  23.443  0.00  0.00    +0.093 A 
ATOM      7  C   UNL     1       7.122   2.507  24.005  0.00  0.00    +0.131 A 
ATOM      8  C   UNL     1       7.219   2.610  25.404  0.00  0.00    +0.092 A 
ATOM      9  O   UNL     1       7.627  -1.064  23.606  0.00  0.00    -0.451 OA
ATOM     10  C   UNL     1       7.520   1.481  26.207  0.00  0.00    +0.135 A 
ATOM     11  C   UNL     1       7.328  -2.207  24.329  0.00  0.00    +0.181 A 
ENDROOT
BRANCH  11  12
ATOM     12  C   UNL     1       6.767  -3.258  23.442  0.00  0.00    +0.025 A 
ATOM     13  C   UNL     1       7.656  -4.173  22.861  0.00  0.00    +0.015 A 
ATOM     14  C   UNL     1       7.218  -5.159  21.990  0.00  0.00    +0.050 A 
ATOM     15  C   UNL     1       5.856  -5.369  21.840  0.00  0.00    +0.158 A 
ATOM     16  C   UNL     1       4.938  -4.582  22.535  0.00  0.00    +0.159 A 
ATOM     17  C   UNL     1       5.381  -3.496  23.300  0.00  0.00    +0.060 A 
BRANCH  16  18
ATOM     18  O   UNL     1       3.631  -4.977  22.530  0.00  0.00    -0.503 OA
ATOM     19  H   UNL     1       3.453  -5.541  23.293  0.00  0.00    +0.292 HD
ENDBRANCH  16  18
BRANCH  15  20
ATOM     20  O   UNL     1       5.412  -6.383  21.044  0.00  0.00    -0.503 OA
ATOM     21  H   UNL     1       5.773  -6.246  20.156  0.00  0.00    +0.292 HD
ENDBRANCH  15  20
ENDBRANCH  11  12
BRANCH  10  22
ATOM     22  O   UNL     1       7.607   1.637  27.561  0.00  0.00    -0.506 OA
ATOM     23  H   UNL     1       8.354   1.104  27.887  0.00  0.00    +0.292 HD
ENDBRANCH  10  22
BRANCH   7  24
ATOM     24  O   UNL     1       6.775   3.655  23.308  0.00  0.00    -0.461 OA
BRANCH  24  25
ATOM     25  C   UNL     1       6.187   4.722  24.088  0.00  0.00    +0.339 C 
ATOM     26  O   UNL     1       4.783   4.829  23.834  0.00  0.00    -0.331 OA
ATOM     27  C   UNL     1       4.495   5.251  22.493  0.00  0.00    +0.179 C 
ATOM     28  C   UNL     1       5.022   6.679  22.250  0.00  0.00    +0.177 C 
ATOM     29  C   UNL     1       6.531   6.759  22.536  0.00  0.00    +0.180 C 
ATOM     30  C   UNL     1       6.858   6.107  23.885  0.00  0.00    +0.214 C 
BRANCH  30  31
ATOM     31  O   UNL     1       8.259   6.090  24.155  0.00  0.00    -0.383 OA
ATOM     32  H   UNL     1       8.678   6.788  23.621  0.00  0.00    +0.210 HD
ENDBRANCH  30  31
BRANCH  29  33
ATOM     33  O   UNL     1       7.269   6.192  21.441  0.00  0.00    -0.386 OA
ATOM     34  H   UNL     1       7.766   5.418  21.754  0.00  0.00    +0.210 HD
ENDBRANCH  29  33
BRANCH  28  35
ATOM     35  O   UNL     1       4.744   7.107  20.912  0.00  0.00    -0.386 OA
ATOM     36  H   UNL     1       5.319   7.883  20.736  0.00  0.00    +0.210 HD
ENDBRANCH  28  35
BRANCH  27  37
ATOM     37  C   UNL     1       2.978   5.166  22.279  0.00  0.00    +0.190 C 
BRANCH  37  38
ATOM     38  O   UNL     1       2.637   4.843  20.937  0.00  0.00    -0.392 OA
ATOM     39  H   UNL     1       1.901   4.193  20.974  0.00  0.00    +0.210 HD
ENDBRANCH  37  38
ENDBRANCH  27  37
ENDBRANCH  24  25
ENDBRANCH   7  24
BRANCH   1  40
ATOM     40  O   UNL     1       7.420  -3.546  26.321  0.00  0.00    -0.453 OA
BRANCH  40  43
ATOM     41  C   UNL     1       4.460  -4.125  28.587  0.00  0.00    +0.179 C 
ATOM     42  O   UNL     1       5.509  -3.440  27.857  0.00  0.00    -0.331 OA
ATOM     43  C   UNL     1       6.225  -4.173  26.854  0.00  0.00    +0.340 C 
ATOM     44  C   UNL     1       6.567  -5.646  27.216  0.00  0.00    +0.214 C 
ATOM     45  C   UNL     1       5.308  -6.353  27.721  0.00  0.00    +0.180 C 
ATOM     46  C   UNL     1       4.805  -5.600  28.959  0.00  0.00    +0.177 C 
BRANCH  46  47
ATOM     47  O   UNL     1       3.676  -6.282  29.515  0.00  0.00    -0.386 OA
ATOM     48  H   UNL     1       2.870  -5.891  29.134  0.00  0.00    +0.210 HD
ENDBRANCH  46  47
BRANCH  45  49
ATOM     49  O   UNL     1       5.596  -7.726  28.023  0.00  0.00    -0.386 OA
ATOM     50  H   UNL     1       4.739  -8.174  28.144  0.00  0.00    +0.210 HD
ENDBRANCH  45  49
BRANCH  44  51
ATOM     51  O   UNL     1       7.581  -5.785  28.230  0.00  0.00    -0.383 OA
ATOM     52  H   UNL     1       7.539  -5.014  28.839  0.00  0.00    +0.210 HD
ENDBRANCH  44  51
BRANCH  41  53
ATOM     53  C   UNL     1       3.036  -4.037  27.948  0.00  0.00    +0.197 C 
BRANCH  53  54
ATOM     54  O   UNL     1       2.180  -5.166  28.100  0.00  0.00    -0.346 OA
BRANCH  54  58
ATOM     55  C   UNL     1       0.443  -8.679  26.294  0.00  0.00    +0.041 C 
ATOM     56  C   UNL     1       1.750  -8.003  25.883  0.00  0.00    +0.149 C 
ATOM     57  O   UNL     1       2.178  -7.101  26.914  0.00  0.00    -0.343 OA
ATOM     58  C   UNL     1       1.554  -5.803  26.990  0.00  0.00    +0.282 C 
ATOM     59  C   UNL     1       1.736  -5.105  25.622  0.00  0.00    +0.201 C 
ATOM     60  C   UNL     1       1.006  -5.969  24.573  0.00  0.00    +0.179 C 
ATOM     61  C   UNL     1       1.645  -7.363  24.486  0.00  0.00    +0.174 C 
BRANCH  61  62
ATOM     62  O   UNL     1       2.941  -7.282  23.876  0.00  0.00    -0.387 OA
ATOM     63  H   UNL     1       2.837  -6.760  23.050  0.00  0.00    +0.210 HD
ENDBRANCH  61  62
BRANCH  60  64
ATOM     64  O   UNL     1       0.968  -5.320  23.298  0.00  0.00    -0.386 OA
ATOM     65  H   UNL     1       0.131  -5.575  22.863  0.00  0.00    +0.210 HD
ENDBRANCH  60  64
BRANCH  59  66
ATOM     66  O   UNL     1       3.139  -5.000  25.283  0.00  0.00    -0.384 OA
ATOM     67  H   UNL     1       3.445  -5.903  25.065  0.00  0.00    +0.210 HD
ENDBRANCH  59  66
ENDBRANCH  54  58
ENDBRANCH  53  54
ENDBRANCH  41  53
ENDBRANCH  40  43
ENDBRANCH   1  40
TORSDOF 22
ENDMDL
MODEL 6
REMARK VINA RESULT:      -6.9      2.138      9.944
REMARK  Name = 
REMARK  23 active torsions:
REMARK  status: ('A' for Active; 'I' for Inactive)
REMARK    1  A    between atoms: C_1  and  C_2
REMARK    2  A    between atoms: C_3  and  O_62
REMARK    3  A    between atoms: C_5  and  O_61
REMARK    4  A    between atoms: C_7  and  O_60
REMARK    5  A    between atoms: C_8  and  O_11
REMARK    6  A    between atoms: O_11  and  C_12
REMARK    7  A    between atoms: C_12  and  C_13
REMARK    8  A    between atoms: C_14  and  O_59
REMARK    9  A    between atoms: C_16  and  O_58
REMARK   10  A    between atoms: C_17  and  O_57
REMARK   11  A    between atoms: C_18  and  O_21
REMARK   12  A    between atoms: O_21  and  C_22
REMARK   13  A    between atoms: C_23  and  C_49
REMARK   14  A    between atoms: C_27  and  O_34
REMARK   15  A    between atoms: C_29  and  O_33
REMARK   16  A    between atoms: O_34  and  C_35
REMARK   17  A    between atoms: C_37  and  O_48
REMARK   18  A    between atoms: C_38  and  O_47
REMARK   19  A    between atoms: C_40  and  O_46
REMARK   20  A    between atoms: C_42  and  C_44
REMARK   21  A    between atoms: C_44  and  O_45
REMARK   22  A    between atoms: C_51  and  O_56
REMARK   23  A    between atoms: C_52  and  O_55
REMARK                            x       y       z     vdW  Elec       q    Type
REMARK                         _______ _______ _______ _____ _____    ______ ____
ROOT
ATOM      1  C   UNL     1       6.509  -1.811  26.582  0.00  0.00    +0.214 A 
ATOM      2  C   UNL     1       7.684  -1.790  25.622  0.00  0.00    +0.238 A 
ATOM      3  O   UNL     1       8.303  -2.832  25.386  0.00  0.00    -0.283 OA
ATOM      4  C   UNL     1       7.962  -0.478  24.972  0.00  0.00    +0.109 A 
ATOM      5  C   UNL     1       6.914   0.435  24.904  0.00  0.00    +0.147 A 
ATOM      6  C   UNL     1       7.046   1.709  24.323  0.00  0.00    +0.093 A 
ATOM      7  C   UNL     1       8.279   2.145  23.848  0.00  0.00    +0.131 A 
ATOM      8  C   UNL     1       9.352   1.240  23.915  0.00  0.00    +0.092 A 
ATOM      9  O   UNL     1       5.690   0.164  25.442  0.00  0.00    -0.451 OA
ATOM     10  C   UNL     1       9.183  -0.065  24.442  0.00  0.00    +0.135 A 
ATOM     11  C   UNL     1       5.630  -0.787  26.446  0.00  0.00    +0.181 A 
ENDROOT
BRANCH  11  12
ATOM     12  C   UNL     1       4.505  -0.502  27.373  0.00  0.00    +0.025 A 
ATOM     13  C   UNL     1       4.788   0.191  28.558  0.00  0.00    +0.015 A 
ATOM     14  C   UNL     1       3.803   0.462  29.496  0.00  0.00    +0.050 A 
ATOM     15  C   UNL     1       2.479   0.215  29.171  0.00  0.00    +0.158 A 
ATOM     16  C   UNL     1       2.143  -0.322  27.928  0.00  0.00    +0.159 A 
ATOM     17  C   UNL     1       3.150  -0.727  27.044  0.00  0.00    +0.060 A 
BRANCH  16  18
ATOM     18  O   UNL     1       0.824  -0.329  27.574  0.00  0.00    -0.503 OA
ATOM     19  H   UNL     1       0.543   0.561  27.327  0.00  0.00    +0.292 HD
ENDBRANCH  16  18
BRANCH  15  20
ATOM     20  O   UNL     1       1.493   0.545  30.053  0.00  0.00    -0.503 OA
ATOM     21  H   UNL     1       0.641   0.432  29.605  0.00  0.00    +0.292 HD
ENDBRANCH  15  20
ENDBRANCH  11  12
BRANCH  10  22
ATOM     22  O   UNL     1      10.257  -0.908  24.480  0.00  0.00    -0.506 OA
ATOM     23  H   UNL     1      10.593  -0.942  25.393  0.00  0.00    +0.292 HD
ENDBRANCH  10  22
BRANCH   7  24
ATOM     24  O   UNL     1       8.551   3.416  23.363  0.00  0.00    -0.461 OA
BRANCH  24  25
ATOM     25  C   UNL     1       8.701   4.458  24.355  0.00  0.00    +0.339 C 
ATOM     26  O   UNL     1       7.486   4.649  25.086  0.00  0.00    -0.331 OA
ATOM     27  C   UNL     1       6.426   5.169  24.271  0.00  0.00    +0.179 C 
ATOM     28  C   UNL     1       6.776   6.582  23.765  0.00  0.00    +0.177 C 
ATOM     29  C   UNL     1       8.105   6.571  22.992  0.00  0.00    +0.180 C 
ATOM     30  C   UNL     1       9.182   5.819  23.784  0.00  0.00    +0.214 C 
BRANCH  30  31
ATOM     31  O   UNL     1      10.412   5.718  23.068  0.00  0.00    -0.383 OA
ATOM     32  H   UNL     1      10.291   6.137  22.198  0.00  0.00    +0.210 HD
ENDBRANCH  30  31
BRANCH  29  33
ATOM     33  O   UNL     1       7.901   6.040  21.672  0.00  0.00    -0.386 OA
ATOM     34  H   UNL     1       7.141   5.435  21.682  0.00  0.00    +0.210 HD
ENDBRANCH  29  33
BRANCH  28  35
ATOM     35  O   UNL     1       5.726   7.108  22.945  0.00  0.00    -0.386 OA
ATOM     36  H   UNL     1       6.093   7.205  22.041  0.00  0.00    +0.210 HD
ENDBRANCH  28  35
BRANCH  27  37
ATOM     37  C   UNL     1       5.137   5.170  25.104  0.00  0.00    +0.190 C 
BRANCH  37  38
ATOM     38  O   UNL     1       3.997   4.799  24.339  0.00  0.00    -0.392 OA
ATOM     39  H   UNL     1       4.256   4.028  23.790  0.00  0.00    +0.210 HD
ENDBRANCH  37  38
ENDBRANCH  27  37
ENDBRANCH  24  25
ENDBRANCH   7  24
BRANCH   1  40
ATOM     40  O   UNL     1       6.281  -2.877  27.436  0.00  0.00    -0.453 OA
BRANCH  40  43
ATOM     41  C   UNL     1       3.380  -5.207  26.817  0.00  0.00    +0.179 C 
ATOM     42  O   UNL     1       4.161  -3.988  26.895  0.00  0.00    -0.331 OA
ATOM     43  C   UNL     1       5.572  -4.102  27.117  0.00  0.00    +0.340 C 
ATOM     44  C   UNL     1       6.005  -5.195  28.135  0.00  0.00    +0.214 C 
ATOM     45  C   UNL     1       5.323  -6.518  27.784  0.00  0.00    +0.180 C 
ATOM     46  C   UNL     1       3.806  -6.301  27.843  0.00  0.00    +0.177 C 
BRANCH  46  47
ATOM     47  O   UNL     1       3.130  -7.540  27.607  0.00  0.00    -0.386 OA
ATOM     48  H   UNL     1       3.779  -8.259  27.698  0.00  0.00    +0.210 HD
ENDBRANCH  46  47
BRANCH  45  49
ATOM     49  O   UNL     1       5.742  -7.549  28.690  0.00  0.00    -0.386 OA
ATOM     50  H   UNL     1       5.547  -7.229  29.591  0.00  0.00    +0.210 HD
ENDBRANCH  45  49
BRANCH  44  51
ATOM     51  O   UNL     1       5.681  -4.888  29.505  0.00  0.00    -0.383 OA
ATOM     52  H   UNL     1       5.167  -4.050  29.537  0.00  0.00    +0.210 HD
ENDBRANCH  44  51
BRANCH  41  53
ATOM     53  C   UNL     1       3.241  -5.820  25.385  0.00  0.00    +0.197 C 
BRANCH  53  54
ATOM     54  O   UNL     1       3.478  -4.955  24.278  0.00  0.00    -0.346 OA
BRANCH  54  58
ATOM     55  C   UNL     1       6.144  -2.206  22.287  0.00  0.00    +0.041 C 
ATOM     56  C   UNL     1       5.789  -3.618  21.824  0.00  0.00    +0.149 C 
ATOM     57  O   UNL     1       4.627  -4.085  22.525  0.00  0.00    -0.343 OA
ATOM     58  C   UNL     1       4.792  -4.588  23.866  0.00  0.00    +0.282 C 
ATOM     59  C   UNL     1       5.829  -5.734  23.821  0.00  0.00    +0.201 C 
ATOM     60  C   UNL     1       7.157  -5.123  23.331  0.00  0.00    +0.179 C 
ATOM     61  C   UNL     1       7.000  -4.566  21.908  0.00  0.00    +0.174 C 
BRANCH  61  62
ATOM     62  O   UNL     1       6.862  -5.637  20.964  0.00  0.00    -0.387 OA
ATOM     63  H   UNL     1       6.389  -6.365  21.425  0.00  0.00    +0.210 HD
ENDBRANCH  61  62
BRANCH  60  64
ATOM     64  O   UNL     1       8.230  -6.067  23.418  0.00  0.00    -0.386 OA
ATOM     65  H   UNL     1       8.338  -6.304  24.360  0.00  0.00    +0.210 HD
ENDBRANCH  60  64
BRANCH  59  66
ATOM     66  O   UNL     1       5.402  -6.776  22.913  0.00  0.00    -0.384 OA
ATOM     67  H   UNL     1       5.639  -7.629  23.329  0.00  0.00    +0.210 HD
ENDBRANCH  59  66
ENDBRANCH  54  58
ENDBRANCH  53  54
ENDBRANCH  41  53
ENDBRANCH  40  43
ENDBRANCH   1  40
TORSDOF 22
ENDMDL
MODEL 7
REMARK VINA RESULT:      -6.9      2.100      3.347
REMARK  Name = 
REMARK  23 active torsions:
REMARK  status: ('A' for Active; 'I' for Inactive)
REMARK    1  A    between atoms: C_1  and  C_2
REMARK    2  A    between atoms: C_3  and  O_62
REMARK    3  A    between atoms: C_5  and  O_61
REMARK    4  A    between atoms: C_7  and  O_60
REMARK    5  A    between atoms: C_8  and  O_11
REMARK    6  A    between atoms: O_11  and  C_12
REMARK    7  A    between atoms: C_12  and  C_13
REMARK    8  A    between atoms: C_14  and  O_59
REMARK    9  A    between atoms: C_16  and  O_58
REMARK   10  A    between atoms: C_17  and  O_57
REMARK   11  A    between atoms: C_18  and  O_21
REMARK   12  A    between atoms: O_21  and  C_22
REMARK   13  A    between atoms: C_23  and  C_49
REMARK   14  A    between atoms: C_27  and  O_34
REMARK   15  A    between atoms: C_29  and  O_33
REMARK   16  A    between atoms: O_34  and  C_35
REMARK   17  A    between atoms: C_37  and  O_48
REMARK   18  A    between atoms: C_38  and  O_47
REMARK   19  A    between atoms: C_40  and  O_46
REMARK   20  A    between atoms: C_42  and  C_44
REMARK   21  A    between atoms: C_44  and  O_45
REMARK   22  A    between atoms: C_51  and  O_56
REMARK   23  A    between atoms: C_52  and  O_55
REMARK                            x       y       z     vdW  Elec       q    Type
REMARK                         _______ _______ _______ _____ _____    ______ ____
ROOT
ATOM      1  C   UNL     1       8.111  -1.573  24.749  0.00  0.00    +0.214 A 
ATOM      2  C   UNL     1       8.276  -2.766  23.826  0.00  0.00    +0.238 A 
ATOM      3  O   UNL     1       9.215  -2.797  23.024  0.00  0.00    -0.283 OA
ATOM      4  C   UNL     1       7.292  -3.869  24.015  0.00  0.00    +0.109 A 
ATOM      5  C   UNL     1       6.656  -3.952  25.250  0.00  0.00    +0.147 A 
ATOM      6  C   UNL     1       5.704  -4.940  25.555  0.00  0.00    +0.093 A 
ATOM      7  C   UNL     1       5.296  -5.852  24.586  0.00  0.00    +0.131 A 
ATOM      8  C   UNL     1       5.921  -5.779  23.329  0.00  0.00    +0.092 A 
ATOM      9  O   UNL     1       6.890  -3.042  26.240  0.00  0.00    -0.451 OA
ATOM     10  C   UNL     1       6.929  -4.819  23.062  0.00  0.00    +0.135 A 
ATOM     11  C   UNL     1       7.374  -1.800  25.865  0.00  0.00    +0.181 A 
ENDROOT
BRANCH  11  12
ATOM     12  C   UNL     1       6.935  -0.754  26.823  0.00  0.00    +0.025 A 
ATOM     13  C   UNL     1       5.558  -0.585  27.028  0.00  0.00    +0.015 A 
ATOM     14  C   UNL     1       5.064   0.396  27.875  0.00  0.00    +0.050 A 
ATOM     15  C   UNL     1       5.947   1.095  28.683  0.00  0.00    +0.158 A 
ATOM     16  C   UNL     1       7.316   0.835  28.626  0.00  0.00    +0.159 A 
ATOM     17  C   UNL     1       7.823  -0.052  27.668  0.00  0.00    +0.060 A 
BRANCH  16  18
ATOM     18  O   UNL     1       8.107   1.380  29.596  0.00  0.00    -0.503 OA
ATOM     19  H   UNL     1       8.331   2.291  29.367  0.00  0.00    +0.292 HD
ENDBRANCH  16  18
BRANCH  15  20
ATOM     20  O   UNL     1       5.469   2.010  29.574  0.00  0.00    -0.503 OA
ATOM     21  H   UNL     1       5.000   2.696  29.075  0.00  0.00    +0.292 HD
ENDBRANCH  15  20
ENDBRANCH  11  12
BRANCH  10  22
ATOM     22  O   UNL     1       7.508  -4.794  21.825  0.00  0.00    -0.506 OA
ATOM     23  H   UNL     1       7.590  -5.709  21.502  0.00  0.00    +0.292 HD
ENDBRANCH  10  22
BRANCH   7  24
ATOM     24  O   UNL     1       4.287  -6.791  24.739  0.00  0.00    -0.461 OA
BRANCH  24  25
ATOM     25  C   UNL     1       2.933  -6.282  24.716  0.00  0.00    +0.339 C 
ATOM     26  O   UNL     1       2.548  -5.790  26.004  0.00  0.00    -0.331 OA
ATOM     27  C   UNL     1       2.455  -6.832  26.987  0.00  0.00    +0.179 C 
ATOM     28  C   UNL     1       1.332  -7.822  26.621  0.00  0.00    +0.177 C 
ATOM     29  C   UNL     1       1.561  -8.413  25.220  0.00  0.00    +0.180 C 
ATOM     30  C   UNL     1       1.875  -7.300  24.212  0.00  0.00    +0.214 C 
BRANCH  30  31
ATOM     31  O   UNL     1       2.170  -7.810  22.913  0.00  0.00    -0.383 OA
ATOM     32  H   UNL     1       3.098  -7.597  22.708  0.00  0.00    +0.210 HD
ENDBRANCH  30  31
BRANCH  29  33
ATOM     33  O   UNL     1       2.576  -9.428  25.275  0.00  0.00    -0.386 OA
ATOM     34  H   UNL     1       3.451  -9.007  25.309  0.00  0.00    +0.210 HD
ENDBRANCH  29  33
BRANCH  28  35
ATOM     35  O   UNL     1       1.234  -8.869  27.594  0.00  0.00    -0.386 OA
ATOM     36  H   UNL     1       0.637  -8.545  28.301  0.00  0.00    +0.210 HD
ENDBRANCH  28  35
BRANCH  27  37
ATOM     37  C   UNL     1       2.209  -6.179  28.354  0.00  0.00    +0.190 C 
BRANCH  37  38
ATOM     38  O   UNL     1       2.451  -7.073  29.433  0.00  0.00    -0.392 OA
ATOM     39  H   UNL     1       2.898  -7.863  29.059  0.00  0.00    +0.210 HD
ENDBRANCH  37  38
ENDBRANCH  27  37
ENDBRANCH  24  25
ENDBRANCH   7  24
BRANCH   1  40
ATOM     40  O   UNL     1       8.784  -0.382  24.534  0.00  0.00    -0.453 OA
BRANCH  40  43
ATOM     41  C   UNL     1       7.396   2.237  22.201  0.00  0.00    +0.179 C 
ATOM     42  O   UNL     1       7.757   0.941  22.740  0.00  0.00    -0.331 OA
ATOM     43  C   UNL     1       8.199   0.873  24.102  0.00  0.00    +0.340 C 
ATOM     44  C   UNL     1       9.131   2.030  24.563  0.00  0.00    +0.214 C 
ATOM     45  C   UNL     1       8.507   3.372  24.178  0.00  0.00    +0.180 C 
ATOM     46  C   UNL     1       8.335   3.397  22.655  0.00  0.00    +0.177 C 
BRANCH  46  47
ATOM     47  O   UNL     1       7.834   4.674  22.244  0.00  0.00    -0.386 OA
ATOM     48  H   UNL     1       7.492   5.130  23.033  0.00  0.00    +0.210 HD
ENDBRANCH  46  47
BRANCH  45  49
ATOM     49  O   UNL     1       9.335   4.453  24.631  0.00  0.00    -0.386 OA
ATOM     50  H   UNL     1      10.010   4.598  23.943  0.00  0.00    +0.210 HD
ENDBRANCH  45  49
BRANCH  44  51
ATOM     51  O   UNL     1      10.454   1.985  23.994  0.00  0.00    -0.383 OA
ATOM     52  H   UNL     1      11.009   2.684  24.408  0.00  0.00    +0.210 HD
ENDBRANCH  44  51
BRANCH  41  53
ATOM     53  C   UNL     1       5.896   2.641  22.382  0.00  0.00    +0.197 C 
BRANCH  53  54
ATOM     54  O   UNL     1       5.252   2.239  23.587  0.00  0.00    -0.346 OA
BRANCH  54  58
ATOM     55  C   UNL     1       3.036   3.390  27.107  0.00  0.00    +0.041 C 
ATOM     56  C   UNL     1       2.491   2.618  25.907  0.00  0.00    +0.149 C 
ATOM     57  O   UNL     1       3.577   2.117  25.113  0.00  0.00    -0.343 OA
ATOM     58  C   UNL     1       4.235   3.023  24.205  0.00  0.00    +0.282 C 
ATOM     59  C   UNL     1       3.165   3.610  23.256  0.00  0.00    +0.201 C 
ATOM     60  C   UNL     1       2.164   4.391  24.131  0.00  0.00    +0.179 C 
ATOM     61  C   UNL     1       1.461   3.447  25.118  0.00  0.00    +0.174 C 
BRANCH  61  62
ATOM     62  O   UNL     1       0.552   2.582  24.422  0.00  0.00    -0.387 OA
ATOM     63  H   UNL     1       0.576   2.845  23.475  0.00  0.00    +0.210 HD
ENDBRANCH  61  62
BRANCH  60  64
ATOM     64  O   UNL     1       1.227   5.118  23.329  0.00  0.00    -0.386 OA
ATOM     65  H   UNL     1       1.336   4.819  22.405  0.00  0.00    +0.210 HD
ENDBRANCH  60  64
BRANCH  59  66
ATOM     66  O   UNL     1       2.477   2.553  22.545  0.00  0.00    -0.384 OA
ATOM     67  H   UNL     1       2.680   1.719  23.015  0.00  0.00    +0.210 HD
ENDBRANCH  59  66
ENDBRANCH  54  58
ENDBRANCH  53  54
ENDBRANCH  41  53
ENDBRANCH  40  43
ENDBRANCH   1  40
TORSDOF 22
ENDMDL
MODEL 8
REMARK VINA RESULT:      -6.7      2.032      9.917
REMARK  Name = 
REMARK  23 active torsions:
REMARK  status: ('A' for Active; 'I' for Inactive)
REMARK    1  A    between atoms: C_1  and  C_2
REMARK    2  A    between atoms: C_3  and  O_62
REMARK    3  A    between atoms: C_5  and  O_61
REMARK    4  A    between atoms: C_7  and  O_60
REMARK    5  A    between atoms: C_8  and  O_11
REMARK    6  A    between atoms: O_11  and  C_12
REMARK    7  A    between atoms: C_12  and  C_13
REMARK    8  A    between atoms: C_14  and  O_59
REMARK    9  A    between atoms: C_16  and  O_58
REMARK   10  A    between atoms: C_17  and  O_57
REMARK   11  A    between atoms: C_18  and  O_21
REMARK   12  A    between atoms: O_21  and  C_22
REMARK   13  A    between atoms: C_23  and  C_49
REMARK   14  A    between atoms: C_27  and  O_34
REMARK   15  A    between atoms: C_29  and  O_33
REMARK   16  A    between atoms: O_34  and  C_35
REMARK   17  A    between atoms: C_37  and  O_48
REMARK   18  A    between atoms: C_38  and  O_47
REMARK   19  A    between atoms: C_40  and  O_46
REMARK   20  A    between atoms: C_42  and  C_44
REMARK   21  A    between atoms: C_44  and  O_45
REMARK   22  A    between atoms: C_51  and  O_56
REMARK   23  A    between atoms: C_52  and  O_55
REMARK                            x       y       z     vdW  Elec       q    Type
REMARK                         _______ _______ _______ _____ _____    ______ ____
ROOT
ATOM      1  C   UNL     1       5.100  -2.408  27.573  0.00  0.00    +0.214 A 
ATOM      2  C   UNL     1       4.188  -1.227  27.849  0.00  0.00    +0.238 A 
ATOM      3  O   UNL     1       3.223  -1.360  28.608  0.00  0.00    -0.283 OA
ATOM      4  C   UNL     1       4.586   0.058  27.207  0.00  0.00    +0.109 A 
ATOM      5  C   UNL     1       5.920   0.202  26.842  0.00  0.00    +0.147 A 
ATOM      6  C   UNL     1       6.423   1.361  26.224  0.00  0.00    +0.093 A 
ATOM      7  C   UNL     1       5.570   2.404  25.877  0.00  0.00    +0.131 A 
ATOM      8  C   UNL     1       4.215   2.273  26.230  0.00  0.00    +0.092 A 
ATOM      9  O   UNL     1       6.827  -0.800  27.026  0.00  0.00    -0.451 OA
ATOM     10  C   UNL     1       3.740   1.127  26.915  0.00  0.00    +0.135 A 
ATOM     11  C   UNL     1       6.340  -2.092  27.125  0.00  0.00    +0.181 A 
ENDROOT
BRANCH  11  12
ATOM     12  C   UNL     1       7.341  -3.070  26.629  0.00  0.00    +0.025 A 
ATOM     13  C   UNL     1       7.181  -4.416  26.988  0.00  0.00    +0.015 A 
ATOM     14  C   UNL     1       8.093  -5.386  26.601  0.00  0.00    +0.050 A 
ATOM     15  C   UNL     1       9.077  -5.056  25.682  0.00  0.00    +0.158 A 
ATOM     16  C   UNL     1       9.165  -3.760  25.173  0.00  0.00    +0.159 A 
ATOM     17  C   UNL     1       8.334  -2.752  25.675  0.00  0.00    +0.060 A 
BRANCH  16  18
ATOM     18  O   UNL     1       9.996  -3.550  24.110  0.00  0.00    -0.503 OA
ATOM     19  H   UNL     1       9.814  -2.689  23.713  0.00  0.00    +0.292 HD
ENDBRANCH  16  18
BRANCH  15  20
ATOM     20  O   UNL     1       9.935  -6.017  25.235  0.00  0.00    -0.503 OA
ATOM     21  H   UNL     1       9.825  -6.094  24.275  0.00  0.00    +0.292 HD
ENDBRANCH  15  20
ENDBRANCH  11  12
BRANCH  10  22
ATOM     22  O   UNL     1       2.415   1.051  27.239  0.00  0.00    -0.506 OA
ATOM     23  H   UNL     1       2.183   1.825  27.782  0.00  0.00    +0.292 HD
ENDBRANCH  10  22
BRANCH   7  24
ATOM     24  O   UNL     1       5.932   3.538  25.165  0.00  0.00    -0.461 OA
BRANCH  24  25
ATOM     25  C   UNL     1       5.474   3.604  23.794  0.00  0.00    +0.339 C 
ATOM     26  O   UNL     1       5.687   2.359  23.122  0.00  0.00    -0.331 OA
ATOM     27  C   UNL     1       7.079   2.053  22.953  0.00  0.00    +0.179 C 
ATOM     28  C   UNL     1       7.752   3.088  22.031  0.00  0.00    +0.177 C 
ATOM     29  C   UNL     1       7.568   4.511  22.582  0.00  0.00    +0.180 C 
ATOM     30  C   UNL     1       6.102   4.755  22.964  0.00  0.00    +0.214 C 
BRANCH  30  31
ATOM     31  O   UNL     1       5.900   6.038  23.553  0.00  0.00    -0.383 OA
ATOM     32  H   UNL     1       6.582   6.169  24.236  0.00  0.00    +0.210 HD
ENDBRANCH  30  31
BRANCH  29  33
ATOM     33  O   UNL     1       8.480   4.739  23.670  0.00  0.00    -0.386 OA
ATOM     34  H   UNL     1       9.392   4.688  23.340  0.00  0.00    +0.210 HD
ENDBRANCH  29  33
BRANCH  28  35
ATOM     35  O   UNL     1       9.144   2.796  21.860  0.00  0.00    -0.386 OA
ATOM     36  H   UNL     1       9.528   2.708  22.758  0.00  0.00    +0.210 HD
ENDBRANCH  28  35
BRANCH  27  37
ATOM     37  C   UNL     1       7.193   0.632  22.384  0.00  0.00    +0.190 C 
BRANCH  37  38
ATOM     38  O   UNL     1       8.489   0.077  22.568  0.00  0.00    -0.392 OA
ATOM     39  H   UNL     1       9.047   0.774  22.975  0.00  0.00    +0.210 HD
ENDBRANCH  37  38
ENDBRANCH  27  37
ENDBRANCH  24  25
ENDBRANCH   7  24
BRANCH   1  40
ATOM     40  O   UNL     1       4.735  -3.706  27.893  0.00  0.00    -0.453 OA
BRANCH  40  43
ATOM     41  C   UNL     1       1.888  -4.835  25.693  0.00  0.00    +0.179 C 
ATOM     42  O   UNL     1       2.880  -3.978  26.310  0.00  0.00    -0.331 OA
ATOM     43  C   UNL     1       3.912  -4.592  27.093  0.00  0.00    +0.340 C 
ATOM     44  C   UNL     1       3.456  -5.778  27.991  0.00  0.00    +0.214 C 
ATOM     45  C   UNL     1       2.639  -6.765  27.157  0.00  0.00    +0.180 C 
ATOM     46  C   UNL     1       1.422  -6.019  26.595  0.00  0.00    +0.177 C 
BRANCH  46  47
ATOM     47  O   UNL     1       0.583  -6.931  25.879  0.00  0.00    -0.386 OA
ATOM     48  H   UNL     1      -0.296  -6.923  26.298  0.00  0.00    +0.210 HD
ENDBRANCH  46  47
BRANCH  45  49
ATOM     49  O   UNL     1       2.243  -7.886  27.960  0.00  0.00    -0.386 OA
ATOM     50  H   UNL     1       1.896  -8.562  27.349  0.00  0.00    +0.210 HD
ENDBRANCH  45  49
BRANCH  44  51
ATOM     51  O   UNL     1       2.649  -5.388  29.119  0.00  0.00    -0.383 OA
ATOM     52  H   UNL     1       2.711  -4.413  29.241  0.00  0.00    +0.210 HD
ENDBRANCH  44  51
BRANCH  41  53
ATOM     53  C   UNL     1       2.244  -5.344  24.258  0.00  0.00    +0.197 C 
BRANCH  53  54
ATOM     54  O   UNL     1       3.498  -5.998  24.089  0.00  0.00    -0.346 OA
BRANCH  54  58
ATOM     55  C   UNL     1       5.661  -2.280  23.728  0.00  0.00    +0.041 C 
ATOM     56  C   UNL     1       5.212  -3.181  22.579  0.00  0.00    +0.149 C 
ATOM     57  O   UNL     1       4.232  -4.120  23.047  0.00  0.00    -0.343 OA
ATOM     58  C   UNL     1       4.689  -5.288  23.758  0.00  0.00    +0.282 C 
ATOM     59  C   UNL     1       5.690  -6.039  22.850  0.00  0.00    +0.201 C 
ATOM     60  C   UNL     1       6.878  -5.087  22.604  0.00  0.00    +0.179 C 
ATOM     61  C   UNL     1       6.412  -3.826  21.860  0.00  0.00    +0.174 C 
BRANCH  61  62
ATOM     62  O   UNL     1       6.068  -4.144  20.504  0.00  0.00    -0.387 OA
ATOM     63  H   UNL     1       6.230  -3.334  19.970  0.00  0.00    +0.210 HD
ENDBRANCH  61  62
BRANCH  60  64
ATOM     64  O   UNL     1       7.943  -5.749  21.913  0.00  0.00    -0.386 OA
ATOM     65  H   UNL     1       8.719  -5.754  22.507  0.00  0.00    +0.210 HD
ENDBRANCH  60  64
BRANCH  59  66
ATOM     66  O   UNL     1       5.073  -6.392  21.590  0.00  0.00    -0.384 OA
ATOM     67  H   UNL     1       4.161  -6.039  21.614  0.00  0.00    +0.210 HD
ENDBRANCH  59  66
ENDBRANCH  54  58
ENDBRANCH  53  54
ENDBRANCH  41  53
ENDBRANCH  40  43
ENDBRANCH   1  40
TORSDOF 22
ENDMDL
MODEL 9
REMARK VINA RESULT:      -6.6      2.111      3.297
REMARK  Name = 
REMARK  23 active torsions:
REMARK  status: ('A' for Active; 'I' for Inactive)
REMARK    1  A    between atoms: C_1  and  C_2
REMARK    2  A    between atoms: C_3  and  O_62
REMARK    3  A    between atoms: C_5  and  O_61
REMARK    4  A    between atoms: C_7  and  O_60
REMARK    5  A    between atoms: C_8  and  O_11
REMARK    6  A    between atoms: O_11  and  C_12
REMARK    7  A    between atoms: C_12  and  C_13
REMARK    8  A    between atoms: C_14  and  O_59
REMARK    9  A    between atoms: C_16  and  O_58
REMARK   10  A    between atoms: C_17  and  O_57
REMARK   11  A    between atoms: C_18  and  O_21
REMARK   12  A    between atoms: O_21  and  C_22
REMARK   13  A    between atoms: C_23  and  C_49
REMARK   14  A    between atoms: C_27  and  O_34
REMARK   15  A    between atoms: C_29  and  O_33
REMARK   16  A    between atoms: O_34  and  C_35
REMARK   17  A    between atoms: C_37  and  O_48
REMARK   18  A    between atoms: C_38  and  O_47
REMARK   19  A    between atoms: C_40  and  O_46
REMARK   20  A    between atoms: C_42  and  C_44
REMARK   21  A    between atoms: C_44  and  O_45
REMARK   22  A    between atoms: C_51  and  O_56
REMARK   23  A    between atoms: C_52  and  O_55
REMARK                            x       y       z     vdW  Elec       q    Type
REMARK                         _______ _______ _______ _____ _____    ______ ____
ROOT
ATOM      1  C   UNL     1       7.340  -1.630  26.166  0.00  0.00    +0.214 A 
ATOM      2  C   UNL     1       7.913  -2.858  25.484  0.00  0.00    +0.238 A 
ATOM      3  O   UNL     1       9.127  -2.934  25.273  0.00  0.00    -0.283 OA
ATOM      4  C   UNL     1       6.934  -3.938  25.172  0.00  0.00    +0.109 A 
ATOM      5  C   UNL     1       5.756  -3.964  25.912  0.00  0.00    +0.147 A 
ATOM      6  C   UNL     1       4.749  -4.925  25.713  0.00  0.00    +0.093 A 
ATOM      7  C   UNL     1       4.860  -5.865  24.694  0.00  0.00    +0.131 A 
ATOM      8  C   UNL     1       6.039  -5.849  23.929  0.00  0.00    +0.092 A 
ATOM      9  O   UNL     1       5.484  -3.023  26.861  0.00  0.00    -0.451 OA
ATOM     10  C   UNL     1       7.074  -4.916  24.189  0.00  0.00    +0.135 A 
ATOM     11  C   UNL     1       6.131  -1.803  26.756  0.00  0.00    +0.181 A 
ENDROOT
BRANCH  11  12
ATOM     12  C   UNL     1       5.301  -0.716  27.332  0.00  0.00    +0.025 A 
ATOM     13  C   UNL     1       5.819   0.002  28.419  0.00  0.00    +0.015 A 
ATOM     14  C   UNL     1       5.091   1.006  29.041  0.00  0.00    +0.050 A 
ATOM     15  C   UNL     1       3.911   1.441  28.459  0.00  0.00    +0.158 A 
ATOM     16  C   UNL     1       3.447   0.860  27.278  0.00  0.00    +0.159 A 
ATOM     17  C   UNL     1       4.109  -0.248  26.735  0.00  0.00    +0.060 A 
BRANCH  16  18
ATOM     18  O   UNL     1       2.414   1.474  26.631  0.00  0.00    -0.503 OA
ATOM     19  H   UNL     1       1.994   2.118  27.215  0.00  0.00    +0.292 HD
ENDBRANCH  16  18
BRANCH  15  20
ATOM     20  O   UNL     1       3.222   2.477  29.018  0.00  0.00    -0.503 OA
ATOM     21  H   UNL     1       2.514   2.104  29.564  0.00  0.00    +0.292 HD
ENDBRANCH  15  20
ENDBRANCH  11  12
BRANCH  10  22
ATOM     22  O   UNL     1       8.202  -4.946  23.419  0.00  0.00    -0.506 OA
ATOM     23  H   UNL     1       8.914  -4.482  23.893  0.00  0.00    +0.292 HD
ENDBRANCH  10  22
BRANCH   7  24
ATOM     24  O   UNL     1       3.883  -6.782  24.333  0.00  0.00    -0.461 OA
BRANCH  24  25
ATOM     25  C   UNL     1       2.540  -6.492  24.785  0.00  0.00    +0.339 C 
ATOM     26  O   UNL     1       1.967  -7.623  25.449  0.00  0.00    -0.331 OA
ATOM     27  C   UNL     1       1.748  -8.731  24.564  0.00  0.00    +0.179 C 
ATOM     28  C   UNL     1       0.703  -8.368  23.490  0.00  0.00    +0.177 C 
ATOM     29  C   UNL     1       1.139  -7.119  22.706  0.00  0.00    +0.180 C 
ATOM     30  C   UNL     1       1.579  -6.007  23.666  0.00  0.00    +0.214 C 
BRANCH  30  31
ATOM     31  O   UNL     1       2.065  -4.855  22.979  0.00  0.00    -0.383 OA
ATOM     32  H   UNL     1       2.330  -5.128  22.082  0.00  0.00    +0.210 HD
ENDBRANCH  30  31
BRANCH  29  33
ATOM     33  O   UNL     1       2.150  -7.469  21.747  0.00  0.00    -0.386 OA
ATOM     34  H   UNL     1       1.731  -7.889  20.977  0.00  0.00    +0.210 HD
ENDBRANCH  29  33
BRANCH  28  35
ATOM     35  O   UNL     1       0.481  -9.465  22.598  0.00  0.00    -0.386 OA
ATOM     36  H   UNL     1      -0.457  -9.730  22.700  0.00  0.00    +0.210 HD
ENDBRANCH  28  35
BRANCH  27  37
ATOM     37  C   UNL     1       1.299  -9.935  25.403  0.00  0.00    +0.190 C 
BRANCH  37  38
ATOM     38  O   UNL     1       1.313  -9.658  26.798  0.00  0.00    -0.392 OA
ATOM     39  H   UNL     1       0.436  -9.920  27.154  0.00  0.00    +0.210 HD
ENDBRANCH  37  38
ENDBRANCH  27  37
ENDBRANCH  24  25
ENDBRANCH   7  24
BRANCH   1  40
ATOM     40  O   UNL     1       8.068  -0.458  26.296  0.00  0.00    -0.453 OA
BRANCH  40  43
ATOM     41  C   UNL     1       7.694   1.329  22.995  0.00  0.00    +0.179 C 
ATOM     42  O   UNL     1       7.389   0.488  24.137  0.00  0.00    -0.331 OA
ATOM     43  C   UNL     1       8.250   0.561  25.280  0.00  0.00    +0.340 C 
ATOM     44  C   UNL     1       9.769   0.675  24.970  0.00  0.00    +0.214 C 
ATOM     45  C   UNL     1       9.999   1.789  23.948  0.00  0.00    +0.180 C 
ATOM     46  C   UNL     1       9.217   1.437  22.676  0.00  0.00    +0.177 C 
BRANCH  46  47
ATOM     47  O   UNL     1       9.477   2.413  21.662  0.00  0.00    -0.386 OA
ATOM     48  H   UNL     1       8.827   3.131  21.762  0.00  0.00    +0.210 HD
ENDBRANCH  46  47
BRANCH  45  49
ATOM     49  O   UNL     1      11.401   1.935  23.679  0.00  0.00    -0.386 OA
ATOM     50  H   UNL     1      11.790   1.042  23.718  0.00  0.00    +0.210 HD
ENDBRANCH  45  49
BRANCH  44  51
ATOM     51  O   UNL     1      10.356  -0.530  24.440  0.00  0.00    -0.383 OA
ATOM     52  H   UNL     1      11.326  -0.517  24.603  0.00  0.00    +0.210 HD
ENDBRANCH  44  51
BRANCH  41  53
ATOM     53  C   UNL     1       7.034   2.746  23.014  0.00  0.00    +0.197 C 
BRANCH  53  54
ATOM     54  O   UNL     1       5.856   2.929  22.234  0.00  0.00    -0.346 OA
BRANCH  54  58
ATOM     55  C   UNL     1       4.507   6.807  23.565  0.00  0.00    +0.041 C 
ATOM     56  C   UNL     1       4.513   5.519  24.388  0.00  0.00    +0.149 C 
ATOM     57  O   UNL     1       5.345   4.537  23.752  0.00  0.00    -0.343 OA
ATOM     58  C   UNL     1       4.802   3.798  22.639  0.00  0.00    +0.282 C 
ATOM     59  C   UNL     1       3.502   3.107  23.112  0.00  0.00    +0.201 C 
ATOM     60  C   UNL     1       2.520   4.223  23.520  0.00  0.00    +0.179 C 
ATOM     61  C   UNL     1       3.084   5.034  24.696  0.00  0.00    +0.174 C 
BRANCH  61  62
ATOM     62  O   UNL     1       3.073   4.248  25.897  0.00  0.00    -0.387 OA
ATOM     63  H   UNL     1       2.799   4.846  26.627  0.00  0.00    +0.210 HD
ENDBRANCH  61  62
BRANCH  60  64
ATOM     64  O   UNL     1       1.222   3.695  23.812  0.00  0.00    -0.386 OA
ATOM     65  H   UNL     1       0.660   4.439  24.103  0.00  0.00    +0.210 HD
ENDBRANCH  60  64
BRANCH  59  66
ATOM     66  O   UNL     1       3.765   2.244  24.244  0.00  0.00    -0.384 OA
ATOM     67  H   UNL     1       4.712   2.348  24.464  0.00  0.00    +0.210 HD
ENDBRANCH  59  66
ENDBRANCH  54  58
ENDBRANCH  53  54
ENDBRANCH  41  53
ENDBRANCH  40  43
ENDBRANCH   1  40
TORSDOF 22
ENDMDL
