MODEL 1
REMARK VINA RESULT:      -7.5      0.000      0.000
REMARK  Name = 
REMARK  28 active torsions:
REMARK  status: ('A' for Active; 'I' for Inactive)
REMARK    1  A    between atoms: C_1  and  C_2
REMARK    2  A    between atoms: C_3  and  O_75
REMARK    3  A    between atoms: C_5  and  O_74
REMARK    4  A    between atoms: C_6  and  O_73
REMARK    5  A    between atoms: C_8  and  O_11
REMARK    6  A    between atoms: O_11  and  C_12
REMARK    7  A    between atoms: C_14  and  O_72
REMARK    8  A    between atoms: C_19  and  C_64
REMARK    9  A    between atoms: C_20  and  O_23
REMARK   10  A    between atoms: O_23  and  C_24
REMARK   11  A    between atoms: C_26  and  O_49
REMARK   12  A    between atoms: C_27  and  O_48
REMARK   13  A    between atoms: C_29  and  O_47
REMARK   14  A    between atoms: C_31  and  C_33
REMARK   15  A    between atoms: C_33  and  O_34
REMARK   16  A    between atoms: O_34  and  C_35
REMARK   17  A    between atoms: C_35  and  C_37
REMARK   18  A    between atoms: C_38  and  C_39
REMARK   19  A    between atoms: C_41  and  O_46
REMARK   20  A    between atoms: C_42  and  O_45
REMARK   21  A    between atoms: O_49  and  C_50
REMARK   22  A    between atoms: C_52  and  O_63
REMARK   23  A    between atoms: C_53  and  O_62
REMARK   24  A    between atoms: C_55  and  O_61
REMARK   25  A    between atoms: C_57  and  C_59
REMARK   26  A    between atoms: C_59  and  O_60
REMARK   27  A    between atoms: C_66  and  O_71
REMARK   28  A    between atoms: C_67  and  O_70
REMARK                            x       y       z     vdW  Elec       q    Type
REMARK                         _______ _______ _______ _____ _____    ______ ____
ROOT
ATOM      1  C   UNL     1       4.903  -4.114  25.457  0.00  0.00    +0.340 C 
ATOM      2  O   UNL     1       5.305  -5.019  24.404  0.00  0.00    -0.330 OA
ATOM      3  C   UNL     1       4.251  -5.427  23.509  0.00  0.00    +0.191 C 
ATOM      4  C   UNL     1       3.149  -6.153  24.286  0.00  0.00    +0.178 C 
ATOM      5  C   UNL     1       2.544  -5.161  25.278  0.00  0.00    +0.180 C 
ATOM      6  C   UNL     1       3.623  -4.614  26.230  0.00  0.00    +0.221 C 
ENDROOT
BRANCH   5   7
ATOM      7  O   UNL     1       1.861  -4.113  24.586  0.00  0.00    -0.386 OA
ATOM      8  H   UNL     1       0.923  -4.367  24.508  0.00  0.00    +0.210 HD
ENDBRANCH   5   7
BRANCH   4   9
ATOM      9  O   UNL     1       3.688  -7.300  24.963  0.00  0.00    -0.386 OA
ATOM     10  H   UNL     1       4.123  -6.992  25.780  0.00  0.00    +0.210 HD
ENDBRANCH   4   9
BRANCH   6  11
ATOM     11  O   UNL     1       3.113  -3.713  27.278  0.00  0.00    -0.337 OA
BRANCH  11  12
ATOM     12  C   UNL     1       3.072  -4.281  28.629  0.00  0.00    +0.282 C 
ATOM     13  O   UNL     1       2.912  -5.737  28.622  0.00  0.00    -0.341 OA
ATOM     14  C   UNL     1       1.590  -6.269  28.332  0.00  0.00    +0.178 C 
ATOM     15  C   UNL     1       0.451  -5.551  29.091  0.00  0.00    +0.177 C 
ATOM     16  C   UNL     1       0.610  -4.044  28.961  0.00  0.00    +0.179 C 
ATOM     17  C   UNL     1       1.979  -3.678  29.555  0.00  0.00    +0.201 C 
BRANCH  17  18
ATOM     18  O   UNL     1       2.098  -2.271  29.802  0.00  0.00    -0.384 OA
ATOM     19  H   UNL     1       1.237  -1.953  30.134  0.00  0.00    +0.210 HD
ENDBRANCH  17  18
BRANCH  16  20
ATOM     20  O   UNL     1       0.450  -3.624  27.607  0.00  0.00    -0.386 OA
ATOM     21  H   UNL     1      -0.024  -2.762  27.581  0.00  0.00    +0.210 HD
ENDBRANCH  16  20
BRANCH  15  22
ATOM     22  O   UNL     1       0.456  -5.906  30.485  0.00  0.00    -0.386 OA
ATOM     23  H   UNL     1       1.375  -5.894  30.809  0.00  0.00    +0.210 HD
ENDBRANCH  15  22
BRANCH  14  24
ATOM     24  C   UNL     1       1.453  -7.782  28.655  0.00  0.00    +0.190 C 
BRANCH  24  25
ATOM     25  O   UNL     1       2.444  -8.275  29.549  0.00  0.00    -0.392 OA
ATOM     26  H   UNL     1       2.870  -9.038  29.129  0.00  0.00    +0.210 HD
ENDBRANCH  24  25
ENDBRANCH  14  24
ENDBRANCH  11  12
ENDBRANCH   6  11
BRANCH   3  27
ATOM     27  C   UNL     1       4.848  -6.341  22.416  0.00  0.00    +0.266 C 
BRANCH  27  28
ATOM     28  O   UNL     1       5.509  -5.545  21.410  0.00  0.00    -0.459 OA
BRANCH  28  29
ATOM     29  C   UNL     1       6.782  -5.197  21.720  0.00  0.00    +0.332 C 
ATOM     30  O   UNL     1       7.686  -5.960  22.031  0.00  0.00    -0.246 OA
BRANCH  29  31
ATOM     31  C   UNL     1       6.920  -3.736  21.572  0.00  0.00    +0.092 C 
ATOM     32  C   UNL     1       7.852  -3.109  22.318  0.00  0.00    +0.015 C 
BRANCH  32  33
ATOM     33  C   UNL     1       8.189  -1.682  22.272  0.00  0.00    -0.021 A 
ATOM     34  C   UNL     1       9.436  -1.329  21.729  0.00  0.00    +0.012 A 
ATOM     35  C   UNL     1       9.787   0.007  21.521  0.00  0.00    +0.050 A 
ATOM     36  C   UNL     1       8.919   0.998  21.939  0.00  0.00    +0.158 A 
ATOM     37  C   UNL     1       7.736   0.662  22.580  0.00  0.00    +0.159 A 
ATOM     38  C   UNL     1       7.354  -0.663  22.743  0.00  0.00    +0.057 A 
BRANCH  37  39
ATOM     39  O   UNL     1       6.964   1.699  23.049  0.00  0.00    -0.503 OA
ATOM     40  H   UNL     1       7.564   2.423  23.295  0.00  0.00    +0.292 HD
ENDBRANCH  37  39
BRANCH  36  41
ATOM     41  O   UNL     1       9.241   2.302  21.694  0.00  0.00    -0.503 OA
ATOM     42  H   UNL     1       9.768   2.573  22.471  0.00  0.00    +0.292 HD
ENDBRANCH  36  41
ENDBRANCH  32  33
ENDBRANCH  29  31
ENDBRANCH  28  29
ENDBRANCH  27  28
ENDBRANCH   3  27
BRANCH   1  43
ATOM     43  O   UNL     1       4.817  -2.774  24.965  0.00  0.00    -0.453 OA
BRANCH  43  49
ATOM     44  C   UNL     1       6.828   3.026  26.692  0.00  0.00    +0.131 A 
ATOM     45  C   UNL     1       7.324   1.739  26.916  0.00  0.00    +0.093 A 
ATOM     46  C   UNL     1       6.513   0.619  26.722  0.00  0.00    +0.147 A 
ATOM     47  O   UNL     1       7.059  -0.614  26.962  0.00  0.00    -0.451 OA
ATOM     48  C   UNL     1       6.507  -1.687  26.270  0.00  0.00    +0.181 A 
ATOM     49  C   UNL     1       5.254  -1.708  25.757  0.00  0.00    +0.214 A 
ATOM     50  C   UNL     1       4.436  -0.496  26.124  0.00  0.00    +0.238 A 
ATOM     51  O   UNL     1       3.233  -0.531  26.342  0.00  0.00    -0.283 OA
ATOM     52  C   UNL     1       5.203   0.756  26.292  0.00  0.00    +0.109 A 
ATOM     53  C   UNL     1       4.704   2.035  26.037  0.00  0.00    +0.135 A 
ATOM     54  C   UNL     1       5.507   3.166  26.251  0.00  0.00    +0.092 A 
BRANCH  48  55
ATOM     55  C   UNL     1       7.458  -2.793  26.121  0.00  0.00    +0.025 A 
ATOM     56  C   UNL     1       8.619  -2.608  25.354  0.00  0.00    +0.015 A 
ATOM     57  C   UNL     1       9.528  -3.649  25.181  0.00  0.00    +0.050 A 
ATOM     58  C   UNL     1       9.302  -4.854  25.823  0.00  0.00    +0.158 A 
ATOM     59  C   UNL     1       8.210  -5.008  26.667  0.00  0.00    +0.159 A 
ATOM     60  C   UNL     1       7.255  -4.006  26.796  0.00  0.00    +0.060 A 
BRANCH  59  61
ATOM     61  O   UNL     1       8.141  -6.159  27.396  0.00  0.00    -0.503 OA
ATOM     62  H   UNL     1       9.032  -6.557  27.416  0.00  0.00    +0.292 HD
ENDBRANCH  59  61
BRANCH  58  63
ATOM     63  O   UNL     1      10.151  -5.897  25.607  0.00  0.00    -0.503 OA
ATOM     64  H   UNL     1       9.872  -6.580  26.247  0.00  0.00    +0.292 HD
ENDBRANCH  58  63
ENDBRANCH  48  55
BRANCH  53  65
ATOM     65  O   UNL     1       3.450   2.193  25.521  0.00  0.00    -0.506 OA
ATOM     66  H   UNL     1       3.500   2.325  24.560  0.00  0.00    +0.292 HD
ENDBRANCH  53  65
BRANCH  44  67
ATOM     67  O   UNL     1       7.521   4.204  26.855  0.00  0.00    -0.461 OA
BRANCH  67  71
ATOM     68  C   UNL     1       5.939   7.108  24.179  0.00  0.00    +0.041 C 
ATOM     69  C   UNL     1       6.412   5.739  23.706  0.00  0.00    +0.150 C 
ATOM     70  O   UNL     1       6.516   4.818  24.797  0.00  0.00    -0.334 OA
ATOM     71  C   UNL     1       7.576   5.091  25.725  0.00  0.00    +0.339 C 
ATOM     72  C   UNL     1       8.941   4.990  24.997  0.00  0.00    +0.214 C 
ATOM     73  C   UNL     1       8.941   5.988  23.827  0.00  0.00    +0.180 C 
ATOM     74  C   UNL     1       7.723   5.782  22.911  0.00  0.00    +0.174 C 
BRANCH  74  75
ATOM     75  O   UNL     1       7.907   4.538  22.209  0.00  0.00    -0.387 OA
ATOM     76  H   UNL     1       8.867   4.331  22.261  0.00  0.00    +0.210 HD
ENDBRANCH  74  75
BRANCH  73  77
ATOM     77  O   UNL     1      10.145   5.818  23.060  0.00  0.00    -0.386 OA
ATOM     78  H   UNL     1      10.787   5.387  23.664  0.00  0.00    +0.210 HD
ENDBRANCH  73  77
BRANCH  72  79
ATOM     79  O   UNL     1       9.172   3.666  24.472  0.00  0.00    -0.383 OA
ATOM     80  H   UNL     1      10.144   3.569  24.444  0.00  0.00    +0.210 HD
ENDBRANCH  72  79
ENDBRANCH  67  71
ENDBRANCH  44  67
ENDBRANCH  43  49
ENDBRANCH   1  43
TORSDOF 27
ENDMDL
MODEL 2
REMARK VINA RESULT:      -6.9      2.863      5.369
REMARK  Name = 
REMARK  28 active torsions:
REMARK  status: ('A' for Active; 'I' for Inactive)
REMARK    1  A    between atoms: C_1  and  C_2
REMARK    2  A    between atoms: C_3  and  O_75
REMARK    3  A    between atoms: C_5  and  O_74
REMARK    4  A    between atoms: C_6  and  O_73
REMARK    5  A    between atoms: C_8  and  O_11
REMARK    6  A    between atoms: O_11  and  C_12
REMARK    7  A    between atoms: C_14  and  O_72
REMARK    8  A    between atoms: C_19  and  C_64
REMARK    9  A    between atoms: C_20  and  O_23
REMARK   10  A    between atoms: O_23  and  C_24
REMARK   11  A    between atoms: C_26  and  O_49
REMARK   12  A    between atoms: C_27  and  O_48
REMARK   13  A    between atoms: C_29  and  O_47
REMARK   14  A    between atoms: C_31  and  C_33
REMARK   15  A    between atoms: C_33  and  O_34
REMARK   16  A    between atoms: O_34  and  C_35
REMARK   17  A    between atoms: C_35  and  C_37
REMARK   18  A    between atoms: C_38  and  C_39
REMARK   19  A    between atoms: C_41  and  O_46
REMARK   20  A    between atoms: C_42  and  O_45
REMARK   21  A    between atoms: O_49  and  C_50
REMARK   22  A    between atoms: C_52  and  O_63
REMARK   23  A    between atoms: C_53  and  O_62
REMARK   24  A    between atoms: C_55  and  O_61
REMARK   25  A    between atoms: C_57  and  C_59
REMARK   26  A    between atoms: C_59  and  O_60
REMARK   27  A    between atoms: C_66  and  O_71
REMARK   28  A    between atoms: C_67  and  O_70
REMARK                            x       y       z     vdW  Elec       q    Type
REMARK                         _______ _______ _______ _____ _____    ______ ____
ROOT
ATOM      1  C   UNL     1       3.991  -1.589  26.737  0.00  0.00    +0.340 C 
ATOM      2  O   UNL     1       3.066  -0.486  26.607  0.00  0.00    -0.330 OA
ATOM      3  C   UNL     1       1.959  -0.500  27.530  0.00  0.00    +0.191 C 
ATOM      4  C   UNL     1       1.125  -1.770  27.335  0.00  0.00    +0.178 C 
ATOM      5  C   UNL     1       2.012  -2.968  27.670  0.00  0.00    +0.180 C 
ATOM      6  C   UNL     1       3.265  -2.988  26.776  0.00  0.00    +0.221 C 
ENDROOT
BRANCH   5   7
ATOM      7  O   UNL     1       2.347  -2.972  29.059  0.00  0.00    -0.386 OA
ATOM      8  H   UNL     1       3.167  -2.458  29.171  0.00  0.00    +0.210 HD
ENDBRANCH   5   7
BRANCH   4   9
ATOM      9  O   UNL     1       0.639  -1.846  25.985  0.00  0.00    -0.386 OA
ATOM     10  H   UNL     1       0.010  -2.590  25.932  0.00  0.00    +0.210 HD
ENDBRANCH   4   9
BRANCH   6  11
ATOM     11  O   UNL     1       4.136  -4.159  26.970  0.00  0.00    -0.337 OA
BRANCH  11  12
ATOM     12  C   UNL     1       4.869  -4.601  25.780  0.00  0.00    +0.282 C 
ATOM     13  O   UNL     1       4.022  -4.661  24.588  0.00  0.00    -0.341 OA
ATOM     14  C   UNL     1       3.104  -5.783  24.468  0.00  0.00    +0.178 C 
ATOM     15  C   UNL     1       3.743  -7.148  24.810  0.00  0.00    +0.177 C 
ATOM     16  C   UNL     1       4.512  -7.047  26.119  0.00  0.00    +0.179 C 
ATOM     17  C   UNL     1       5.590  -5.969  25.932  0.00  0.00    +0.201 C 
BRANCH  17  18
ATOM     18  O   UNL     1       6.587  -6.023  26.961  0.00  0.00    -0.384 OA
ATOM     19  H   UNL     1       7.461  -6.037  26.528  0.00  0.00    +0.210 HD
ENDBRANCH  17  18
BRANCH  16  20
ATOM     20  O   UNL     1       3.634  -6.786  27.213  0.00  0.00    -0.386 OA
ATOM     21  H   UNL     1       4.160  -6.584  28.019  0.00  0.00    +0.210 HD
ENDBRANCH  16  20
BRANCH  15  22
ATOM     22  O   UNL     1       4.640  -7.573  23.769  0.00  0.00    -0.386 OA
ATOM     23  H   UNL     1       4.550  -8.536  23.650  0.00  0.00    +0.210 HD
ENDBRANCH  15  22
BRANCH  14  24
ATOM     24  C   UNL     1       2.488  -5.925  23.049  0.00  0.00    +0.190 C 
BRANCH  24  25
ATOM     25  O   UNL     1       1.296  -6.700  23.011  0.00  0.00    -0.392 OA
ATOM     26  H   UNL     1       1.045  -6.813  22.081  0.00  0.00    +0.210 HD
ENDBRANCH  24  25
ENDBRANCH  14  24
ENDBRANCH  11  12
ENDBRANCH   6  11
BRANCH   3  27
ATOM     27  C   UNL     1       1.100   0.763  27.302  0.00  0.00    +0.266 C 
BRANCH  27  28
ATOM     28  O   UNL     1       1.400   1.342  26.014  0.00  0.00    -0.459 OA
BRANCH  28  29
ATOM     29  C   UNL     1       1.660   2.671  26.046  0.00  0.00    +0.332 C 
ATOM     30  O   UNL     1       2.215   3.279  26.951  0.00  0.00    -0.246 OA
BRANCH  29  31
ATOM     31  C   UNL     1       1.209   3.270  24.776  0.00  0.00    +0.092 C 
ATOM     32  C   UNL     1       2.091   3.337  23.758  0.00  0.00    +0.015 C 
BRANCH  32  33
ATOM     33  C   UNL     1       1.822   3.833  22.404  0.00  0.00    -0.021 A 
ATOM     34  C   UNL     1       1.340   5.146  22.278  0.00  0.00    +0.012 A 
ATOM     35  C   UNL     1       1.183   5.748  21.028  0.00  0.00    +0.050 A 
ATOM     36  C   UNL     1       1.430   5.000  19.891  0.00  0.00    +0.158 A 
ATOM     37  C   UNL     1       1.798   3.667  20.002  0.00  0.00    +0.159 A 
ATOM     38  C   UNL     1       2.007   3.076  21.241  0.00  0.00    +0.057 A 
BRANCH  37  39
ATOM     39  O   UNL     1       1.939   2.959  18.832  0.00  0.00    -0.503 OA
ATOM     40  H   UNL     1       1.529   3.482  18.122  0.00  0.00    +0.292 HD
ENDBRANCH  37  39
BRANCH  36  41
ATOM     41  O   UNL     1       1.322   5.601  18.670  0.00  0.00    -0.503 OA
ATOM     42  H   UNL     1       0.667   5.059  18.188  0.00  0.00    +0.292 HD
ENDBRANCH  36  41
ENDBRANCH  32  33
ENDBRANCH  29  31
ENDBRANCH  28  29
ENDBRANCH  27  28
ENDBRANCH   3  27
BRANCH   1  43
ATOM     43  O   UNL     1       4.902  -1.360  27.816  0.00  0.00    -0.453 OA
BRANCH  43  49
ATOM     44  C   UNL     1       6.869   4.628  26.845  0.00  0.00    +0.131 A 
ATOM     45  C   UNL     1       7.434   3.382  26.563  0.00  0.00    +0.093 A 
ATOM     46  C   UNL     1       6.956   2.226  27.185  0.00  0.00    +0.147 A 
ATOM     47  O   UNL     1       7.556   1.036  26.868  0.00  0.00    -0.451 OA
ATOM     48  C   UNL     1       6.781  -0.110  27.011  0.00  0.00    +0.181 A 
ATOM     49  C   UNL     1       5.704  -0.214  27.823  0.00  0.00    +0.214 A 
ATOM     50  C   UNL     1       5.485   1.002  28.686  0.00  0.00    +0.238 A 
ATOM     51  O   UNL     1       5.058   0.953  29.831  0.00  0.00    -0.283 OA
ATOM     52  C   UNL     1       5.904   2.286  28.086  0.00  0.00    +0.109 A 
ATOM     53  C   UNL     1       5.312   3.522  28.355  0.00  0.00    +0.135 A 
ATOM     54  C   UNL     1       5.802   4.690  27.749  0.00  0.00    +0.092 A 
BRANCH  48  55
ATOM     55  C   UNL     1       7.244  -1.199  26.142  0.00  0.00    +0.025 A 
ATOM     56  C   UNL     1       7.111  -1.077  24.751  0.00  0.00    +0.015 A 
ATOM     57  C   UNL     1       7.524  -2.104  23.906  0.00  0.00    +0.050 A 
ATOM     58  C   UNL     1       8.123  -3.225  24.453  0.00  0.00    +0.158 A 
ATOM     59  C   UNL     1       8.353  -3.305  25.821  0.00  0.00    +0.159 A 
ATOM     60  C   UNL     1       7.884  -2.322  26.685  0.00  0.00    +0.060 A 
BRANCH  59  61
ATOM     61  O   UNL     1       9.097  -4.357  26.269  0.00  0.00    -0.503 OA
ATOM     62  H   UNL     1       8.820  -5.152  25.778  0.00  0.00    +0.292 HD
ENDBRANCH  59  61
BRANCH  58  63
ATOM     63  O   UNL     1       8.471  -4.262  23.641  0.00  0.00    -0.503 OA
ATOM     64  H   UNL     1       7.676  -4.829  23.608  0.00  0.00    +0.292 HD
ENDBRANCH  58  63
ENDBRANCH  48  55
BRANCH  53  65
ATOM     65  O   UNL     1       4.215   3.597  29.163  0.00  0.00    -0.506 OA
ATOM     66  H   UNL     1       4.026   4.524  29.380  0.00  0.00    +0.292 HD
ENDBRANCH  53  65
BRANCH  44  67
ATOM     67  O   UNL     1       7.253   5.835  26.308  0.00  0.00    -0.461 OA
BRANCH  67  71
ATOM     68  C   UNL     1       4.005   7.107  23.874  0.00  0.00    +0.041 C 
ATOM     69  C   UNL     1       4.746   5.800  23.623  0.00  0.00    +0.150 C 
ATOM     70  O   UNL     1       5.502   5.400  24.771  0.00  0.00    -0.334 OA
ATOM     71  C   UNL     1       6.637   6.224  25.069  0.00  0.00    +0.339 C 
ATOM     72  C   UNL     1       7.647   6.160  23.894  0.00  0.00    +0.214 C 
ATOM     73  C   UNL     1       6.931   6.622  22.614  0.00  0.00    +0.180 C 
ATOM     74  C   UNL     1       5.636   5.828  22.374  0.00  0.00    +0.174 C 
BRANCH  74  75
ATOM     75  O   UNL     1       6.006   4.485  22.011  0.00  0.00    -0.387 OA
ATOM     76  H   UNL     1       5.164   3.991  21.884  0.00  0.00    +0.210 HD
ENDBRANCH  74  75
BRANCH  73  77
ATOM     77  O   UNL     1       7.810   6.445  21.490  0.00  0.00    -0.386 OA
ATOM     78  H   UNL     1       8.147   5.526  21.557  0.00  0.00    +0.210 HD
ENDBRANCH  73  77
BRANCH  72  79
ATOM     79  O   UNL     1       8.142   4.820  23.686  0.00  0.00    -0.383 OA
ATOM     80  H   UNL     1       9.114   4.893  23.758  0.00  0.00    +0.210 HD
ENDBRANCH  72  79
ENDBRANCH  67  71
ENDBRANCH  44  67
ENDBRANCH  43  49
ENDBRANCH   1  43
TORSDOF 27
ENDMDL
MODEL 3
REMARK VINA RESULT:      -6.8      1.685      2.244
REMARK  Name = 
REMARK  28 active torsions:
REMARK  status: ('A' for Active; 'I' for Inactive)
REMARK    1  A    between atoms: C_1  and  C_2
REMARK    2  A    between atoms: C_3  and  O_75
REMARK    3  A    between atoms: C_5  and  O_74
REMARK    4  A    between atoms: C_6  and  O_73
REMARK    5  A    between atoms: C_8  and  O_11
REMARK    6  A    between atoms: O_11  and  C_12
REMARK    7  A    between atoms: C_14  and  O_72
REMARK    8  A    between atoms: C_19  and  C_64
REMARK    9  A    between atoms: C_20  and  O_23
REMARK   10  A    between atoms: O_23  and  C_24
REMARK   11  A    between atoms: C_26  and  O_49
REMARK   12  A    between atoms: C_27  and  O_48
REMARK   13  A    between atoms: C_29  and  O_47
REMARK   14  A    between atoms: C_31  and  C_33
REMARK   15  A    between atoms: C_33  and  O_34
REMARK   16  A    between atoms: O_34  and  C_35
REMARK   17  A    between atoms: C_35  and  C_37
REMARK   18  A    between atoms: C_38  and  C_39
REMARK   19  A    between atoms: C_41  and  O_46
REMARK   20  A    between atoms: C_42  and  O_45
REMARK   21  A    between atoms: O_49  and  C_50
REMARK   22  A    between atoms: C_52  and  O_63
REMARK   23  A    between atoms: C_53  and  O_62
REMARK   24  A    between atoms: C_55  and  O_61
REMARK   25  A    between atoms: C_57  and  C_59
REMARK   26  A    between atoms: C_59  and  O_60
REMARK   27  A    between atoms: C_66  and  O_71
REMARK   28  A    between atoms: C_67  and  O_70
REMARK                            x       y       z     vdW  Elec       q    Type
REMARK                         _______ _______ _______ _____ _____    ______ ____
ROOT
ATOM      1  C   UNL     1       4.682  -4.308  25.080  0.00  0.00    +0.340 C 
ATOM      2  O   UNL     1       5.509  -4.632  23.940  0.00  0.00    -0.330 OA
ATOM      3  C   UNL     1       4.792  -4.973  22.736  0.00  0.00    +0.191 C 
ATOM      4  C   UNL     1       3.912  -6.202  22.976  0.00  0.00    +0.178 C 
ATOM      5  C   UNL     1       2.874  -5.836  24.035  0.00  0.00    +0.180 C 
ATOM      6  C   UNL     1       3.558  -5.384  25.338  0.00  0.00    +0.221 C 
ENDROOT
BRANCH   5   7
ATOM      7  O   UNL     1       1.973  -4.845  23.534  0.00  0.00    -0.386 OA
ATOM      8  H   UNL     1       1.472  -4.486  24.290  0.00  0.00    +0.210 HD
ENDBRANCH   5   7
BRANCH   4   9
ATOM      9  O   UNL     1       4.714  -7.317  23.400  0.00  0.00    -0.386 OA
ATOM     10  H   UNL     1       4.916  -7.200  24.347  0.00  0.00    +0.210 HD
ENDBRANCH   4   9
BRANCH   6  11
ATOM     11  O   UNL     1       2.633  -5.093  26.446  0.00  0.00    -0.337 OA
BRANCH  11  12
ATOM     12  C   UNL     1       2.943  -5.756  27.716  0.00  0.00    +0.282 C 
ATOM     13  O   UNL     1       2.378  -7.105  27.799  0.00  0.00    -0.341 OA
ATOM     14  C   UNL     1       0.952  -7.223  28.059  0.00  0.00    +0.178 C 
ATOM     15  C   UNL     1       0.447  -6.298  29.189  0.00  0.00    +0.177 C 
ATOM     16  C   UNL     1       0.975  -4.887  28.980  0.00  0.00    +0.179 C 
ATOM     17  C   UNL     1       2.510  -4.970  28.984  0.00  0.00    +0.201 C 
BRANCH  17  18
ATOM     18  O   UNL     1       3.116  -3.680  29.139  0.00  0.00    -0.384 OA
ATOM     19  H   UNL     1       2.917  -3.159  28.338  0.00  0.00    +0.210 HD
ENDBRANCH  17  18
BRANCH  16  20
ATOM     20  O   UNL     1       0.443  -4.309  27.788  0.00  0.00    -0.386 OA
ATOM     21  H   UNL     1       0.763  -4.810  27.005  0.00  0.00    +0.210 HD
ENDBRANCH  16  20
BRANCH  15  22
ATOM     22  O   UNL     1       0.877  -6.775  30.476  0.00  0.00    -0.386 OA
ATOM     23  H   UNL     1       1.836  -6.627  30.562  0.00  0.00    +0.210 HD
ENDBRANCH  15  22
BRANCH  14  24
ATOM     24  C   UNL     1       0.514  -8.665  28.436  0.00  0.00    +0.190 C 
BRANCH  24  25
ATOM     25  O   UNL     1       1.470  -9.373  29.217  0.00  0.00    -0.392 OA
ATOM     26  H   UNL     1       1.945  -8.727  29.762  0.00  0.00    +0.210 HD
ENDBRANCH  24  25
ENDBRANCH  14  24
ENDBRANCH  11  12
ENDBRANCH   6  11
BRANCH   3  27
ATOM     27  C   UNL     1       5.810  -5.236  21.605  0.00  0.00    +0.266 C 
BRANCH  27  28
ATOM     28  O   UNL     1       6.504  -4.016  21.267  0.00  0.00    -0.459 OA
BRANCH  28  29
ATOM     29  C   UNL     1       7.534  -3.712  22.093  0.00  0.00    +0.332 C 
ATOM     30  O   UNL     1       8.310  -4.507  22.605  0.00  0.00    -0.246 OA
BRANCH  29  31
ATOM     31  C   UNL     1       7.602  -2.247  22.241  0.00  0.00    +0.092 C 
ATOM     32  C   UNL     1       8.727  -1.714  22.760  0.00  0.00    +0.015 C 
BRANCH  32  33
ATOM     33  C   UNL     1       9.019  -0.286  22.927  0.00  0.00    -0.021 A 
ATOM     34  C   UNL     1       9.536   0.404  21.819  0.00  0.00    +0.012 A 
ATOM     35  C   UNL     1       9.717   1.789  21.842  0.00  0.00    +0.050 A 
ATOM     36  C   UNL     1       9.459   2.476  23.014  0.00  0.00    +0.158 A 
ATOM     37  C   UNL     1       9.057   1.788  24.150  0.00  0.00    +0.159 A 
ATOM     38  C   UNL     1       8.823   0.419  24.121  0.00  0.00    +0.057 A 
BRANCH  37  39
ATOM     39  O   UNL     1       8.907   2.522  25.303  0.00  0.00    -0.503 OA
ATOM     40  H   UNL     1       9.355   3.374  25.168  0.00  0.00    +0.292 HD
ENDBRANCH  37  39
BRANCH  36  41
ATOM     41  O   UNL     1       9.592   3.835  23.024  0.00  0.00    -0.503 OA
ATOM     42  H   UNL     1       8.943   4.138  23.688  0.00  0.00    +0.292 HD
ENDBRANCH  36  41
ENDBRANCH  32  33
ENDBRANCH  29  31
ENDBRANCH  28  29
ENDBRANCH  27  28
ENDBRANCH   3  27
BRANCH   1  43
ATOM     43  O   UNL     1       4.209  -2.961  24.994  0.00  0.00    -0.453 OA
BRANCH  43  49
ATOM     44  C   UNL     1       4.403   2.223  28.702  0.00  0.00    +0.131 A 
ATOM     45  C   UNL     1       5.112   1.019  28.708  0.00  0.00    +0.093 A 
ATOM     46  C   UNL     1       4.642  -0.089  27.999  0.00  0.00    +0.147 A 
ATOM     47  O   UNL     1       5.383  -1.240  28.050  0.00  0.00    -0.451 OA
ATOM     48  C   UNL     1       5.262  -2.107  26.969  0.00  0.00    +0.181 A 
ATOM     49  C   UNL     1       4.199  -2.149  26.132  0.00  0.00    +0.214 A 
ATOM     50  C   UNL     1       3.066  -1.250  26.557  0.00  0.00    +0.238 A 
ATOM     51  O   UNL     1       1.885  -1.529  26.403  0.00  0.00    -0.283 OA
ATOM     52  C   UNL     1       3.470  -0.017  27.263  0.00  0.00    +0.109 A 
ATOM     53  C   UNL     1       2.767   1.189  27.226  0.00  0.00    +0.135 A 
ATOM     54  C   UNL     1       3.223   2.299  27.954  0.00  0.00    +0.092 A 
BRANCH  48  55
ATOM     55  C   UNL     1       6.448  -2.957  26.810  0.00  0.00    +0.025 A 
ATOM     56  C   UNL     1       7.586  -2.443  26.169  0.00  0.00    +0.015 A 
ATOM     57  C   UNL     1       8.716  -3.236  25.989  0.00  0.00    +0.050 A 
ATOM     58  C   UNL     1       8.726  -4.521  26.502  0.00  0.00    +0.158 A 
ATOM     59  C   UNL     1       7.643  -4.998  27.229  0.00  0.00    +0.159 A 
ATOM     60  C   UNL     1       6.479  -4.247  27.358  0.00  0.00    +0.060 A 
BRANCH  59  61
ATOM     61  O   UNL     1       7.788  -6.205  27.847  0.00  0.00    -0.503 OA
ATOM     62  H   UNL     1       8.338  -6.772  27.276  0.00  0.00    +0.292 HD
ENDBRANCH  59  61
BRANCH  58  63
ATOM     63  O   UNL     1       9.802  -5.325  26.273  0.00  0.00    -0.503 OA
ATOM     64  H   UNL     1       9.490  -6.224  26.493  0.00  0.00    +0.292 HD
ENDBRANCH  58  63
ENDBRANCH  48  55
BRANCH  53  65
ATOM     65  O   UNL     1       1.663   1.316  26.433  0.00  0.00    -0.506 OA
ATOM     66  H   UNL     1       0.867   1.063  26.929  0.00  0.00    +0.292 HD
ENDBRANCH  53  65
BRANCH  44  67
ATOM     67  O   UNL     1       4.755   3.377  29.363  0.00  0.00    -0.461 OA
BRANCH  67  71
ATOM     68  C   UNL     1       4.180   6.408  26.434  0.00  0.00    +0.041 C 
ATOM     69  C   UNL     1       5.242   5.325  26.286  0.00  0.00    +0.150 C 
ATOM     70  O   UNL     1       4.985   4.220  27.160  0.00  0.00    -0.334 OA
ATOM     71  C   UNL     1       5.165   4.494  28.556  0.00  0.00    +0.339 C 
ATOM     72  C   UNL     1       6.646   4.867  28.824  0.00  0.00    +0.214 C 
ATOM     73  C   UNL     1       7.003   6.086  27.957  0.00  0.00    +0.180 C 
ATOM     74  C   UNL     1       6.674   5.839  26.475  0.00  0.00    +0.174 C 
BRANCH  74  75
ATOM     75  O   UNL     1       7.610   4.865  25.975  0.00  0.00    -0.387 OA
ATOM     76  H   UNL     1       7.591   4.942  24.994  0.00  0.00    +0.210 HD
ENDBRANCH  74  75
BRANCH  73  77
ATOM     77  O   UNL     1       8.406   6.367  28.091  0.00  0.00    -0.386 OA
ATOM     78  H   UNL     1       8.762   6.392  27.177  0.00  0.00    +0.210 HD
ENDBRANCH  73  77
BRANCH  72  79
ATOM     79  O   UNL     1       7.540   3.786  28.488  0.00  0.00    -0.383 OA
ATOM     80  H   UNL     1       7.912   3.487  29.341  0.00  0.00    +0.210 HD
ENDBRANCH  72  79
ENDBRANCH  67  71
ENDBRANCH  44  67
ENDBRANCH  43  49
ENDBRANCH   1  43
TORSDOF 27
ENDMDL
MODEL 4
REMARK VINA RESULT:      -6.5      2.276      5.798
REMARK  Name = 
REMARK  28 active torsions:
REMARK  status: ('A' for Active; 'I' for Inactive)
REMARK    1  A    between atoms: C_1  and  C_2
REMARK    2  A    between atoms: C_3  and  O_75
REMARK    3  A    between atoms: C_5  and  O_74
REMARK    4  A    between atoms: C_6  and  O_73
REMARK    5  A    between atoms: C_8  and  O_11
REMARK    6  A    between atoms: O_11  and  C_12
REMARK    7  A    between atoms: C_14  and  O_72
REMARK    8  A    between atoms: C_19  and  C_64
REMARK    9  A    between atoms: C_20  and  O_23
REMARK   10  A    between atoms: O_23  and  C_24
REMARK   11  A    between atoms: C_26  and  O_49
REMARK   12  A    between atoms: C_27  and  O_48
REMARK   13  A    between atoms: C_29  and  O_47
REMARK   14  A    between atoms: C_31  and  C_33
REMARK   15  A    between atoms: C_33  and  O_34
REMARK   16  A    between atoms: O_34  and  C_35
REMARK   17  A    between atoms: C_35  and  C_37
REMARK   18  A    between atoms: C_38  and  C_39
REMARK   19  A    between atoms: C_41  and  O_46
REMARK   20  A    between atoms: C_42  and  O_45
REMARK   21  A    between atoms: O_49  and  C_50
REMARK   22  A    between atoms: C_52  and  O_63
REMARK   23  A    between atoms: C_53  and  O_62
REMARK   24  A    between atoms: C_55  and  O_61
REMARK   25  A    between atoms: C_57  and  C_59
REMARK   26  A    between atoms: C_59  and  O_60
REMARK   27  A    between atoms: C_66  and  O_71
REMARK   28  A    between atoms: C_67  and  O_70
REMARK                            x       y       z     vdW  Elec       q    Type
REMARK                         _______ _______ _______ _____ _____    ______ ____
ROOT
ATOM      1  C   UNL     1       3.500  -1.571  27.784  0.00  0.00    +0.340 C 
ATOM      2  O   UNL     1       3.489  -2.694  28.694  0.00  0.00    -0.330 OA
ATOM      3  C   UNL     1       2.403  -3.624  28.510  0.00  0.00    +0.191 C 
ATOM      4  C   UNL     1       1.060  -2.914  28.706  0.00  0.00    +0.178 C 
ATOM      5  C   UNL     1       0.933  -1.845  27.622  0.00  0.00    +0.180 C 
ATOM      6  C   UNL     1       2.102  -0.846  27.698  0.00  0.00    +0.221 C 
ENDROOT
BRANCH   5   7
ATOM      7  O   UNL     1       0.830  -2.449  26.331  0.00  0.00    -0.386 OA
ATOM      8  H   UNL     1       1.638  -2.227  25.831  0.00  0.00    +0.210 HD
ENDBRANCH   5   7
BRANCH   4   9
ATOM      9  O   UNL     1       0.990  -2.332  30.018  0.00  0.00    -0.386 OA
ATOM     10  H   UNL     1       0.166  -2.638  30.441  0.00  0.00    +0.210 HD
ENDBRANCH   4   9
BRANCH   6  11
ATOM     11  O   UNL     1       2.016   0.271  26.743  0.00  0.00    -0.337 OA
BRANCH  11  12
ATOM     12  C   UNL     1       2.691   1.505  27.156  0.00  0.00    +0.282 C 
ATOM     13  O   UNL     1       2.089   2.103  28.349  0.00  0.00    -0.341 OA
ATOM     14  C   UNL     1       0.832   2.817  28.185  0.00  0.00    +0.178 C 
ATOM     15  C   UNL     1       0.814   3.772  26.971  0.00  0.00    +0.177 C 
ATOM     16  C   UNL     1       1.343   3.055  25.738  0.00  0.00    +0.179 C 
ATOM     17  C   UNL     1       2.776   2.599  26.056  0.00  0.00    +0.201 C 
BRANCH  17  18
ATOM     18  O   UNL     1       3.493   2.221  24.874  0.00  0.00    -0.384 OA
ATOM     19  H   UNL     1       2.841   2.079  24.162  0.00  0.00    +0.210 HD
ENDBRANCH  17  18
BRANCH  16  20
ATOM     20  O   UNL     1       0.481   1.983  25.356  0.00  0.00    -0.386 OA
ATOM     21  H   UNL     1       1.012   1.171  25.197  0.00  0.00    +0.210 HD
ENDBRANCH  16  20
BRANCH  15  22
ATOM     22  O   UNL     1       1.621   4.937  27.218  0.00  0.00    -0.386 OA
ATOM     23  H   UNL     1       1.937   4.910  28.140  0.00  0.00    +0.210 HD
ENDBRANCH  15  22
BRANCH  14  24
ATOM     24  C   UNL     1       0.443   3.668  29.425  0.00  0.00    +0.190 C 
BRANCH  24  25
ATOM     25  O   UNL     1       1.544   4.321  30.046  0.00  0.00    -0.392 OA
ATOM     26  H   UNL     1       1.433   4.242  31.006  0.00  0.00    +0.210 HD
ENDBRANCH  24  25
ENDBRANCH  14  24
ENDBRANCH  11  12
ENDBRANCH   6  11
BRANCH   3  27
ATOM     27  C   UNL     1       2.563  -4.786  29.514  0.00  0.00    +0.266 C 
BRANCH  27  28
ATOM     28  O   UNL     1       2.952  -5.991  28.820  0.00  0.00    -0.459 OA
BRANCH  28  29
ATOM     29  C   UNL     1       4.274  -6.279  28.900  0.00  0.00    +0.332 C 
ATOM     30  O   UNL     1       4.808  -7.006  29.725  0.00  0.00    -0.246 OA
BRANCH  29  31
ATOM     31  C   UNL     1       4.970  -5.607  27.787  0.00  0.00    +0.092 C 
ATOM     32  C   UNL     1       6.319  -5.618  27.784  0.00  0.00    +0.015 C 
BRANCH  32  33
ATOM     33  C   UNL     1       7.193  -5.068  26.742  0.00  0.00    -0.021 A 
ATOM     34  C   UNL     1       7.849  -3.858  27.020  0.00  0.00    +0.012 A 
ATOM     35  C   UNL     1       8.801  -3.329  26.146  0.00  0.00    +0.050 A 
ATOM     36  C   UNL     1       9.034  -3.971  24.944  0.00  0.00    +0.158 A 
ATOM     37  C   UNL     1       8.309  -5.105  24.609  0.00  0.00    +0.159 A 
ATOM     38  C   UNL     1       7.399  -5.668  25.495  0.00  0.00    +0.057 A 
BRANCH  37  39
ATOM     39  O   UNL     1       8.527  -5.640  23.361  0.00  0.00    -0.503 OA
ATOM     40  H   UNL     1       9.267  -5.154  22.960  0.00  0.00    +0.292 HD
ENDBRANCH  37  39
BRANCH  36  41
ATOM     41  O   UNL     1       9.998  -3.480  24.110  0.00  0.00    -0.503 OA
ATOM     42  H   UNL     1       9.900  -2.509  24.170  0.00  0.00    +0.292 HD
ENDBRANCH  36  41
ENDBRANCH  32  33
ENDBRANCH  29  31
ENDBRANCH  28  29
ENDBRANCH  27  28
ENDBRANCH   3  27
BRANCH   1  43
ATOM     43  O   UNL     1       4.054  -1.950  26.521  0.00  0.00    -0.453 OA
BRANCH  43  49
ATOM     44  C   UNL     1       7.938   2.356  23.869  0.00  0.00    +0.131 A 
ATOM     45  C   UNL     1       7.738   0.991  23.651  0.00  0.00    +0.093 A 
ATOM     46  C   UNL     1       7.073   0.207  24.597  0.00  0.00    +0.147 A 
ATOM     47  O   UNL     1       6.912  -1.125  24.324  0.00  0.00    -0.451 OA
ATOM     48  C   UNL     1       5.829  -1.758  24.924  0.00  0.00    +0.181 A 
ATOM     49  C   UNL     1       5.216  -1.330  26.052  0.00  0.00    +0.214 A 
ATOM     50  C   UNL     1       5.905  -0.156  26.699  0.00  0.00    +0.238 A 
ATOM     51  O   UNL     1       5.970   0.009  27.909  0.00  0.00    -0.283 OA
ATOM     52  C   UNL     1       6.587   0.768  25.768  0.00  0.00    +0.109 A 
ATOM     53  C   UNL     1       6.756   2.136  25.985  0.00  0.00    +0.135 A 
ATOM     54  C   UNL     1       7.442   2.924  25.048  0.00  0.00    +0.092 A 
BRANCH  48  55
ATOM     55  C   UNL     1       5.394  -2.938  24.167  0.00  0.00    +0.025 A 
ATOM     56  C   UNL     1       4.415  -3.784  24.710  0.00  0.00    +0.015 A 
ATOM     57  C   UNL     1       3.999  -4.921  24.020  0.00  0.00    +0.050 A 
ATOM     58  C   UNL     1       4.521  -5.175  22.764  0.00  0.00    +0.158 A 
ATOM     59  C   UNL     1       5.411  -4.284  22.178  0.00  0.00    +0.159 A 
ATOM     60  C   UNL     1       5.891  -3.183  22.879  0.00  0.00    +0.060 A 
BRANCH  59  61
ATOM     61  O   UNL     1       5.752  -4.507  20.876  0.00  0.00    -0.503 OA
ATOM     62  H   UNL     1       5.904  -3.643  20.451  0.00  0.00    +0.292 HD
ENDBRANCH  59  61
BRANCH  58  63
ATOM     63  O   UNL     1       4.169  -6.317  22.112  0.00  0.00    -0.503 OA
ATOM     64  H   UNL     1       3.821  -6.905  22.810  0.00  0.00    +0.292 HD
ENDBRANCH  58  63
ENDBRANCH  48  55
BRANCH  53  65
ATOM     65  O   UNL     1       6.204   2.731  27.083  0.00  0.00    -0.506 OA
ATOM     66  H   UNL     1       5.559   3.403  26.807  0.00  0.00    +0.292 HD
ENDBRANCH  53  65
BRANCH  44  67
ATOM     67  O   UNL     1       8.582   3.228  23.022  0.00  0.00    -0.461 OA
BRANCH  67  71
ATOM     68  C   UNL     1       9.874   6.679  25.149  0.00  0.00    +0.041 C 
ATOM     69  C   UNL     1      10.307   6.398  23.715  0.00  0.00    +0.150 C 
ATOM     70  O   UNL     1       9.453   5.432  23.092  0.00  0.00    -0.334 OA
ATOM     71  C   UNL     1       9.567   4.098  23.606  0.00  0.00    +0.339 C 
ATOM     72  C   UNL     1      11.003   3.568  23.356  0.00  0.00    +0.214 C 
ATOM     73  C   UNL     1      11.997   4.524  24.036  0.00  0.00    +0.180 C 
ATOM     74  C   UNL     1      11.777   5.978  23.588  0.00  0.00    +0.174 C 
BRANCH  74  75
ATOM     75  O   UNL     1      12.194   6.082  22.213  0.00  0.00    -0.387 OA
ATOM     76  H   UNL     1      11.600   6.745  21.794  0.00  0.00    +0.210 HD
ENDBRANCH  74  75
BRANCH  73  77
ATOM     77  O   UNL     1      13.338   4.125  23.706  0.00  0.00    -0.386 OA
ATOM     78  H   UNL     1      13.248   3.430  23.019  0.00  0.00    +0.210 HD
ENDBRANCH  73  77
BRANCH  72  79
ATOM     79  O   UNL     1      11.313   3.506  21.948  0.00  0.00    -0.383 OA
ATOM     80  H   UNL     1      12.231   3.835  21.875  0.00  0.00    +0.210 HD
ENDBRANCH  72  79
ENDBRANCH  67  71
ENDBRANCH  44  67
ENDBRANCH  43  49
ENDBRANCH   1  43
TORSDOF 27
ENDMDL
MODEL 5
REMARK VINA RESULT:      -6.4      2.158      5.401
REMARK  Name = 
REMARK  28 active torsions:
REMARK  status: ('A' for Active; 'I' for Inactive)
REMARK    1  A    between atoms: C_1  and  C_2
REMARK    2  A    between atoms: C_3  and  O_75
REMARK    3  A    between atoms: C_5  and  O_74
REMARK    4  A    between atoms: C_6  and  O_73
REMARK    5  A    between atoms: C_8  and  O_11
REMARK    6  A    between atoms: O_11  and  C_12
REMARK    7  A    between atoms: C_14  and  O_72
REMARK    8  A    between atoms: C_19  and  C_64
REMARK    9  A    between atoms: C_20  and  O_23
REMARK   10  A    between atoms: O_23  and  C_24
REMARK   11  A    between atoms: C_26  and  O_49
REMARK   12  A    between atoms: C_27  and  O_48
REMARK   13  A    between atoms: C_29  and  O_47
REMARK   14  A    between atoms: C_31  and  C_33
REMARK   15  A    between atoms: C_33  and  O_34
REMARK   16  A    between atoms: O_34  and  C_35
REMARK   17  A    between atoms: C_35  and  C_37
REMARK   18  A    between atoms: C_38  and  C_39
REMARK   19  A    between atoms: C_41  and  O_46
REMARK   20  A    between atoms: C_42  and  O_45
REMARK   21  A    between atoms: O_49  and  C_50
REMARK   22  A    between atoms: C_52  and  O_63
REMARK   23  A    between atoms: C_53  and  O_62
REMARK   24  A    between atoms: C_55  and  O_61
REMARK   25  A    between atoms: C_57  and  C_59
REMARK   26  A    between atoms: C_59  and  O_60
REMARK   27  A    between atoms: C_66  and  O_71
REMARK   28  A    between atoms: C_67  and  O_70
REMARK                            x       y       z     vdW  Elec       q    Type
REMARK                         _______ _______ _______ _____ _____    ______ ____
ROOT
ATOM      1  C   UNL     1       5.249  -3.585  27.302  0.00  0.00    +0.340 C 
ATOM      2  O   UNL     1       6.603  -3.179  27.001  0.00  0.00    -0.330 OA
ATOM      3  C   UNL     1       7.237  -3.901  25.926  0.00  0.00    +0.191 C 
ATOM      4  C   UNL     1       7.315  -5.392  26.263  0.00  0.00    +0.178 C 
ATOM      5  C   UNL     1       5.886  -5.919  26.385  0.00  0.00    +0.180 C 
ATOM      6  C   UNL     1       5.108  -5.147  27.466  0.00  0.00    +0.221 C 
ENDROOT
BRANCH   5   7
ATOM      7  O   UNL     1       5.225  -5.875  25.118  0.00  0.00    -0.386 OA
ATOM      8  H   UNL     1       4.544  -5.178  25.159  0.00  0.00    +0.210 HD
ENDBRANCH   5   7
BRANCH   4   9
ATOM      9  O   UNL     1       8.046  -5.590  27.485  0.00  0.00    -0.386 OA
ATOM     10  H   UNL     1       8.963  -5.292  27.340  0.00  0.00    +0.210 HD
ENDBRANCH   4   9
BRANCH   6  11
ATOM     11  O   UNL     1       3.744  -5.646  27.712  0.00  0.00    -0.337 OA
BRANCH  11  12
ATOM     12  C   UNL     1       3.635  -7.091  27.936  0.00  0.00    +0.282 C 
ATOM     13  O   UNL     1       3.255  -7.820  26.724  0.00  0.00    -0.341 OA
ATOM     14  C   UNL     1       1.863  -7.755  26.307  0.00  0.00    +0.178 C 
ATOM     15  C   UNL     1       0.857  -7.960  27.462  0.00  0.00    +0.177 C 
ATOM     16  C   UNL     1       1.243  -7.088  28.647  0.00  0.00    +0.179 C 
ATOM     17  C   UNL     1       2.660  -7.501  29.075  0.00  0.00    +0.201 C 
BRANCH  17  18
ATOM     18  O   UNL     1       2.995  -6.999  30.375  0.00  0.00    -0.384 OA
ATOM     19  H   UNL     1       3.968  -6.955  30.435  0.00  0.00    +0.210 HD
ENDBRANCH  17  18
BRANCH  16  20
ATOM     20  O   UNL     1       1.131  -5.702  28.325  0.00  0.00    -0.386 OA
ATOM     21  H   UNL     1       1.140  -5.168  29.150  0.00  0.00    +0.210 HD
ENDBRANCH  16  20
BRANCH  15  22
ATOM     22  O   UNL     1       0.827  -9.335  27.882  0.00  0.00    -0.386 OA
ATOM     23  H   UNL     1       0.101  -9.453  28.522  0.00  0.00    +0.210 HD
ENDBRANCH  15  22
BRANCH  14  24
ATOM     24  C   UNL     1       1.500  -8.797  25.213  0.00  0.00    +0.190 C 
BRANCH  24  25
ATOM     25  O   UNL     1       2.315  -9.963  25.234  0.00  0.00    -0.392 OA
ATOM     26  H   UNL     1       2.353 -10.315  24.331  0.00  0.00    +0.210 HD
ENDBRANCH  24  25
ENDBRANCH  14  24
ENDBRANCH  11  12
ENDBRANCH   6  11
BRANCH   3  27
ATOM     27  C   UNL     1       8.647  -3.315  25.692  0.00  0.00    +0.266 C 
BRANCH  27  28
ATOM     28  O   UNL     1       9.017  -2.458  26.793  0.00  0.00    -0.459 OA
BRANCH  28  29
ATOM     29  C   UNL     1       9.068  -1.140  26.482  0.00  0.00    +0.332 C 
ATOM     30  O   UNL     1       9.658  -0.642  25.533  0.00  0.00    -0.246 OA
BRANCH  29  31
ATOM     31  C   UNL     1       8.247  -0.395  27.454  0.00  0.00    +0.092 C 
ATOM     32  C   UNL     1       7.936   0.886  27.170  0.00  0.00    +0.015 C 
BRANCH  32  33
ATOM     33  C   UNL     1       7.081   1.773  27.968  0.00  0.00    -0.021 A 
ATOM     34  C   UNL     1       7.193   1.694  29.366  0.00  0.00    +0.012 A 
ATOM     35  C   UNL     1       6.521   2.589  30.202  0.00  0.00    +0.050 A 
ATOM     36  C   UNL     1       5.663   3.514  29.636  0.00  0.00    +0.158 A 
ATOM     37  C   UNL     1       5.459   3.527  28.264  0.00  0.00    +0.159 A 
ATOM     38  C   UNL     1       6.162   2.676  27.422  0.00  0.00    +0.057 A 
BRANCH  37  39
ATOM     39  O   UNL     1       4.525   4.413  27.781  0.00  0.00    -0.503 OA
ATOM     40  H   UNL     1       4.304   5.027  28.501  0.00  0.00    +0.292 HD
ENDBRANCH  37  39
BRANCH  36  41
ATOM     41  O   UNL     1       5.042   4.419  30.449  0.00  0.00    -0.503 OA
ATOM     42  H   UNL     1       5.675   4.567  31.178  0.00  0.00    +0.292 HD
ENDBRANCH  36  41
ENDBRANCH  32  33
ENDBRANCH  29  31
ENDBRANCH  28  29
ENDBRANCH  27  28
ENDBRANCH   3  27
BRANCH   1  43
ATOM     43  O   UNL     1       4.329  -2.997  26.379  0.00  0.00    -0.453 OA
BRANCH  43  49
ATOM     44  C   UNL     1       8.210   0.629  22.851  0.00  0.00    +0.131 A 
ATOM     45  C   UNL     1       7.159   0.926  23.722  0.00  0.00    +0.093 A 
ATOM     46  C   UNL     1       6.250  -0.063  24.105  0.00  0.00    +0.147 A 
ATOM     47  O   UNL     1       5.240   0.294  24.959  0.00  0.00    -0.451 OA
ATOM     48  C   UNL     1       4.712  -0.715  25.756  0.00  0.00    +0.181 A 
ATOM     49  C   UNL     1       4.772  -2.036  25.465  0.00  0.00    +0.214 A 
ATOM     50  C   UNL     1       5.354  -2.324  24.105  0.00  0.00    +0.238 A 
ATOM     51  O   UNL     1       4.978  -3.240  23.386  0.00  0.00    -0.283 OA
ATOM     52  C   UNL     1       6.375  -1.362  23.639  0.00  0.00    +0.109 A 
ATOM     53  C   UNL     1       7.437  -1.678  22.790  0.00  0.00    +0.135 A 
ATOM     54  C   UNL     1       8.342  -0.684  22.385  0.00  0.00    +0.092 A 
BRANCH  48  55
ATOM     55  C   UNL     1       4.106  -0.187  26.984  0.00  0.00    +0.025 A 
ATOM     56  C   UNL     1       4.593  -0.608  28.231  0.00  0.00    +0.015 A 
ATOM     57  C   UNL     1       4.022  -0.136  29.410  0.00  0.00    +0.050 A 
ATOM     58  C   UNL     1       3.006   0.800  29.339  0.00  0.00    +0.158 A 
ATOM     59  C   UNL     1       2.593   1.299  28.110  0.00  0.00    +0.159 A 
ATOM     60  C   UNL     1       3.101   0.789  26.921  0.00  0.00    +0.060 A 
BRANCH  59  61
ATOM     61  O   UNL     1       1.710   2.338  28.123  0.00  0.00    -0.503 OA
ATOM     62  H   UNL     1       1.224   2.311  28.968  0.00  0.00    +0.292 HD
ENDBRANCH  59  61
BRANCH  58  63
ATOM     63  O   UNL     1       2.399   1.217  30.485  0.00  0.00    -0.503 OA
ATOM     64  H   UNL     1       2.474   2.191  30.464  0.00  0.00    +0.292 HD
ENDBRANCH  58  63
ENDBRANCH  48  55
BRANCH  53  65
ATOM     65  O   UNL     1       7.640  -2.968  22.393  0.00  0.00    -0.506 OA
ATOM     66  H   UNL     1       6.900  -3.266  21.840  0.00  0.00    +0.292 HD
ENDBRANCH  53  65
BRANCH  44  67
ATOM     67  O   UNL     1       9.162   1.512  22.395  0.00  0.00    -0.461 OA
BRANCH  67  71
ATOM     68  C   UNL     1       8.313   4.489  25.314  0.00  0.00    +0.041 C 
ATOM     69  C   UNL     1       8.802   4.839  23.913  0.00  0.00    +0.150 C 
ATOM     70  O   UNL     1       8.633   3.739  23.012  0.00  0.00    -0.334 OA
ATOM     71  C   UNL     1       9.492   2.617  23.254  0.00  0.00    +0.339 C 
ATOM     72  C   UNL     1      10.971   3.047  23.073  0.00  0.00    +0.214 C 
ATOM     73  C   UNL     1      11.262   4.203  24.044  0.00  0.00    +0.180 C 
ATOM     74  C   UNL     1      10.248   5.348  23.877  0.00  0.00    +0.174 C 
BRANCH  74  75
ATOM     75  O   UNL     1      10.508   5.983  22.611  0.00  0.00    -0.387 OA
ATOM     76  H   UNL     1       9.694   5.865  22.071  0.00  0.00    +0.210 HD
ENDBRANCH  74  75
BRANCH  73  77
ATOM     77  O   UNL     1      12.587   4.704  23.800  0.00  0.00    -0.386 OA
ATOM     78  H   UNL     1      13.186   4.152  24.347  0.00  0.00    +0.210 HD
ENDBRANCH  73  77
BRANCH  72  79
ATOM     79  O   UNL     1      11.236   3.498  21.728  0.00  0.00    -0.383 OA
ATOM     80  H   UNL     1      11.753   2.779  21.315  0.00  0.00    +0.210 HD
ENDBRANCH  72  79
ENDBRANCH  67  71
ENDBRANCH  44  67
ENDBRANCH  43  49
ENDBRANCH   1  43
TORSDOF 27
ENDMDL
MODEL 6
REMARK VINA RESULT:      -6.4      2.371      5.278
REMARK  Name = 
REMARK  28 active torsions:
REMARK  status: ('A' for Active; 'I' for Inactive)
REMARK    1  A    between atoms: C_1  and  C_2
REMARK    2  A    between atoms: C_3  and  O_75
REMARK    3  A    between atoms: C_5  and  O_74
REMARK    4  A    between atoms: C_6  and  O_73
REMARK    5  A    between atoms: C_8  and  O_11
REMARK    6  A    between atoms: O_11  and  C_12
REMARK    7  A    between atoms: C_14  and  O_72
REMARK    8  A    between atoms: C_19  and  C_64
REMARK    9  A    between atoms: C_20  and  O_23
REMARK   10  A    between atoms: O_23  and  C_24
REMARK   11  A    between atoms: C_26  and  O_49
REMARK   12  A    between atoms: C_27  and  O_48
REMARK   13  A    between atoms: C_29  and  O_47
REMARK   14  A    between atoms: C_31  and  C_33
REMARK   15  A    between atoms: C_33  and  O_34
REMARK   16  A    between atoms: O_34  and  C_35
REMARK   17  A    between atoms: C_35  and  C_37
REMARK   18  A    between atoms: C_38  and  C_39
REMARK   19  A    between atoms: C_41  and  O_46
REMARK   20  A    between atoms: C_42  and  O_45
REMARK   21  A    between atoms: O_49  and  C_50
REMARK   22  A    between atoms: C_52  and  O_63
REMARK   23  A    between atoms: C_53  and  O_62
REMARK   24  A    between atoms: C_55  and  O_61
REMARK   25  A    between atoms: C_57  and  C_59
REMARK   26  A    between atoms: C_59  and  O_60
REMARK   27  A    between atoms: C_66  and  O_71
REMARK   28  A    between atoms: C_67  and  O_70
REMARK                            x       y       z     vdW  Elec       q    Type
REMARK                         _______ _______ _______ _____ _____    ______ ____
ROOT
ATOM      1  C   UNL     1       3.745  -1.848  26.666  0.00  0.00    +0.340 C 
ATOM      2  O   UNL     1       2.860  -0.718  26.498  0.00  0.00    -0.330 OA
ATOM      3  C   UNL     1       1.693  -0.721  27.345  0.00  0.00    +0.191 C 
ATOM      4  C   UNL     1       0.841  -1.963  27.068  0.00  0.00    +0.178 C 
ATOM      5  C   UNL     1       1.673  -3.192  27.434  0.00  0.00    +0.180 C 
ATOM      6  C   UNL     1       2.982  -3.227  26.625  0.00  0.00    +0.221 C 
ENDROOT
BRANCH   5   7
ATOM      7  O   UNL     1       1.914  -3.233  28.842  0.00  0.00    -0.386 OA
ATOM      8  H   UNL     1       2.581  -3.924  29.012  0.00  0.00    +0.210 HD
ENDBRANCH   5   7
BRANCH   4   9
ATOM      9  O   UNL     1       0.445  -1.999  25.687  0.00  0.00    -0.386 OA
ATOM     10  H   UNL     1       1.215  -1.744  25.145  0.00  0.00    +0.210 HD
ENDBRANCH   4   9
BRANCH   6  11
ATOM     11  O   UNL     1       3.808  -4.425  26.852  0.00  0.00    -0.337 OA
BRANCH  11  12
ATOM     12  C   UNL     1       4.372  -5.037  25.645  0.00  0.00    +0.282 C 
ATOM     13  O   UNL     1       3.485  -4.915  24.486  0.00  0.00    -0.341 OA
ATOM     14  C   UNL     1       2.331  -5.799  24.424  0.00  0.00    +0.178 C 
ATOM     15  C   UNL     1       2.655  -7.269  24.769  0.00  0.00    +0.177 C 
ATOM     16  C   UNL     1       3.480  -7.332  26.046  0.00  0.00    +0.179 C 
ATOM     17  C   UNL     1       4.768  -6.532  25.797  0.00  0.00    +0.201 C 
BRANCH  17  18
ATOM     18  O   UNL     1       5.766  -6.801  26.790  0.00  0.00    -0.384 OA
ATOM     19  H   UNL     1       5.747  -7.757  26.980  0.00  0.00    +0.210 HD
ENDBRANCH  17  18
BRANCH  16  20
ATOM     20  O   UNL     1       2.731  -6.864  27.167  0.00  0.00    -0.386 OA
ATOM     21  H   UNL     1       2.243  -7.614  27.576  0.00  0.00    +0.210 HD
ENDBRANCH  16  20
BRANCH  15  22
ATOM     22  O   UNL     1       3.389  -7.900  23.705  0.00  0.00    -0.386 OA
ATOM     23  H   UNL     1       3.272  -8.866  23.772  0.00  0.00    +0.210 HD
ENDBRANCH  15  22
BRANCH  14  24
ATOM     24  C   UNL     1       1.643  -5.812  23.031  0.00  0.00    +0.190 C 
BRANCH  24  25
ATOM     25  O   UNL     1       0.924  -7.007  22.753  0.00  0.00    -0.392 OA
ATOM     26  H   UNL     1       0.092  -6.976  23.250  0.00  0.00    +0.210 HD
ENDBRANCH  24  25
ENDBRANCH  14  24
ENDBRANCH  11  12
ENDBRANCH   6  11
BRANCH   3  27
ATOM     27  C   UNL     1       0.884   0.569  27.088  0.00  0.00    +0.266 C 
BRANCH  27  28
ATOM     28  O   UNL     1       1.775   1.657  26.760  0.00  0.00    -0.459 OA
BRANCH  28  29
ATOM     29  C   UNL     1       1.316   2.881  27.115  0.00  0.00    +0.332 C 
ATOM     30  O   UNL     1       0.878   3.200  28.211  0.00  0.00    -0.246 OA
BRANCH  29  31
ATOM     31  C   UNL     1       1.477   3.795  25.969  0.00  0.00    +0.092 C 
ATOM     32  C   UNL     1       2.725   4.027  25.514  0.00  0.00    +0.015 C 
BRANCH  32  33
ATOM     33  C   UNL     1       3.092   4.845  24.353  0.00  0.00    -0.021 A 
ATOM     34  C   UNL     1       3.945   5.939  24.576  0.00  0.00    +0.012 A 
ATOM     35  C   UNL     1       4.454   6.692  23.515  0.00  0.00    +0.050 A 
ATOM     36  C   UNL     1       4.037   6.402  22.230  0.00  0.00    +0.158 A 
ATOM     37  C   UNL     1       3.107   5.397  22.010  0.00  0.00    +0.159 A 
ATOM     38  C   UNL     1       2.636   4.608  23.052  0.00  0.00    +0.057 A 
BRANCH  37  39
ATOM     39  O   UNL     1       2.670   5.223  20.718  0.00  0.00    -0.503 OA
ATOM     40  H   UNL     1       1.700   5.294  20.725  0.00  0.00    +0.292 HD
ENDBRANCH  37  39
BRANCH  36  41
ATOM     41  O   UNL     1       4.570   7.108  21.189  0.00  0.00    -0.503 OA
ATOM     42  H   UNL     1       4.968   7.896  21.607  0.00  0.00    +0.292 HD
ENDBRANCH  36  41
ENDBRANCH  32  33
ENDBRANCH  29  31
ENDBRANCH  28  29
ENDBRANCH  27  28
ENDBRANCH   3  27
BRANCH   1  43
ATOM     43  O   UNL     1       4.587  -1.665  27.807  0.00  0.00    -0.453 OA
BRANCH  43  49
ATOM     44  C   UNL     1       6.607   4.349  27.161  0.00  0.00    +0.131 A 
ATOM     45  C   UNL     1       7.203   3.111  26.907  0.00  0.00    +0.093 A 
ATOM     46  C   UNL     1       6.674   1.939  27.455  0.00  0.00    +0.147 A 
ATOM     47  O   UNL     1       7.307   0.759  27.170  0.00  0.00    -0.451 OA
ATOM     48  C   UNL     1       6.528  -0.393  27.213  0.00  0.00    +0.181 A 
ATOM     49  C   UNL     1       5.379  -0.518  27.916  0.00  0.00    +0.214 A 
ATOM     50  C   UNL     1       5.073   0.678  28.781  0.00  0.00    +0.238 A 
ATOM     51  O   UNL     1       4.539   0.603  29.879  0.00  0.00    -0.283 OA
ATOM     52  C   UNL     1       5.541   1.977  28.252  0.00  0.00    +0.109 A 
ATOM     53  C   UNL     1       4.920   3.204  28.490  0.00  0.00    +0.135 A 
ATOM     54  C   UNL     1       5.459   4.387  27.960  0.00  0.00    +0.092 A 
BRANCH  48  55
ATOM     55  C   UNL     1       7.077  -1.460  26.369  0.00  0.00    +0.025 A 
ATOM     56  C   UNL     1       7.513  -1.158  25.069  0.00  0.00    +0.015 A 
ATOM     57  C   UNL     1       8.019  -2.157  24.242  0.00  0.00    +0.050 A 
ATOM     58  C   UNL     1       8.142  -3.443  24.737  0.00  0.00    +0.158 A 
ATOM     59  C   UNL     1       7.811  -3.725  26.056  0.00  0.00    +0.159 A 
ATOM     60  C   UNL     1       7.239  -2.758  26.874  0.00  0.00    +0.060 A 
BRANCH  59  61
ATOM     61  O   UNL     1       8.116  -4.969  26.524  0.00  0.00    -0.503 OA
ATOM     62  H   UNL     1       8.666  -4.865  27.323  0.00  0.00    +0.292 HD
ENDBRANCH  59  61
BRANCH  58  63
ATOM     63  O   UNL     1       8.575  -4.439  23.913  0.00  0.00    -0.503 OA
ATOM     64  H   UNL     1       8.929  -3.976  23.129  0.00  0.00    +0.292 HD
ENDBRANCH  58  63
ENDBRANCH  48  55
BRANCH  53  65
ATOM     65  O   UNL     1       3.750   3.258  29.191  0.00  0.00    -0.506 OA
ATOM     66  H   UNL     1       3.642   2.450  29.719  0.00  0.00    +0.292 HD
ENDBRANCH  53  65
BRANCH  44  67
ATOM     67  O   UNL     1       7.036   5.568  26.689  0.00  0.00    -0.461 OA
BRANCH  67  71
ATOM     68  C   UNL     1      10.935   7.010  25.788  0.00  0.00    +0.041 C 
ATOM     69  C   UNL     1       9.804   7.033  24.768  0.00  0.00    +0.150 C 
ATOM     70  O   UNL     1       8.528   6.884  25.400  0.00  0.00    -0.334 OA
ATOM     71  C   UNL     1       8.274   5.587  25.958  0.00  0.00    +0.339 C 
ATOM     72  C   UNL     1       8.275   4.527  24.827  0.00  0.00    +0.214 C 
ATOM     73  C   UNL     1       9.637   4.580  24.115  0.00  0.00    +0.180 C 
ATOM     74  C   UNL     1       9.970   6.004  23.642  0.00  0.00    +0.174 C 
BRANCH  74  75
ATOM     75  O   UNL     1       9.081   6.325  22.555  0.00  0.00    -0.387 OA
ATOM     76  H   UNL     1       9.630   6.321  21.739  0.00  0.00    +0.210 HD
ENDBRANCH  74  75
BRANCH  73  77
ATOM     77  O   UNL     1       9.612   3.697  22.981  0.00  0.00    -0.386 OA
ATOM     78  H   UNL     1      10.028   2.861  23.283  0.00  0.00    +0.210 HD
ENDBRANCH  73  77
BRANCH  72  79
ATOM     79  O   UNL     1       7.238   4.778  23.856  0.00  0.00    -0.383 OA
ATOM     80  H   UNL     1       6.749   3.935  23.781  0.00  0.00    +0.210 HD
ENDBRANCH  72  79
ENDBRANCH  67  71
ENDBRANCH  44  67
ENDBRANCH  43  49
ENDBRANCH   1  43
TORSDOF 27
ENDMDL
MODEL 7
REMARK VINA RESULT:      -6.4      1.323      2.162
REMARK  Name = 
REMARK  28 active torsions:
REMARK  status: ('A' for Active; 'I' for Inactive)
REMARK    1  A    between atoms: C_1  and  C_2
REMARK    2  A    between atoms: C_3  and  O_75
REMARK    3  A    between atoms: C_5  and  O_74
REMARK    4  A    between atoms: C_6  and  O_73
REMARK    5  A    between atoms: C_8  and  O_11
REMARK    6  A    between atoms: O_11  and  C_12
REMARK    7  A    between atoms: C_14  and  O_72
REMARK    8  A    between atoms: C_19  and  C_64
REMARK    9  A    between atoms: C_20  and  O_23
REMARK   10  A    between atoms: O_23  and  C_24
REMARK   11  A    between atoms: C_26  and  O_49
REMARK   12  A    between atoms: C_27  and  O_48
REMARK   13  A    between atoms: C_29  and  O_47
REMARK   14  A    between atoms: C_31  and  C_33
REMARK   15  A    between atoms: C_33  and  O_34
REMARK   16  A    between atoms: O_34  and  C_35
REMARK   17  A    between atoms: C_35  and  C_37
REMARK   18  A    between atoms: C_38  and  C_39
REMARK   19  A    between atoms: C_41  and  O_46
REMARK   20  A    between atoms: C_42  and  O_45
REMARK   21  A    between atoms: O_49  and  C_50
REMARK   22  A    between atoms: C_52  and  O_63
REMARK   23  A    between atoms: C_53  and  O_62
REMARK   24  A    between atoms: C_55  and  O_61
REMARK   25  A    between atoms: C_57  and  C_59
REMARK   26  A    between atoms: C_59  and  O_60
REMARK   27  A    between atoms: C_66  and  O_71
REMARK   28  A    between atoms: C_67  and  O_70
REMARK                            x       y       z     vdW  Elec       q    Type
REMARK                         _______ _______ _______ _____ _____    ______ ____
ROOT
ATOM      1  C   UNL     1       4.953  -4.376  25.490  0.00  0.00    +0.340 C 
ATOM      2  O   UNL     1       5.344  -4.109  24.125  0.00  0.00    -0.330 OA
ATOM      3  C   UNL     1       4.409  -4.549  23.120  0.00  0.00    +0.191 C 
ATOM      4  C   UNL     1       4.212  -6.065  23.209  0.00  0.00    +0.178 C 
ATOM      5  C   UNL     1       3.596  -6.378  24.572  0.00  0.00    +0.180 C 
ATOM      6  C   UNL     1       4.500  -5.871  25.709  0.00  0.00    +0.221 C 
ENDROOT
BRANCH   5   7
ATOM      7  O   UNL     1       2.275  -5.841  24.660  0.00  0.00    -0.386 OA
ATOM      8  H   UNL     1       2.054  -5.442  23.799  0.00  0.00    +0.210 HD
ENDBRANCH   5   7
BRANCH   4   9
ATOM      9  O   UNL     1       5.468  -6.742  23.039  0.00  0.00    -0.386 OA
ATOM     10  H   UNL     1       5.307  -7.701  23.120  0.00  0.00    +0.210 HD
ENDBRANCH   4   9
BRANCH   6  11
ATOM     11  O   UNL     1       4.026  -6.206  27.063  0.00  0.00    -0.337 OA
BRANCH  11  12
ATOM     12  C   UNL     1       2.616  -5.904  27.328  0.00  0.00    +0.282 C 
ATOM     13  O   UNL     1       2.444  -4.700  28.144  0.00  0.00    -0.341 OA
ATOM     14  C   UNL     1       2.713  -4.808  29.570  0.00  0.00    +0.178 C 
ATOM     15  C   UNL     1       2.095  -6.063  30.226  0.00  0.00    +0.177 C 
ATOM     16  C   UNL     1       2.410  -7.294  29.389  0.00  0.00    +0.179 C 
ATOM     17  C   UNL     1       1.817  -7.059  27.991  0.00  0.00    +0.201 C 
BRANCH  17  18
ATOM     18  O   UNL     1       1.747  -8.270  27.227  0.00  0.00    -0.384 OA
ATOM     19  H   UNL     1       1.451  -8.038  26.327  0.00  0.00    +0.210 HD
ENDBRANCH  17  18
BRANCH  16  20
ATOM     20  O   UNL     1       3.812  -7.561  29.371  0.00  0.00    -0.386 OA
ATOM     21  H   UNL     1       4.305  -6.762  29.663  0.00  0.00    +0.210 HD
ENDBRANCH  16  20
BRANCH  15  22
ATOM     22  O   UNL     1       0.668  -5.932  30.349  0.00  0.00    -0.386 OA
ATOM     23  H   UNL     1       0.241  -6.512  29.694  0.00  0.00    +0.210 HD
ENDBRANCH  15  22
BRANCH  14  24
ATOM     24  C   UNL     1       2.206  -3.587  30.385  0.00  0.00    +0.190 C 
BRANCH  24  25
ATOM     25  O   UNL     1       1.225  -2.808  29.709  0.00  0.00    -0.392 OA
ATOM     26  H   UNL     1       1.493  -1.878  29.766  0.00  0.00    +0.210 HD
ENDBRANCH  24  25
ENDBRANCH  14  24
ENDBRANCH  11  12
ENDBRANCH   6  11
BRANCH   3  27
ATOM     27  C   UNL     1       4.941  -4.143  21.728  0.00  0.00    +0.266 C 
BRANCH  27  28
ATOM     28  O   UNL     1       6.010  -3.181  21.866  0.00  0.00    -0.459 OA
BRANCH  28  29
ATOM     29  C   UNL     1       7.246  -3.729  21.953  0.00  0.00    +0.332 C 
ATOM     30  O   UNL     1       7.538  -4.897  21.734  0.00  0.00    -0.246 OA
BRANCH  29  31
ATOM     31  C   UNL     1       8.206  -2.669  22.309  0.00  0.00    +0.092 C 
ATOM     32  C   UNL     1       7.796  -1.387  22.225  0.00  0.00    +0.015 C 
BRANCH  32  33
ATOM     33  C   UNL     1       8.571  -0.198  22.594  0.00  0.00    -0.021 A 
ATOM     34  C   UNL     1       9.444   0.332  21.630  0.00  0.00    +0.012 A 
ATOM     35  C   UNL     1      10.120   1.536  21.842  0.00  0.00    +0.050 A 
ATOM     36  C   UNL     1       9.987   2.169  23.064  0.00  0.00    +0.158 A 
ATOM     37  C   UNL     1       9.217   1.596  24.065  0.00  0.00    +0.159 A 
ATOM     38  C   UNL     1       8.500   0.427  23.845  0.00  0.00    +0.057 A 
BRANCH  37  39
ATOM     39  O   UNL     1       9.203   2.233  25.283  0.00  0.00    -0.503 OA
ATOM     40  H   UNL     1       8.305   2.150  25.647  0.00  0.00    +0.292 HD
ENDBRANCH  37  39
BRANCH  36  41
ATOM     41  O   UNL     1      10.611   3.369  23.255  0.00  0.00    -0.503 OA
ATOM     42  H   UNL     1      10.413   3.878  22.445  0.00  0.00    +0.292 HD
ENDBRANCH  36  41
ENDBRANCH  32  33
ENDBRANCH  29  31
ENDBRANCH  28  29
ENDBRANCH  27  28
ENDBRANCH   3  27
BRANCH   1  43
ATOM     43  O   UNL     1       4.018  -3.396  25.948  0.00  0.00    -0.453 OA
BRANCH  43  49
ATOM     44  C   UNL     1       5.694   2.709  26.712  0.00  0.00    +0.131 A 
ATOM     45  C   UNL     1       6.351   1.501  26.962  0.00  0.00    +0.093 A 
ATOM     46  C   UNL     1       5.638   0.302  27.029  0.00  0.00    +0.147 A 
ATOM     47  O   UNL     1       6.341  -0.845  27.281  0.00  0.00    -0.451 OA
ATOM     48  C   UNL     1       5.789  -2.031  26.809  0.00  0.00    +0.181 A 
ATOM     49  C   UNL     1       4.475  -2.215  26.541  0.00  0.00    +0.214 A 
ATOM     50  C   UNL     1       3.614  -1.043  26.936  0.00  0.00    +0.238 A 
ATOM     51  O   UNL     1       2.478  -1.154  27.376  0.00  0.00    -0.283 OA
ATOM     52  C   UNL     1       4.265   0.280  26.838  0.00  0.00    +0.109 A 
ATOM     53  C   UNL     1       3.601   1.476  26.560  0.00  0.00    +0.135 A 
ATOM     54  C   UNL     1       4.309   2.687  26.512  0.00  0.00    +0.092 A 
BRANCH  48  55
ATOM     55  C   UNL     1       6.808  -3.065  26.592  0.00  0.00    +0.025 A 
ATOM     56  C   UNL     1       7.863  -2.818  25.699  0.00  0.00    +0.015 A 
ATOM     57  C   UNL     1       8.832  -3.790  25.461  0.00  0.00    +0.050 A 
ATOM     58  C   UNL     1       8.775  -4.983  26.160  0.00  0.00    +0.158 A 
ATOM     59  C   UNL     1       7.794  -5.190  27.122  0.00  0.00    +0.159 A 
ATOM     60  C   UNL     1       6.779  -4.261  27.322  0.00  0.00    +0.060 A 
BRANCH  59  61
ATOM     61  O   UNL     1       7.898  -6.313  27.889  0.00  0.00    -0.503 OA
ATOM     62  H   UNL     1       7.688  -6.069  28.810  0.00  0.00    +0.292 HD
ENDBRANCH  59  61
BRANCH  58  63
ATOM     63  O   UNL     1       9.680  -5.963  25.886  0.00  0.00    -0.503 OA
ATOM     64  H   UNL     1       9.149  -6.692  25.509  0.00  0.00    +0.292 HD
ENDBRANCH  58  63
ENDBRANCH  48  55
BRANCH  53  65
ATOM     65  O   UNL     1       2.266   1.470  26.272  0.00  0.00    -0.506 OA
ATOM     66  H   UNL     1       1.759   1.205  27.057  0.00  0.00    +0.292 HD
ENDBRANCH  53  65
BRANCH  44  67
ATOM     67  O   UNL     1       6.280   3.951  26.631  0.00  0.00    -0.461 OA
BRANCH  67  71
ATOM     68  C   UNL     1       4.382   4.930  22.952  0.00  0.00    +0.041 C 
ATOM     69  C   UNL     1       5.785   4.339  23.011  0.00  0.00    +0.150 C 
ATOM     70  O   UNL     1       6.043   3.733  24.283  0.00  0.00    -0.334 OA
ATOM     71  C   UNL     1       6.160   4.649  25.380  0.00  0.00    +0.339 C 
ATOM     72  C   UNL     1       7.370   5.590  25.143  0.00  0.00    +0.214 C 
ATOM     73  C   UNL     1       7.158   6.327  23.810  0.00  0.00    +0.180 C 
ATOM     74  C   UNL     1       6.890   5.343  22.659  0.00  0.00    +0.174 C 
BRANCH  74  75
ATOM     75  O   UNL     1       8.118   4.639  22.389  0.00  0.00    -0.387 OA
ATOM     76  H   UNL     1       7.870   3.700  22.238  0.00  0.00    +0.210 HD
ENDBRANCH  74  75
BRANCH  73  77
ATOM     77  O   UNL     1       8.328   7.104  23.508  0.00  0.00    -0.386 OA
ATOM     78  H   UNL     1       8.732   7.326  24.374  0.00  0.00    +0.210 HD
ENDBRANCH  73  77
BRANCH  72  79
ATOM     79  O   UNL     1       8.611   4.857  25.071  0.00  0.00    -0.383 OA
ATOM     80  H   UNL     1       8.678   4.384  25.923  0.00  0.00    +0.210 HD
ENDBRANCH  72  79
ENDBRANCH  67  71
ENDBRANCH  44  67
ENDBRANCH  43  49
ENDBRANCH   1  43
TORSDOF 27
ENDMDL
MODEL 8
REMARK VINA RESULT:      -5.2      2.256      5.936
REMARK  Name = 
REMARK  28 active torsions:
REMARK  status: ('A' for Active; 'I' for Inactive)
REMARK    1  A    between atoms: C_1  and  C_2
REMARK    2  A    between atoms: C_3  and  O_75
REMARK    3  A    between atoms: C_5  and  O_74
REMARK    4  A    between atoms: C_6  and  O_73
REMARK    5  A    between atoms: C_8  and  O_11
REMARK    6  A    between atoms: O_11  and  C_12
REMARK    7  A    between atoms: C_14  and  O_72
REMARK    8  A    between atoms: C_19  and  C_64
REMARK    9  A    between atoms: C_20  and  O_23
REMARK   10  A    between atoms: O_23  and  C_24
REMARK   11  A    between atoms: C_26  and  O_49
REMARK   12  A    between atoms: C_27  and  O_48
REMARK   13  A    between atoms: C_29  and  O_47
REMARK   14  A    between atoms: C_31  and  C_33
REMARK   15  A    between atoms: C_33  and  O_34
REMARK   16  A    between atoms: O_34  and  C_35
REMARK   17  A    between atoms: C_35  and  C_37
REMARK   18  A    between atoms: C_38  and  C_39
REMARK   19  A    between atoms: C_41  and  O_46
REMARK   20  A    between atoms: C_42  and  O_45
REMARK   21  A    between atoms: O_49  and  C_50
REMARK   22  A    between atoms: C_52  and  O_63
REMARK   23  A    between atoms: C_53  and  O_62
REMARK   24  A    between atoms: C_55  and  O_61
REMARK   25  A    between atoms: C_57  and  C_59
REMARK   26  A    between atoms: C_59  and  O_60
REMARK   27  A    between atoms: C_66  and  O_71
REMARK   28  A    between atoms: C_67  and  O_70
REMARK                            x       y       z     vdW  Elec       q    Type
REMARK                         _______ _______ _______ _____ _____    ______ ____
ROOT
ATOM      1  C   UNL     1       4.191  -0.698  29.118  0.00  0.00    +0.340 C 
ATOM      2  O   UNL     1       3.994  -1.906  29.887  0.00  0.00    -0.330 OA
ATOM      3  C   UNL     1       3.589  -3.061  29.125  0.00  0.00    +0.191 C 
ATOM      4  C   UNL     1       2.254  -2.790  28.425  0.00  0.00    +0.178 C 
ATOM      5  C   UNL     1       2.467  -1.645  27.437  0.00  0.00    +0.180 C 
ATOM      6  C   UNL     1       2.977  -0.385  28.161  0.00  0.00    +0.221 C 
ENDROOT
BRANCH   5   7
ATOM      7  O   UNL     1       3.346  -2.047  26.384  0.00  0.00    -0.386 OA
ATOM      8  H   UNL     1       3.437  -1.299  25.766  0.00  0.00    +0.210 HD
ENDBRANCH   5   7
BRANCH   4   9
ATOM      9  O   UNL     1       1.242  -2.459  29.391  0.00  0.00    -0.386 OA
ATOM     10  H   UNL     1       1.633  -1.846  30.040  0.00  0.00    +0.210 HD
ENDBRANCH   4   9
BRANCH   6  11
ATOM     11  O   UNL     1       3.129   0.797  27.297  0.00  0.00    -0.337 OA
BRANCH  11  12
ATOM     12  C   UNL     1       1.894   1.282  26.672  0.00  0.00    +0.282 C 
ATOM     13  O   UNL     1       2.151   2.152  25.522  0.00  0.00    -0.341 OA
ATOM     14  C   UNL     1       2.579   3.516  25.790  0.00  0.00    +0.178 C 
ATOM     15  C   UNL     1       1.758   4.220  26.894  0.00  0.00    +0.177 C 
ATOM     16  C   UNL     1       1.628   3.308  28.105  0.00  0.00    +0.179 C 
ATOM     17  C   UNL     1       0.926   2.024  27.635  0.00  0.00    +0.201 C 
BRANCH  17  18
ATOM     18  O   UNL     1       0.443   1.243  28.735  0.00  0.00    -0.384 OA
ATOM     19  H   UNL     1      -0.532   1.275  28.718  0.00  0.00    +0.210 HD
ENDBRANCH  17  18
BRANCH  16  20
ATOM     20  O   UNL     1       2.898   3.069  28.709  0.00  0.00    -0.386 OA
ATOM     21  H   UNL     1       3.569   2.894  28.013  0.00  0.00    +0.210 HD
ENDBRANCH  16  20
BRANCH  15  22
ATOM     22  O   UNL     1       0.444   4.562  26.421  0.00  0.00    -0.386 OA
ATOM     23  H   UNL     1       0.392   5.529  26.307  0.00  0.00    +0.210 HD
ENDBRANCH  15  22
BRANCH  14  24
ATOM     24  C   UNL     1       2.520   4.436  24.539  0.00  0.00    +0.190 C 
BRANCH  24  25
ATOM     25  O   UNL     1       3.081   5.727  24.744  0.00  0.00    -0.392 OA
ATOM     26  H   UNL     1       2.372   6.379  24.640  0.00  0.00    +0.210 HD
ENDBRANCH  24  25
ENDBRANCH  14  24
ENDBRANCH  11  12
ENDBRANCH   6  11
BRANCH   3  27
ATOM     27  C   UNL     1       3.476  -4.273  30.075  0.00  0.00    +0.266 C 
BRANCH  27  28
ATOM     28  O   UNL     1       4.623  -5.137  29.916  0.00  0.00    -0.459 OA
BRANCH  28  29
ATOM     29  C   UNL     1       4.386  -6.250  29.181  0.00  0.00    +0.332 C 
ATOM     30  O   UNL     1       3.767  -7.240  29.545  0.00  0.00    -0.246 OA
BRANCH  29  31
ATOM     31  C   UNL     1       4.957  -6.056  27.835  0.00  0.00    +0.092 C 
ATOM     32  C   UNL     1       4.107  -5.983  26.791  0.00  0.00    +0.015 C 
BRANCH  32  33
ATOM     33  C   UNL     1       4.467  -5.730  25.391  0.00  0.00    -0.021 A 
ATOM     34  C   UNL     1       3.461  -5.239  24.543  0.00  0.00    +0.012 A 
ATOM     35  C   UNL     1       3.741  -4.842  23.233  0.00  0.00    +0.050 A 
ATOM     36  C   UNL     1       5.022  -5.020  22.742  0.00  0.00    +0.158 A 
ATOM     37  C   UNL     1       5.995  -5.610  23.535  0.00  0.00    +0.159 A 
ATOM     38  C   UNL     1       5.739  -5.958  24.855  0.00  0.00    +0.057 A 
BRANCH  37  39
ATOM     39  O   UNL     1       7.220  -5.838  22.953  0.00  0.00    -0.503 OA
ATOM     40  H   UNL     1       7.101  -5.783  21.989  0.00  0.00    +0.292 HD
ENDBRANCH  37  39
BRANCH  36  41
ATOM     41  O   UNL     1       5.308  -4.590  21.478  0.00  0.00    -0.503 OA
ATOM     42  H   UNL     1       6.119  -5.077  21.233  0.00  0.00    +0.292 HD
ENDBRANCH  36  41
ENDBRANCH  32  33
ENDBRANCH  29  31
ENDBRANCH  28  29
ENDBRANCH  27  28
ENDBRANCH   3  27
BRANCH   1  43
ATOM     43  O   UNL     1       5.469  -0.710  28.477  0.00  0.00    -0.453 OA
BRANCH  43  49
ATOM     44  C   UNL     1       6.732   5.410  27.203  0.00  0.00    +0.131 A 
ATOM     45  C   UNL     1       7.262   4.208  26.727  0.00  0.00    +0.093 A 
ATOM     46  C   UNL     1       7.049   3.012  27.417  0.00  0.00    +0.147 A 
ATOM     47  O   UNL     1       7.599   1.870  26.900  0.00  0.00    -0.451 OA
ATOM     48  C   UNL     1       6.964   0.673  27.216  0.00  0.00    +0.181 A 
ATOM     49  C   UNL     1       6.172   0.485  28.297  0.00  0.00    +0.214 A 
ATOM     50  C   UNL     1       6.141   1.669  29.230  0.00  0.00    +0.238 A 
ATOM     51  O   UNL     1       6.064   1.571  30.447  0.00  0.00    -0.283 OA
ATOM     52  C   UNL     1       6.298   2.988  28.582  0.00  0.00    +0.109 A 
ATOM     53  C   UNL     1       5.738   4.177  29.052  0.00  0.00    +0.135 A 
ATOM     54  C   UNL     1       5.967   5.385  28.375  0.00  0.00    +0.092 A 
BRANCH  48  55
ATOM     55  C   UNL     1       7.220  -0.367  26.213  0.00  0.00    +0.025 A 
ATOM     56  C   UNL     1       8.298  -1.248  26.391  0.00  0.00    +0.015 A 
ATOM     57  C   UNL     1       8.574  -2.231  25.443  0.00  0.00    +0.050 A 
ATOM     58  C   UNL     1       7.736  -2.367  24.351  0.00  0.00    +0.158 A 
ATOM     59  C   UNL     1       6.607  -1.566  24.224  0.00  0.00    +0.159 A 
ATOM     60  C   UNL     1       6.356  -0.535  25.121  0.00  0.00    +0.060 A 
BRANCH  59  61
ATOM     61  O   UNL     1       5.738  -1.867  23.217  0.00  0.00    -0.503 OA
ATOM     62  H   UNL     1       4.890  -2.132  23.620  0.00  0.00    +0.292 HD
ENDBRANCH  59  61
BRANCH  58  63
ATOM     63  O   UNL     1       8.035  -3.282  23.387  0.00  0.00    -0.503 OA
ATOM     64  H   UNL     1       8.356  -4.063  23.878  0.00  0.00    +0.292 HD
ENDBRANCH  58  63
ENDBRANCH  48  55
BRANCH  53  65
ATOM     65  O   UNL     1       4.916   4.167  30.141  0.00  0.00    -0.506 OA
ATOM     66  H   UNL     1       4.300   3.418  30.085  0.00  0.00    +0.292 HD
ENDBRANCH  53  65
BRANCH  44  67
ATOM     67  O   UNL     1       6.877   6.648  26.622  0.00  0.00    -0.461 OA
BRANCH  67  71
ATOM     68  C   UNL     1       5.522   6.909  22.598  0.00  0.00    +0.041 C 
ATOM     69  C   UNL     1       6.290   5.702  23.121  0.00  0.00    +0.150 C 
ATOM     70  O   UNL     1       6.283   5.658  24.552  0.00  0.00    -0.334 OA
ATOM     71  C   UNL     1       7.051   6.684  25.195  0.00  0.00    +0.339 C 
ATOM     72  C   UNL     1       8.545   6.533  24.807  0.00  0.00    +0.214 C 
ATOM     73  C   UNL     1       8.659   6.616  23.276  0.00  0.00    +0.180 C 
ATOM     74  C   UNL     1       7.725   5.608  22.586  0.00  0.00    +0.174 C 
BRANCH  74  75
ATOM     75  O   UNL     1       8.248   4.288  22.828  0.00  0.00    -0.387 OA
ATOM     76  H   UNL     1       8.953   4.390  23.506  0.00  0.00    +0.210 HD
ENDBRANCH  74  75
BRANCH  73  77
ATOM     77  O   UNL     1      10.016   6.347  22.887  0.00  0.00    -0.386 OA
ATOM     78  H   UNL     1      10.409   7.219  22.666  0.00  0.00    +0.210 HD
ENDBRANCH  73  77
BRANCH  72  79
ATOM     79  O   UNL     1       9.085   5.267  25.241  0.00  0.00    -0.383 OA
ATOM     80  H   UNL     1       8.982   4.670  24.474  0.00  0.00    +0.210 HD
ENDBRANCH  72  79
ENDBRANCH  67  71
ENDBRANCH  44  67
ENDBRANCH  43  49
ENDBRANCH   1  43
TORSDOF 27
ENDMDL
MODEL 9
REMARK VINA RESULT:      -5.1      2.127      8.775
REMARK  Name = 
REMARK  28 active torsions:
REMARK  status: ('A' for Active; 'I' for Inactive)
REMARK    1  A    between atoms: C_1  and  C_2
REMARK    2  A    between atoms: C_3  and  O_75
REMARK    3  A    between atoms: C_5  and  O_74
REMARK    4  A    between atoms: C_6  and  O_73
REMARK    5  A    between atoms: C_8  and  O_11
REMARK    6  A    between atoms: O_11  and  C_12
REMARK    7  A    between atoms: C_14  and  O_72
REMARK    8  A    between atoms: C_19  and  C_64
REMARK    9  A    between atoms: C_20  and  O_23
REMARK   10  A    between atoms: O_23  and  C_24
REMARK   11  A    between atoms: C_26  and  O_49
REMARK   12  A    between atoms: C_27  and  O_48
REMARK   13  A    between atoms: C_29  and  O_47
REMARK   14  A    between atoms: C_31  and  C_33
REMARK   15  A    between atoms: C_33  and  O_34
REMARK   16  A    between atoms: O_34  and  C_35
REMARK   17  A    between atoms: C_35  and  C_37
REMARK   18  A    between atoms: C_38  and  C_39
REMARK   19  A    between atoms: C_41  and  O_46
REMARK   20  A    between atoms: C_42  and  O_45
REMARK   21  A    between atoms: O_49  and  C_50
REMARK   22  A    between atoms: C_52  and  O_63
REMARK   23  A    between atoms: C_53  and  O_62
REMARK   24  A    between atoms: C_55  and  O_61
REMARK   25  A    between atoms: C_57  and  C_59
REMARK   26  A    between atoms: C_59  and  O_60
REMARK   27  A    between atoms: C_66  and  O_71
REMARK   28  A    between atoms: C_67  and  O_70
REMARK                            x       y       z     vdW  Elec       q    Type
REMARK                         _______ _______ _______ _____ _____    ______ ____
ROOT
ATOM      1  C   UNL     1       6.672   1.117  24.109  0.00  0.00    +0.340 C 
ATOM      2  O   UNL     1       7.877   1.005  23.320  0.00  0.00    -0.330 OA
ATOM      3  C   UNL     1       8.959   1.868  23.724  0.00  0.00    +0.191 C 
ATOM      4  C   UNL     1       8.531   3.334  23.625  0.00  0.00    +0.178 C 
ATOM      5  C   UNL     1       7.382   3.554  24.609  0.00  0.00    +0.180 C 
ATOM      6  C   UNL     1       6.206   2.612  24.294  0.00  0.00    +0.221 C 
ENDROOT
BRANCH   5   7
ATOM      7  O   UNL     1       7.839   3.406  25.955  0.00  0.00    -0.386 OA
ATOM      8  H   UNL     1       8.623   3.975  26.070  0.00  0.00    +0.210 HD
ENDBRANCH   5   7
BRANCH   4   9
ATOM      9  O   UNL     1       8.129   3.648  22.282  0.00  0.00    -0.386 OA
ATOM     10  H   UNL     1       7.543   2.935  21.967  0.00  0.00    +0.210 HD
ENDBRANCH   4   9
BRANCH   6  11
ATOM     11  O   UNL     1       5.018   2.814  25.141  0.00  0.00    -0.337 OA
BRANCH  11  12
ATOM     12  C   UNL     1       4.417   4.150  25.073  0.00  0.00    +0.282 C 
ATOM     13  O   UNL     1       4.271   4.768  26.393  0.00  0.00    -0.341 OA
ATOM     14  C   UNL     1       3.186   4.297  27.241  0.00  0.00    +0.178 C 
ATOM     15  C   UNL     1       1.837   4.152  26.501  0.00  0.00    +0.177 C 
ATOM     16  C   UNL     1       2.041   3.400  25.194  0.00  0.00    +0.179 C 
ATOM     17  C   UNL     1       3.041   4.209  24.354  0.00  0.00    +0.201 C 
BRANCH  17  18
ATOM     18  O   UNL     1       3.051   3.792  22.983  0.00  0.00    -0.384 OA
ATOM     19  H   UNL     1       2.634   4.498  22.454  0.00  0.00    +0.210 HD
ENDBRANCH  17  18
BRANCH  16  20
ATOM     20  O   UNL     1       2.458   2.056  25.432  0.00  0.00    -0.386 OA
ATOM     21  H   UNL     1       1.845   1.434  24.981  0.00  0.00    +0.210 HD
ENDBRANCH  16  20
BRANCH  15  22
ATOM     22  O   UNL     1       1.263   5.439  26.218  0.00  0.00    -0.386 OA
ATOM     23  H   UNL     1       1.794   5.876  25.528  0.00  0.00    +0.210 HD
ENDBRANCH  15  22
BRANCH  14  24
ATOM     24  C   UNL     1       2.923   5.215  28.467  0.00  0.00    +0.190 C 
BRANCH  24  25
ATOM     25  O   UNL     1       1.725   4.909  29.170  0.00  0.00    -0.392 OA
ATOM     26  H   UNL     1       1.717   3.956  29.343  0.00  0.00    +0.210 HD
ENDBRANCH  24  25
ENDBRANCH  14  24
ENDBRANCH  11  12
ENDBRANCH   6  11
BRANCH   3  27
ATOM     27  C   UNL     1      10.184   1.590  22.825  0.00  0.00    +0.266 C 
BRANCH  27  28
ATOM     28  O   UNL     1      10.566   0.201  22.921  0.00  0.00    -0.459 OA
BRANCH  28  29
ATOM     29  C   UNL     1       9.930  -0.615  22.045  0.00  0.00    +0.332 C 
ATOM     30  O   UNL     1       9.733  -0.390  20.859  0.00  0.00    -0.246 OA
BRANCH  29  31
ATOM     31  C   UNL     1       9.554  -1.856  22.746  0.00  0.00    +0.092 C 
ATOM     32  C   UNL     1       9.672  -1.886  24.089  0.00  0.00    +0.015 C 
BRANCH  32  33
ATOM     33  C   UNL     1       9.291  -2.993  24.973  0.00  0.00    -0.021 A 
ATOM     34  C   UNL     1       8.525  -2.682  26.108  0.00  0.00    +0.012 A 
ATOM     35  C   UNL     1       8.003  -3.682  26.932  0.00  0.00    +0.050 A 
ATOM     36  C   UNL     1       8.324  -5.001  26.666  0.00  0.00    +0.158 A 
ATOM     37  C   UNL     1       9.173  -5.311  25.614  0.00  0.00    +0.159 A 
ATOM     38  C   UNL     1       9.653  -4.328  24.758  0.00  0.00    +0.057 A 
BRANCH  37  39
ATOM     39  O   UNL     1       9.522  -6.633  25.462  0.00  0.00    -0.503 OA
ATOM     40  H   UNL     1      10.482  -6.667  25.311  0.00  0.00    +0.292 HD
ENDBRANCH  37  39
BRANCH  36  41
ATOM     41  O   UNL     1       7.778  -5.982  27.443  0.00  0.00    -0.503 OA
ATOM     42  H   UNL     1       7.283  -5.498  28.133  0.00  0.00    +0.292 HD
ENDBRANCH  36  41
ENDBRANCH  32  33
ENDBRANCH  29  31
ENDBRANCH  28  29
ENDBRANCH  27  28
ENDBRANCH   3  27
BRANCH   1  43
ATOM     43  O   UNL     1       6.794   0.375  25.325  0.00  0.00    -0.453 OA
BRANCH  43  49
ATOM     44  C   UNL     1       3.033  -2.471  29.618  0.00  0.00    +0.131 A 
ATOM     45  C   UNL     1       3.242  -2.672  28.251  0.00  0.00    +0.093 A 
ATOM     46  C   UNL     1       3.864  -1.692  27.473  0.00  0.00    +0.147 A 
ATOM     47  O   UNL     1       4.035  -1.951  26.139  0.00  0.00    -0.451 OA
ATOM     48  C   UNL     1       5.090  -1.300  25.508  0.00  0.00    +0.181 A 
ATOM     49  C   UNL     1       5.654  -0.149  25.943  0.00  0.00    +0.214 A 
ATOM     50  C   UNL     1       4.939   0.461  27.122  0.00  0.00    +0.238 A 
ATOM     51  O   UNL     1       4.820   1.666  27.294  0.00  0.00    -0.283 OA
ATOM     52  C   UNL     1       4.298  -0.505  28.040  0.00  0.00    +0.109 A 
ATOM     53  C   UNL     1       4.121  -0.303  29.410  0.00  0.00    +0.135 A 
ATOM     54  C   UNL     1       3.478  -1.275  30.192  0.00  0.00    +0.092 A 
BRANCH  48  55
ATOM     55  C   UNL     1       5.558  -2.030  24.324  0.00  0.00    +0.025 A 
ATOM     56  C   UNL     1       6.031  -1.314  23.213  0.00  0.00    +0.015 A 
ATOM     57  C   UNL     1       6.461  -1.983  22.070  0.00  0.00    +0.050 A 
ATOM     58  C   UNL     1       6.472  -3.366  22.064  0.00  0.00    +0.158 A 
ATOM     59  C   UNL     1       6.105  -4.079  23.198  0.00  0.00    +0.159 A 
ATOM     60  C   UNL     1       5.606  -3.431  24.322  0.00  0.00    +0.060 A 
BRANCH  59  61
ATOM     61  O   UNL     1       6.301  -5.429  23.178  0.00  0.00    -0.503 OA
ATOM     62  H   UNL     1       6.931  -5.632  22.463  0.00  0.00    +0.292 HD
ENDBRANCH  59  61
BRANCH  58  63
ATOM     63  O   UNL     1       6.830  -4.028  20.928  0.00  0.00    -0.503 OA
ATOM     64  H   UNL     1       6.909  -4.963  21.200  0.00  0.00    +0.292 HD
ENDBRANCH  58  63
ENDBRANCH  48  55
BRANCH  53  65
ATOM     65  O   UNL     1       4.625   0.814  30.011  0.00  0.00    -0.506 OA
ATOM     66  H   UNL     1       4.990   1.415  29.342  0.00  0.00    +0.292 HD
ENDBRANCH  53  65
BRANCH  44  67
ATOM     67  O   UNL     1       2.427  -3.350  30.485  0.00  0.00    -0.461 OA
BRANCH  67  71
ATOM     68  C   UNL     1       5.350  -6.442  30.485  0.00  0.00    +0.041 C 
ATOM     69  C   UNL     1       4.384  -6.235  29.324  0.00  0.00    +0.150 C 
ATOM     70  O   UNL     1       3.791  -4.933  29.365  0.00  0.00    -0.334 OA
ATOM     71  C   UNL     1       2.867  -4.718  30.440  0.00  0.00    +0.339 C 
ATOM     72  C   UNL     1       1.667  -5.689  30.293  0.00  0.00    +0.214 C 
ATOM     73  C   UNL     1       2.207  -7.130  30.289  0.00  0.00    +0.180 C 
ATOM     74  C   UNL     1       3.302  -7.317  29.226  0.00  0.00    +0.174 C 
BRANCH  74  75
ATOM     75  O   UNL     1       2.672  -7.257  27.932  0.00  0.00    -0.387 OA
ATOM     76  H   UNL     1       2.882  -8.107  27.483  0.00  0.00    +0.210 HD
ENDBRANCH  74  75
BRANCH  73  77
ATOM     77  O   UNL     1       1.126  -8.039  30.022  0.00  0.00    -0.386 OA
ATOM     78  H   UNL     1       1.505  -8.939  30.120  0.00  0.00    +0.210 HD
ENDBRANCH  73  77
BRANCH  72  79
ATOM     79  O   UNL     1       0.944  -5.465  29.065  0.00  0.00    -0.383 OA
ATOM     80  H   UNL     1       1.562  -4.971  28.492  0.00  0.00    +0.210 HD
ENDBRANCH  72  79
ENDBRANCH  67  71
ENDBRANCH  44  67
ENDBRANCH  43  49
ENDBRANCH   1  43
TORSDOF 27
ENDMDL
