MODEL 1
REMARK VINA RESULT:      -7.2      0.000      0.000
REMARK  Name = 
REMARK  22 active torsions:
REMARK  status: ('A' for Active; 'I' for Inactive)
REMARK    1  A    between atoms: C_3  and  O_60
REMARK    2  A    between atoms: C_4  and  O_59
REMARK    3  A    between atoms: C_6  and  C_7
REMARK    4  A    between atoms: C_8  and  O_20
REMARK    5  A    between atoms: C_12  and  O_19
REMARK    6  A    between atoms: C_14  and  O_18
REMARK    7  A    between atoms: O_20  and  C_21
REMARK    8  A    between atoms: C_23  and  O_47
REMARK    9  A    between atoms: C_25  and  O_35
REMARK   10  A    between atoms: C_27  and  O_34
REMARK   11  A    between atoms: C_29  and  C_32
REMARK   12  A    between atoms: C_32  and  O_33
REMARK   13  A    between atoms: O_35  and  C_36
REMARK   14  A    between atoms: C_36  and  C_38
REMARK   15  A    between atoms: C_40  and  O_46
REMARK   16  A    between atoms: C_41  and  O_45
REMARK   17  A    between atoms: C_42  and  O_44
REMARK   18  A    between atoms: O_47  and  C_48
REMARK   19  A    between atoms: C_48  and  C_50
REMARK   20  A    between atoms: C_52  and  O_58
REMARK   21  A    between atoms: C_53  and  O_57
REMARK   22  A    between atoms: C_54  and  O_56
REMARK                            x       y       z     vdW  Elec       q    Type
REMARK                         _______ _______ _______ _____ _____    ______ ____
ROOT
ATOM      1  C   UNL     1       7.325  -1.807  24.924  0.00  0.00    +0.353 C 
ATOM      2  O   UNL     1       8.755  -1.847  25.137  0.00  0.00    -0.330 OA
ATOM      3  C   UNL     1       9.742  -1.577  24.108  0.00  0.00    +0.180 C 
ATOM      4  C   UNL     1       9.267  -1.773  22.643  0.00  0.00    +0.190 C 
ATOM      5  C   UNL     1       7.821  -1.286  22.493  0.00  0.00    +0.254 C 
ATOM      6  C   UNL     1       6.888  -2.158  23.473  0.00  0.00    +0.288 C 
ENDROOT
BRANCH   4   7
ATOM      7  O   UNL     1      10.127  -1.088  21.711  0.00  0.00    -0.385 OA
ATOM      8  H   UNL     1       9.782  -0.182  21.590  0.00  0.00    +0.210 HD
ENDBRANCH   4   7
BRANCH   1   9
ATOM      9  O   UNL     1       6.735  -0.467  25.071  0.00  0.00    -0.452 OA
BRANCH   9  20
ATOM     10  C   UNL     1       5.294  -0.289  27.012  0.00  0.00    +0.181 A 
ATOM     11  O   UNL     1       4.691   0.525  27.970  0.00  0.00    -0.451 OA
ATOM     12  C   UNL     1       5.122   1.783  28.218  0.00  0.00    +0.147 A 
ATOM     13  C   UNL     1       6.193   2.335  27.551  0.00  0.00    +0.109 A 
ATOM     14  C   UNL     1       6.598   3.633  27.888  0.00  0.00    +0.135 A 
ATOM     15  C   UNL     1       5.925   4.357  28.874  0.00  0.00    +0.091 A 
ATOM     16  C   UNL     1       4.836   3.793  29.512  0.00  0.00    +0.124 A 
ATOM     17  C   UNL     1       6.833   1.552  26.488  0.00  0.00    +0.238 A 
ATOM     18  O   UNL     1       7.713   2.078  25.814  0.00  0.00    -0.283 OA
ATOM     19  C   UNL     1       4.408   2.505  29.176  0.00  0.00    +0.092 A 
ATOM     20  C   UNL     1       6.328   0.162  26.237  0.00  0.00    +0.214 A 
BRANCH  10  22
ATOM     21  C   UNL     1       3.591  -1.964  26.116  0.00  0.00    +0.015 A 
ATOM     22  C   UNL     1       4.584  -1.634  27.090  0.00  0.00    +0.025 A 
ATOM     23  C   UNL     1       4.684  -2.517  28.164  0.00  0.00    +0.060 A 
ATOM     24  C   UNL     1       3.812  -3.606  28.295  0.00  0.00    +0.159 A 
ATOM     25  C   UNL     1       2.794  -3.841  27.379  0.00  0.00    +0.158 A 
ATOM     26  C   UNL     1       2.691  -3.036  26.262  0.00  0.00    +0.050 A 
BRANCH  25  27
ATOM     27  O   UNL     1       1.914  -4.854  27.634  0.00  0.00    -0.503 OA
ATOM     28  H   UNL     1       2.393  -5.701  27.586  0.00  0.00    +0.292 HD
ENDBRANCH  25  27
BRANCH  24  29
ATOM     29  O   UNL     1       3.940  -4.436  29.376  0.00  0.00    -0.503 OA
ATOM     30  H   UNL     1       3.329  -5.178  29.188  0.00  0.00    +0.292 HD
ENDBRANCH  24  29
ENDBRANCH  10  22
BRANCH  14  31
ATOM     31  O   UNL     1       7.641   4.269  27.275  0.00  0.00    -0.506 OA
ATOM     32  H   UNL     1       8.471   4.037  27.750  0.00  0.00    +0.292 HD
ENDBRANCH  14  31
BRANCH  16  33
ATOM     33  O   UNL     1       4.141   4.440  30.485  0.00  0.00    -0.507 OA
ATOM     34  H   UNL     1       4.683   5.174  30.821  0.00  0.00    +0.292 HD
ENDBRANCH  16  33
ENDBRANCH   9  20
ENDBRANCH   1   9
BRANCH   6  35
ATOM     35  O   UNL     1       6.423  -3.617  23.042  0.00  0.00    -0.448 OA
BRANCH  35  36
ATOM     36  C   UNL     1       5.303  -4.392  23.397  0.00  0.00    +0.340 C 
ATOM     37  O   UNL     1       4.298  -4.432  22.696  0.00  0.00    -0.245 OA
BRANCH  36  38
ATOM     38  C   UNL     1       5.341  -5.249  24.765  0.00  0.00    +0.066 A 
ATOM     39  C   UNL     1       4.284  -6.103  25.127  0.00  0.00    +0.064 A 
ATOM     40  C   UNL     1       4.307  -6.843  26.337  0.00  0.00    +0.163 A 
ATOM     41  C   UNL     1       5.366  -6.780  27.232  0.00  0.00    +0.201 A 
ATOM     42  C   UNL     1       6.422  -5.933  26.943  0.00  0.00    +0.163 A 
ATOM     43  C   UNL     1       6.409  -5.154  25.742  0.00  0.00    +0.064 A 
BRANCH  42  44
ATOM     44  O   UNL     1       7.425  -5.919  27.884  0.00  0.00    -0.503 OA
ATOM     45  H   UNL     1       8.284  -5.759  27.459  0.00  0.00    +0.292 HD
ENDBRANCH  42  44
BRANCH  41  46
ATOM     46  O   UNL     1       5.338  -7.563  28.362  0.00  0.00    -0.501 OA
ATOM     47  H   UNL     1       4.431  -7.931  28.421  0.00  0.00    +0.292 HD
ENDBRANCH  41  46
BRANCH  40  48
ATOM     48  O   UNL     1       3.250  -7.658  26.653  0.00  0.00    -0.503 OA
ATOM     49  H   UNL     1       2.672  -7.107  27.225  0.00  0.00    +0.292 HD
ENDBRANCH  40  48
ENDBRANCH  36  38
ENDBRANCH  35  36
ENDBRANCH   6  35
BRANCH   5  50
ATOM     50  O   UNL     1       8.098   0.196  22.799  0.00  0.00    -0.451 OA
BRANCH  50  51
ATOM     51  C   UNL     1       8.261   1.301  22.036  0.00  0.00    +0.340 C 
ATOM     52  O   UNL     1       9.056   1.427  21.127  0.00  0.00    -0.245 OA
BRANCH  51  53
ATOM     53  C   UNL     1       7.196   2.338  22.376  0.00  0.00    +0.066 A 
ATOM     54  C   UNL     1       5.946   1.962  22.897  0.00  0.00    +0.064 A 
ATOM     55  C   UNL     1       4.954   2.926  23.134  0.00  0.00    +0.163 A 
ATOM     56  C   UNL     1       5.181   4.268  22.844  0.00  0.00    +0.201 A 
ATOM     57  C   UNL     1       6.405   4.647  22.340  0.00  0.00    +0.163 A 
ATOM     58  C   UNL     1       7.430   3.712  22.136  0.00  0.00    +0.064 A 
BRANCH  57  59
ATOM     59  O   UNL     1       6.554   5.984  22.060  0.00  0.00    -0.503 OA
ATOM     60  H   UNL     1       6.231   6.508  22.811  0.00  0.00    +0.292 HD
ENDBRANCH  57  59
BRANCH  56  61
ATOM     61  O   UNL     1       4.167   5.161  23.055  0.00  0.00    -0.501 OA
ATOM     62  H   UNL     1       3.468   4.641  23.499  0.00  0.00    +0.292 HD
ENDBRANCH  56  61
BRANCH  55  63
ATOM     63  O   UNL     1       3.748   2.526  23.638  0.00  0.00    -0.503 OA
ATOM     64  H   UNL     1       3.096   3.160  23.273  0.00  0.00    +0.292 HD
ENDBRANCH  55  63
ENDBRANCH  51  53
ENDBRANCH  50  51
ENDBRANCH   5  50
BRANCH   3  65
ATOM     65  C   UNL     1      10.508  -0.259  24.420  0.00  0.00    +0.190 C 
BRANCH  65  66
ATOM     66  O   UNL     1       9.854   0.455  25.471  0.00  0.00    -0.392 OA
ATOM     67  H   UNL     1       8.969   0.678  25.116  0.00  0.00    +0.210 HD
ENDBRANCH  65  66
ENDBRANCH   3  65
TORSDOF 22
ENDMDL
MODEL 2
REMARK VINA RESULT:      -7.1      2.331      8.213
REMARK  Name = 
REMARK  22 active torsions:
REMARK  status: ('A' for Active; 'I' for Inactive)
REMARK    1  A    between atoms: C_3  and  O_60
REMARK    2  A    between atoms: C_4  and  O_59
REMARK    3  A    between atoms: C_6  and  C_7
REMARK    4  A    between atoms: C_8  and  O_20
REMARK    5  A    between atoms: C_12  and  O_19
REMARK    6  A    between atoms: C_14  and  O_18
REMARK    7  A    between atoms: O_20  and  C_21
REMARK    8  A    between atoms: C_23  and  O_47
REMARK    9  A    between atoms: C_25  and  O_35
REMARK   10  A    between atoms: C_27  and  O_34
REMARK   11  A    between atoms: C_29  and  C_32
REMARK   12  A    between atoms: C_32  and  O_33
REMARK   13  A    between atoms: O_35  and  C_36
REMARK   14  A    between atoms: C_36  and  C_38
REMARK   15  A    between atoms: C_40  and  O_46
REMARK   16  A    between atoms: C_41  and  O_45
REMARK   17  A    between atoms: C_42  and  O_44
REMARK   18  A    between atoms: O_47  and  C_48
REMARK   19  A    between atoms: C_48  and  C_50
REMARK   20  A    between atoms: C_52  and  O_58
REMARK   21  A    between atoms: C_53  and  O_57
REMARK   22  A    between atoms: C_54  and  O_56
REMARK                            x       y       z     vdW  Elec       q    Type
REMARK                         _______ _______ _______ _____ _____    ______ ____
ROOT
ATOM      1  C   UNL     1       5.999   2.565  26.710  0.00  0.00    +0.353 C 
ATOM      2  O   UNL     1       5.725   2.655  28.128  0.00  0.00    -0.330 OA
ATOM      3  C   UNL     1       5.309   1.535  28.952  0.00  0.00    +0.180 C 
ATOM      4  C   UNL     1       4.636   0.354  28.203  0.00  0.00    +0.190 C 
ATOM      5  C   UNL     1       5.334   0.124  26.858  0.00  0.00    +0.254 C 
ATOM      6  C   UNL     1       5.188   1.462  25.974  0.00  0.00    +0.288 C 
ENDROOT
BRANCH   4   7
ATOM      7  O   UNL     1       4.655  -0.853  28.992  0.00  0.00    -0.385 OA
ATOM      8  H   UNL     1       5.106  -0.656  29.836  0.00  0.00    +0.210 HD
ENDBRANCH   4   7
BRANCH   1   9
ATOM      9  O   UNL     1       7.375   2.152  26.392  0.00  0.00    -0.452 OA
BRANCH   9  20
ATOM     10  C   UNL     1       8.772   1.756  24.452  0.00  0.00    +0.181 A 
ATOM     11  O   UNL     1       9.828   2.179  23.645  0.00  0.00    -0.451 OA
ATOM     12  C   UNL     1      10.293   3.449  23.677  0.00  0.00    +0.147 A 
ATOM     13  C   UNL     1       9.744   4.409  24.497  0.00  0.00    +0.109 A 
ATOM     14  C   UNL     1      10.261   5.710  24.449  0.00  0.00    +0.135 A 
ATOM     15  C   UNL     1      11.318   6.026  23.593  0.00  0.00    +0.091 A 
ATOM     16  C   UNL     1      11.871   5.040  22.798  0.00  0.00    +0.124 A 
ATOM     17  C   UNL     1       8.670   4.013  25.415  0.00  0.00    +0.238 A 
ATOM     18  O   UNL     1       8.253   4.833  26.226  0.00  0.00    -0.283 OA
ATOM     19  C   UNL     1      11.378   3.733  22.846  0.00  0.00    +0.092 A 
ATOM     20  C   UNL     1       8.180   2.596  25.355  0.00  0.00    +0.214 A 
BRANCH  10  22
ATOM     21  C   UNL     1       9.590  -0.606  23.946  0.00  0.00    +0.015 A 
ATOM     22  C   UNL     1       8.498   0.308  24.068  0.00  0.00    +0.025 A 
ATOM     23  C   UNL     1       7.264  -0.171  23.632  0.00  0.00    +0.060 A 
ATOM     24  C   UNL     1       7.141  -1.440  23.049  0.00  0.00    +0.159 A 
ATOM     25  C   UNL     1       8.242  -2.265  22.856  0.00  0.00    +0.158 A 
ATOM     26  C   UNL     1       9.477  -1.866  23.329  0.00  0.00    +0.050 A 
BRANCH  25  27
ATOM     27  O   UNL     1       8.062  -3.439  22.179  0.00  0.00    -0.503 OA
ATOM     28  H   UNL     1       7.560  -4.050  22.747  0.00  0.00    +0.292 HD
ENDBRANCH  25  27
BRANCH  24  29
ATOM     29  O   UNL     1       5.911  -1.861  22.621  0.00  0.00    -0.503 OA
ATOM     30  H   UNL     1       5.957  -2.838  22.666  0.00  0.00    +0.292 HD
ENDBRANCH  24  29
ENDBRANCH  10  22
BRANCH  14  31
ATOM     31  O   UNL     1       9.791   6.727  25.232  0.00  0.00    -0.506 OA
ATOM     32  H   UNL     1      10.029   6.536  26.167  0.00  0.00    +0.292 HD
ENDBRANCH  14  31
BRANCH  16  33
ATOM     33  O   UNL     1      12.896   5.281  21.938  0.00  0.00    -0.507 OA
ATOM     34  H   UNL     1      13.116   6.228  21.971  0.00  0.00    +0.292 HD
ENDBRANCH  16  33
ENDBRANCH   9  20
ENDBRANCH   1   9
BRANCH   6  35
ATOM     35  O   UNL     1       3.830   1.761  25.200  0.00  0.00    -0.448 OA
BRANCH  35  36
ATOM     36  C   UNL     1       3.524   2.634  24.140  0.00  0.00    +0.340 C 
ATOM     37  O   UNL     1       2.391   2.718  23.680  0.00  0.00    -0.245 OA
BRANCH  36  38
ATOM     38  C   UNL     1       4.696   3.548  23.509  0.00  0.00    +0.066 A 
ATOM     39  C   UNL     1       5.704   2.996  22.699  0.00  0.00    +0.064 A 
ATOM     40  C   UNL     1       6.745   3.793  22.158  0.00  0.00    +0.163 A 
ATOM     41  C   UNL     1       6.833   5.160  22.383  0.00  0.00    +0.201 A 
ATOM     42  C   UNL     1       5.886   5.754  23.197  0.00  0.00    +0.163 A 
ATOM     43  C   UNL     1       4.841   4.966  23.779  0.00  0.00    +0.064 A 
BRANCH  42  44
ATOM     44  O   UNL     1       6.049   7.108  23.381  0.00  0.00    -0.503 OA
ATOM     45  H   UNL     1       6.025   7.570  22.526  0.00  0.00    +0.292 HD
ENDBRANCH  42  44
BRANCH  41  46
ATOM     46  O   UNL     1       7.844   5.875  21.786  0.00  0.00    -0.501 OA
ATOM     47  H   UNL     1       7.460   6.278  20.979  0.00  0.00    +0.292 HD
ENDBRANCH  41  46
BRANCH  40  48
ATOM     48  O   UNL     1       7.711   3.209  21.379  0.00  0.00    -0.503 OA
ATOM     49  H   UNL     1       7.215   2.763  20.658  0.00  0.00    +0.292 HD
ENDBRANCH  40  48
ENDBRANCH  36  38
ENDBRANCH  35  36
ENDBRANCH   6  35
BRANCH   5  50
ATOM     50  O   UNL     1       6.702  -0.283  27.431  0.00  0.00    -0.451 OA
BRANCH  50  51
ATOM     51  C   UNL     1       7.716  -1.062  26.990  0.00  0.00    +0.340 C 
ATOM     52  O   UNL     1       8.894  -0.768  26.998  0.00  0.00    -0.245 OA
BRANCH  51  53
ATOM     53  C   UNL     1       7.193  -2.442  26.608  0.00  0.00    +0.066 A 
ATOM     54  C   UNL     1       5.855  -2.640  26.227  0.00  0.00    +0.064 A 
ATOM     55  C   UNL     1       5.376  -3.930  25.950  0.00  0.00    +0.163 A 
ATOM     56  C   UNL     1       6.210  -5.038  26.062  0.00  0.00    +0.201 A 
ATOM     57  C   UNL     1       7.524  -4.854  26.427  0.00  0.00    +0.163 A 
ATOM     58  C   UNL     1       8.041  -3.572  26.666  0.00  0.00    +0.064 A 
BRANCH  57  59
ATOM     59  O   UNL     1       8.285  -5.993  26.535  0.00  0.00    -0.503 OA
ATOM     60  H   UNL     1       8.135  -6.556  25.759  0.00  0.00    +0.292 HD
ENDBRANCH  57  59
BRANCH  56  61
ATOM     61  O   UNL     1       5.684  -6.277  25.820  0.00  0.00    -0.501 OA
ATOM     62  H   UNL     1       4.828  -6.279  26.294  0.00  0.00    +0.292 HD
ENDBRANCH  56  61
BRANCH  55  63
ATOM     63  O   UNL     1       4.068  -4.088  25.585  0.00  0.00    -0.503 OA
ATOM     64  H   UNL     1       3.740  -3.181  25.414  0.00  0.00    +0.292 HD
ENDBRANCH  55  63
ENDBRANCH  51  53
ENDBRANCH  50  51
ENDBRANCH   5  50
BRANCH   3  65
ATOM     65  C   UNL     1       6.423   1.167  29.974  0.00  0.00    +0.190 C 
BRANCH  65  66
ATOM     66  O   UNL     1       7.708   1.504  29.446  0.00  0.00    -0.392 OA
ATOM     67  H   UNL     1       8.106   2.107  30.107  0.00  0.00    +0.210 HD
ENDBRANCH  65  66
ENDBRANCH   3  65
TORSDOF 22
ENDMDL
MODEL 3
REMARK VINA RESULT:      -7.1      1.760      7.279
REMARK  Name = 
REMARK  22 active torsions:
REMARK  status: ('A' for Active; 'I' for Inactive)
REMARK    1  A    between atoms: C_3  and  O_60
REMARK    2  A    between atoms: C_4  and  O_59
REMARK    3  A    between atoms: C_6  and  C_7
REMARK    4  A    between atoms: C_8  and  O_20
REMARK    5  A    between atoms: C_12  and  O_19
REMARK    6  A    between atoms: C_14  and  O_18
REMARK    7  A    between atoms: O_20  and  C_21
REMARK    8  A    between atoms: C_23  and  O_47
REMARK    9  A    between atoms: C_25  and  O_35
REMARK   10  A    between atoms: C_27  and  O_34
REMARK   11  A    between atoms: C_29  and  C_32
REMARK   12  A    between atoms: C_32  and  O_33
REMARK   13  A    between atoms: O_35  and  C_36
REMARK   14  A    between atoms: C_36  and  C_38
REMARK   15  A    between atoms: C_40  and  O_46
REMARK   16  A    between atoms: C_41  and  O_45
REMARK   17  A    between atoms: C_42  and  O_44
REMARK   18  A    between atoms: O_47  and  C_48
REMARK   19  A    between atoms: C_48  and  C_50
REMARK   20  A    between atoms: C_52  and  O_58
REMARK   21  A    between atoms: C_53  and  O_57
REMARK   22  A    between atoms: C_54  and  O_56
REMARK                            x       y       z     vdW  Elec       q    Type
REMARK                         _______ _______ _______ _____ _____    ______ ____
ROOT
ATOM      1  C   UNL     1       5.999  -2.411  23.247  0.00  0.00    +0.353 C 
ATOM      2  O   UNL     1       5.095  -3.339  22.602  0.00  0.00    -0.330 OA
ATOM      3  C   UNL     1       5.438  -4.704  22.252  0.00  0.00    +0.180 C 
ATOM      4  C   UNL     1       6.952  -5.002  22.082  0.00  0.00    +0.190 C 
ATOM      5  C   UNL     1       7.756  -4.234  23.138  0.00  0.00    +0.254 C 
ATOM      6  C   UNL     1       7.500  -2.660  22.926  0.00  0.00    +0.288 C 
ENDROOT
BRANCH   4   7
ATOM      7  O   UNL     1       7.227  -6.414  22.169  0.00  0.00    -0.385 OA
ATOM      8  H   UNL     1       6.377  -6.883  22.277  0.00  0.00    +0.210 HD
ENDBRANCH   4   7
BRANCH   1   9
ATOM      9  O   UNL     1       6.012  -2.512  24.715  0.00  0.00    -0.452 OA
BRANCH   9  20
ATOM     10  C   UNL     1       4.569  -1.412  26.321  0.00  0.00    +0.181 A 
ATOM     11  O   UNL     1       4.203  -0.237  26.976  0.00  0.00    -0.451 OA
ATOM     12  C   UNL     1       5.011   0.847  27.013  0.00  0.00    +0.147 A 
ATOM     13  C   UNL     1       6.255   0.854  26.420  0.00  0.00    +0.109 A 
ATOM     14  C   UNL     1       7.045   2.005  26.531  0.00  0.00    +0.135 A 
ATOM     15  C   UNL     1       6.580   3.127  27.221  0.00  0.00    +0.091 A 
ATOM     16  C   UNL     1       5.319   3.107  27.785  0.00  0.00    +0.124 A 
ATOM     17  C   UNL     1       6.674  -0.331  25.663  0.00  0.00    +0.238 A 
ATOM     18  O   UNL     1       7.729  -0.291  25.039  0.00  0.00    -0.283 OA
ATOM     19  C   UNL     1       4.510   1.973  27.670  0.00  0.00    +0.092 A 
ATOM     20  C   UNL     1       5.752  -1.514  25.640  0.00  0.00    +0.214 A 
BRANCH  10  22
ATOM     21  C   UNL     1       2.919  -2.556  27.894  0.00  0.00    +0.015 A 
ATOM     22  C   UNL     1       3.445  -2.406  26.573  0.00  0.00    +0.025 A 
ATOM     23  C   UNL     1       2.998  -3.344  25.643  0.00  0.00    +0.060 A 
ATOM     24  C   UNL     1       2.150  -4.395  26.018  0.00  0.00    +0.159 A 
ATOM     25  C   UNL     1       1.736  -4.566  27.333  0.00  0.00    +0.158 A 
ATOM     26  C   UNL     1       2.096  -3.629  28.282  0.00  0.00    +0.050 A 
BRANCH  25  27
ATOM     27  O   UNL     1       1.003  -5.677  27.643  0.00  0.00    -0.503 OA
ATOM     28  H   UNL     1       0.285  -5.416  28.246  0.00  0.00    +0.292 HD
ENDBRANCH  25  27
BRANCH  24  29
ATOM     29  O   UNL     1       1.751  -5.300  25.072  0.00  0.00    -0.503 OA
ATOM     30  H   UNL     1       2.092  -4.938  24.228  0.00  0.00    +0.292 HD
ENDBRANCH  24  29
ENDBRANCH  10  22
BRANCH  14  31
ATOM     31  O   UNL     1       8.286   2.112  25.967  0.00  0.00    -0.506 OA
ATOM     32  H   UNL     1       8.177   2.313  25.010  0.00  0.00    +0.292 HD
ENDBRANCH  14  31
BRANCH  16  33
ATOM     33  O   UNL     1       4.809   4.161  28.475  0.00  0.00    -0.507 OA
ATOM     34  H   UNL     1       5.517   4.556  29.012  0.00  0.00    +0.292 HD
ENDBRANCH  16  33
ENDBRANCH   9  20
ENDBRANCH   1   9
BRANCH   6  35
ATOM     35  O   UNL     1       8.280  -1.871  21.785  0.00  0.00    -0.448 OA
BRANCH  35  36
ATOM     36  C   UNL     1       9.393  -1.012  21.825  0.00  0.00    +0.340 C 
ATOM     37  O   UNL     1      10.535  -1.427  21.661  0.00  0.00    -0.245 OA
BRANCH  36  38
ATOM     38  C   UNL     1       9.163   0.562  22.101  0.00  0.00    +0.066 A 
ATOM     39  C   UNL     1      10.154   1.356  22.704  0.00  0.00    +0.064 A 
ATOM     40  C   UNL     1       9.948   2.735  22.963  0.00  0.00    +0.163 A 
ATOM     41  C   UNL     1       8.768   3.389  22.634  0.00  0.00    +0.201 A 
ATOM     42  C   UNL     1       7.744   2.652  22.065  0.00  0.00    +0.163 A 
ATOM     43  C   UNL     1       7.918   1.252  21.820  0.00  0.00    +0.064 A 
BRANCH  42  44
ATOM     44  O   UNL     1       6.605   3.369  21.781  0.00  0.00    -0.503 OA
ATOM     45  H   UNL     1       6.391   3.968  22.516  0.00  0.00    +0.292 HD
ENDBRANCH  42  44
BRANCH  41  46
ATOM     46  O   UNL     1       8.659   4.739  22.873  0.00  0.00    -0.501 OA
ATOM     47  H   UNL     1       7.723   4.976  22.703  0.00  0.00    +0.292 HD
ENDBRANCH  41  46
BRANCH  40  48
ATOM     48  O   UNL     1      10.940   3.469  23.560  0.00  0.00    -0.503 OA
ATOM     49  H   UNL     1      10.499   3.923  24.311  0.00  0.00    +0.292 HD
ENDBRANCH  40  48
ENDBRANCH  36  38
ENDBRANCH  35  36
ENDBRANCH   6  35
BRANCH   5  50
ATOM     50  O   UNL     1       7.178  -4.958  24.366  0.00  0.00    -0.451 OA
BRANCH  50  51
ATOM     51  C   UNL     1       7.678  -5.323  25.568  0.00  0.00    +0.340 C 
ATOM     52  O   UNL     1       8.848  -5.282  25.894  0.00  0.00    -0.245 OA
BRANCH  51  53
ATOM     53  C   UNL     1       6.545  -5.662  26.530  0.00  0.00    +0.066 A 
ATOM     54  C   UNL     1       6.601  -5.298  27.886  0.00  0.00    +0.064 A 
ATOM     55  C   UNL     1       5.582  -5.684  28.770  0.00  0.00    +0.163 A 
ATOM     56  C   UNL     1       4.506  -6.447  28.326  0.00  0.00    +0.201 A 
ATOM     57  C   UNL     1       4.439  -6.802  26.998  0.00  0.00    +0.163 A 
ATOM     58  C   UNL     1       5.419  -6.393  26.084  0.00  0.00    +0.064 A 
BRANCH  57  59
ATOM     59  O   UNL     1       3.358  -7.570  26.633  0.00  0.00    -0.503 OA
ATOM     60  H   UNL     1       3.614  -8.506  26.633  0.00  0.00    +0.292 HD
ENDBRANCH  57  59
BRANCH  56  61
ATOM     61  O   UNL     1       3.559  -6.832  29.236  0.00  0.00    -0.501 OA
ATOM     62  H   UNL     1       3.417  -7.783  29.056  0.00  0.00    +0.292 HD
ENDBRANCH  56  61
BRANCH  55  63
ATOM     63  O   UNL     1       5.668  -5.316  30.084  0.00  0.00    -0.503 OA
ATOM     64  H   UNL     1       5.305  -4.407  30.118  0.00  0.00    +0.292 HD
ENDBRANCH  55  63
ENDBRANCH  51  53
ENDBRANCH  50  51
ENDBRANCH   5  50
BRANCH   3  65
ATOM     65  C   UNL     1       4.624  -5.709  23.116  0.00  0.00    +0.190 C 
BRANCH  65  66
ATOM     66  O   UNL     1       3.245  -5.677  22.744  0.00  0.00    -0.392 OA
ATOM     67  H   UNL     1       2.772  -5.355  23.539  0.00  0.00    +0.210 HD
ENDBRANCH  65  66
ENDBRANCH   3  65
TORSDOF 22
ENDMDL
MODEL 4
REMARK VINA RESULT:      -6.8      1.951      6.344
REMARK  Name = 
REMARK  22 active torsions:
REMARK  status: ('A' for Active; 'I' for Inactive)
REMARK    1  A    between atoms: C_3  and  O_60
REMARK    2  A    between atoms: C_4  and  O_59
REMARK    3  A    between atoms: C_6  and  C_7
REMARK    4  A    between atoms: C_8  and  O_20
REMARK    5  A    between atoms: C_12  and  O_19
REMARK    6  A    between atoms: C_14  and  O_18
REMARK    7  A    between atoms: O_20  and  C_21
REMARK    8  A    between atoms: C_23  and  O_47
REMARK    9  A    between atoms: C_25  and  O_35
REMARK   10  A    between atoms: C_27  and  O_34
REMARK   11  A    between atoms: C_29  and  C_32
REMARK   12  A    between atoms: C_32  and  O_33
REMARK   13  A    between atoms: O_35  and  C_36
REMARK   14  A    between atoms: C_36  and  C_38
REMARK   15  A    between atoms: C_40  and  O_46
REMARK   16  A    between atoms: C_41  and  O_45
REMARK   17  A    between atoms: C_42  and  O_44
REMARK   18  A    between atoms: O_47  and  C_48
REMARK   19  A    between atoms: C_48  and  C_50
REMARK   20  A    between atoms: C_52  and  O_58
REMARK   21  A    between atoms: C_53  and  O_57
REMARK   22  A    between atoms: C_54  and  O_56
REMARK                            x       y       z     vdW  Elec       q    Type
REMARK                         _______ _______ _______ _____ _____    ______ ____
ROOT
ATOM      1  C   UNL     1       4.349  -2.881  26.857  0.00  0.00    +0.353 C 
ATOM      2  O   UNL     1       2.952  -3.072  26.529  0.00  0.00    -0.330 OA
ATOM      3  C   UNL     1       1.859  -2.869  27.461  0.00  0.00    +0.180 C 
ATOM      4  C   UNL     1       2.223  -2.969  28.966  0.00  0.00    +0.190 C 
ATOM      5  C   UNL     1       3.596  -2.334  29.215  0.00  0.00    +0.254 C 
ATOM      6  C   UNL     1       4.691  -3.138  28.352  0.00  0.00    +0.288 C 
ENDROOT
BRANCH   4   7
ATOM      7  O   UNL     1       1.223  -2.345  29.796  0.00  0.00    -0.385 OA
ATOM      8  H   UNL     1       1.639  -1.589  30.256  0.00  0.00    +0.210 HD
ENDBRANCH   4   7
BRANCH   1   9
ATOM      9  O   UNL     1       4.815  -1.494  26.704  0.00  0.00    -0.452 OA
BRANCH   9  20
ATOM     10  C   UNL     1       6.646  -1.463  25.116  0.00  0.00    +0.181 A 
ATOM     11  O   UNL     1       7.480  -0.719  24.283  0.00  0.00    -0.451 OA
ATOM     12  C   UNL     1       7.175   0.543  23.903  0.00  0.00    +0.147 A 
ATOM     13  C   UNL     1       6.014   1.168  24.301  0.00  0.00    +0.109 A 
ATOM     14  C   UNL     1       5.755   2.464  23.838  0.00  0.00    +0.135 A 
ATOM     15  C   UNL     1       6.660   3.114  22.996  0.00  0.00    +0.091 A 
ATOM     16  C   UNL     1       7.831   2.479  22.630  0.00  0.00    +0.124 A 
ATOM     17  C   UNL     1       5.123   0.460  25.228  0.00  0.00    +0.238 A 
ATOM     18  O   UNL     1       4.146   1.052  25.676  0.00  0.00    -0.283 OA
ATOM     19  C   UNL     1       8.112   1.191  23.096  0.00  0.00    +0.092 A 
ATOM     20  C   UNL     1       5.493  -0.936  25.632  0.00  0.00    +0.214 A 
BRANCH  10  22
ATOM     21  C   UNL     1       8.012  -3.171  26.429  0.00  0.00    +0.015 A 
ATOM     22  C   UNL     1       7.288  -2.838  25.242  0.00  0.00    +0.025 A 
ATOM     23  C   UNL     1       7.397  -3.756  24.198  0.00  0.00    +0.060 A 
ATOM     24  C   UNL     1       8.223  -4.884  24.304  0.00  0.00    +0.159 A 
ATOM     25  C   UNL     1       8.988  -5.125  25.437  0.00  0.00    +0.158 A 
ATOM     26  C   UNL     1       8.868  -4.284  26.525  0.00  0.00    +0.050 A 
BRANCH  25  27
ATOM     27  O   UNL     1       9.853  -6.183  25.422  0.00  0.00    -0.503 OA
ATOM     28  H   UNL     1       9.383  -6.964  25.080  0.00  0.00    +0.292 HD
ENDBRANCH  25  27
BRANCH  24  29
ATOM     29  O   UNL     1       8.308  -5.748  23.246  0.00  0.00    -0.503 OA
ATOM     30  H   UNL     1       9.082  -5.434  22.735  0.00  0.00    +0.292 HD
ENDBRANCH  24  29
ENDBRANCH  10  22
BRANCH  14  31
ATOM     31  O   UNL     1       4.638   3.170  24.188  0.00  0.00    -0.506 OA
ATOM     32  H   UNL     1       4.214   3.508  23.367  0.00  0.00    +0.292 HD
ENDBRANCH  14  31
BRANCH  16  33
ATOM     33  O   UNL     1       8.750   3.051  21.808  0.00  0.00    -0.507 OA
ATOM     34  H   UNL     1       8.400   3.903  21.494  0.00  0.00    +0.292 HD
ENDBRANCH  16  33
ENDBRANCH   9  20
ENDBRANCH   1   9
BRANCH   6  35
ATOM     35  O   UNL     1       5.258  -4.528  28.879  0.00  0.00    -0.448 OA
BRANCH  35  36
ATOM     36  C   UNL     1       5.755  -5.659  28.206  0.00  0.00    +0.340 C 
ATOM     37  O   UNL     1       6.807  -6.195  28.534  0.00  0.00    -0.245 OA
BRANCH  36  38
ATOM     38  C   UNL     1       4.919  -6.266  26.965  0.00  0.00    +0.066 A 
ATOM     39  C   UNL     1       5.453  -6.301  25.664  0.00  0.00    +0.064 A 
ATOM     40  C   UNL     1       4.715  -6.817  24.569  0.00  0.00    +0.163 A 
ATOM     41  C   UNL     1       3.430  -7.326  24.707  0.00  0.00    +0.201 A 
ATOM     42  C   UNL     1       2.840  -7.291  25.959  0.00  0.00    +0.163 A 
ATOM     43  C   UNL     1       3.555  -6.748  27.075  0.00  0.00    +0.064 A 
BRANCH  42  44
ATOM     44  O   UNL     1       1.564  -7.801  26.010  0.00  0.00    -0.503 OA
ATOM     45  H   UNL     1       1.344  -8.068  26.918  0.00  0.00    +0.292 HD
ENDBRANCH  42  44
BRANCH  41  46
ATOM     46  O   UNL     1       2.795  -7.853  23.608  0.00  0.00    -0.501 OA
ATOM     47  H   UNL     1       2.505  -8.755  23.861  0.00  0.00    +0.292 HD
ENDBRANCH  41  46
BRANCH  40  48
ATOM     48  O   UNL     1       5.274  -6.825  23.317  0.00  0.00    -0.503 OA
ATOM     49  H   UNL     1       4.867  -7.597  22.866  0.00  0.00    +0.292 HD
ENDBRANCH  40  48
ENDBRANCH  36  38
ENDBRANCH  35  36
ENDBRANCH   6  35
BRANCH   5  50
ATOM     50  O   UNL     1       3.203  -0.898  28.827  0.00  0.00    -0.451 OA
BRANCH  50  51
ATOM     51  C   UNL     1       3.159   0.279  29.492  0.00  0.00    +0.340 C 
ATOM     52  O   UNL     1       2.373   0.571  30.371  0.00  0.00    -0.245 OA
BRANCH  51  53
ATOM     53  C   UNL     1       4.338   1.157  29.088  0.00  0.00    +0.066 A 
ATOM     54  C   UNL     1       4.157   2.493  28.695  0.00  0.00    +0.064 A 
ATOM     55  C   UNL     1       5.247   3.262  28.257  0.00  0.00    +0.163 A 
ATOM     56  C   UNL     1       6.523   2.712  28.189  0.00  0.00    +0.201 A 
ATOM     57  C   UNL     1       6.712   1.405  28.579  0.00  0.00    +0.163 A 
ATOM     58  C   UNL     1       5.650   0.628  29.063  0.00  0.00    +0.064 A 
BRANCH  57  59
ATOM     59  O   UNL     1       7.994   0.922  28.468  0.00  0.00    -0.503 OA
ATOM     60  H   UNL     1       7.977  -0.048  28.507  0.00  0.00    +0.292 HD
ENDBRANCH  57  59
BRANCH  56  61
ATOM     61  O   UNL     1       7.545   3.490  27.717  0.00  0.00    -0.501 OA
ATOM     62  H   UNL     1       8.031   2.909  27.098  0.00  0.00    +0.292 HD
ENDBRANCH  56  61
BRANCH  55  63
ATOM     63  O   UNL     1       5.036   4.558  27.879  0.00  0.00    -0.503 OA
ATOM     64  H   UNL     1       4.307   4.517  27.226  0.00  0.00    +0.292 HD
ENDBRANCH  55  63
ENDBRANCH  51  53
ENDBRANCH  50  51
ENDBRANCH   5  50
BRANCH   3  65
ATOM     65  C   UNL     1       0.997  -1.647  27.033  0.00  0.00    +0.190 C 
BRANCH  65  66
ATOM     66  O   UNL     1       1.829  -0.626  26.477  0.00  0.00    -0.392 OA
ATOM     67  H   UNL     1       2.328  -1.066  25.758  0.00  0.00    +0.210 HD
ENDBRANCH  65  66
ENDBRANCH   3  65
TORSDOF 22
ENDMDL
MODEL 5
REMARK VINA RESULT:      -6.8      2.026      7.200
REMARK  Name = 
REMARK  22 active torsions:
REMARK  status: ('A' for Active; 'I' for Inactive)
REMARK    1  A    between atoms: C_3  and  O_60
REMARK    2  A    between atoms: C_4  and  O_59
REMARK    3  A    between atoms: C_6  and  C_7
REMARK    4  A    between atoms: C_8  and  O_20
REMARK    5  A    between atoms: C_12  and  O_19
REMARK    6  A    between atoms: C_14  and  O_18
REMARK    7  A    between atoms: O_20  and  C_21
REMARK    8  A    between atoms: C_23  and  O_47
REMARK    9  A    between atoms: C_25  and  O_35
REMARK   10  A    between atoms: C_27  and  O_34
REMARK   11  A    between atoms: C_29  and  C_32
REMARK   12  A    between atoms: C_32  and  O_33
REMARK   13  A    between atoms: O_35  and  C_36
REMARK   14  A    between atoms: C_36  and  C_38
REMARK   15  A    between atoms: C_40  and  O_46
REMARK   16  A    between atoms: C_41  and  O_45
REMARK   17  A    between atoms: C_42  and  O_44
REMARK   18  A    between atoms: O_47  and  C_48
REMARK   19  A    between atoms: C_48  and  C_50
REMARK   20  A    between atoms: C_52  and  O_58
REMARK   21  A    between atoms: C_53  and  O_57
REMARK   22  A    between atoms: C_54  and  O_56
REMARK                            x       y       z     vdW  Elec       q    Type
REMARK                         _______ _______ _______ _____ _____    ______ ____
ROOT
ATOM      1  C   UNL     1       6.997  -1.387  24.485  0.00  0.00    +0.353 C 
ATOM      2  O   UNL     1       6.155  -1.763  23.370  0.00  0.00    -0.330 OA
ATOM      3  C   UNL     1       6.295  -2.997  22.620  0.00  0.00    +0.180 C 
ATOM      4  C   UNL     1       7.693  -3.668  22.672  0.00  0.00    +0.190 C 
ATOM      5  C   UNL     1       8.286  -3.531  24.079  0.00  0.00    +0.254 C 
ATOM      6  C   UNL     1       8.439  -1.964  24.415  0.00  0.00    +0.288 C 
ENDROOT
BRANCH   4   7
ATOM      7  O   UNL     1       7.630  -5.056  22.287  0.00  0.00    -0.385 OA
ATOM      8  H   UNL     1       7.874  -5.597  23.063  0.00  0.00    +0.210 HD
ENDBRANCH   4   7
BRANCH   1   9
ATOM      9  O   UNL     1       6.549  -1.922  25.780  0.00  0.00    -0.452 OA
BRANCH   9  20
ATOM     10  C   UNL     1       4.622  -1.504  27.189  0.00  0.00    +0.181 A 
ATOM     11  O   UNL     1       3.900  -0.606  27.973  0.00  0.00    -0.451 OA
ATOM     12  C   UNL     1       4.444   0.543  28.436  0.00  0.00    +0.147 A 
ATOM     13  C   UNL     1       5.751   0.891  28.177  0.00  0.00    +0.109 A 
ATOM     14  C   UNL     1       6.250   2.081  28.720  0.00  0.00    +0.135 A 
ATOM     15  C   UNL     1       5.437   2.905  29.502  0.00  0.00    +0.091 A 
ATOM     16  C   UNL     1       4.121   2.549  29.728  0.00  0.00    +0.124 A 
ATOM     17  C   UNL     1       6.546   0.017  27.306  0.00  0.00    +0.238 A 
ATOM     18  O   UNL     1       7.673   0.376  26.979  0.00  0.00    -0.283 OA
ATOM     19  C   UNL     1       3.602   1.372  29.180  0.00  0.00    +0.092 A 
ATOM     20  C   UNL     1       5.911  -1.246  26.808  0.00  0.00    +0.214 A 
BRANCH  10  22
ATOM     21  C   UNL     1       3.329  -3.027  25.603  0.00  0.00    +0.015 A 
ATOM     22  C   UNL     1       3.699  -2.689  26.942  0.00  0.00    +0.025 A 
ATOM     23  C   UNL     1       3.015  -3.377  27.943  0.00  0.00    +0.060 A 
ATOM     24  C   UNL     1       1.987  -4.280  27.634  0.00  0.00    +0.159 A 
ATOM     25  C   UNL     1       1.588  -4.511  26.324  0.00  0.00    +0.158 A 
ATOM     26  C   UNL     1       2.276  -3.906  25.291  0.00  0.00    +0.050 A 
BRANCH  25  27
ATOM     27  O   UNL     1       0.506  -5.318  26.109  0.00  0.00    -0.503 OA
ATOM     28  H   UNL     1       0.750  -6.232  26.338  0.00  0.00    +0.292 HD
ENDBRANCH  25  27
BRANCH  24  29
ATOM     29  O   UNL     1       1.334  -4.920  28.652  0.00  0.00    -0.503 OA
ATOM     30  H   UNL     1       0.724  -5.539  28.201  0.00  0.00    +0.292 HD
ENDBRANCH  24  29
ENDBRANCH  10  22
BRANCH  14  31
ATOM     31  O   UNL     1       7.529   2.517  28.508  0.00  0.00    -0.506 OA
ATOM     32  H   UNL     1       7.679   2.581  27.538  0.00  0.00    +0.292 HD
ENDBRANCH  14  31
BRANCH  16  33
ATOM     33  O   UNL     1       3.278   3.301  30.485  0.00  0.00    -0.507 OA
ATOM     34  H   UNL     1       2.511   2.756  30.733  0.00  0.00    +0.292 HD
ENDBRANCH  16  33
ENDBRANCH   9  20
ENDBRANCH   1   9
BRANCH   6  35
ATOM     35  O   UNL     1       9.670  -1.140  23.835  0.00  0.00    -0.448 OA
BRANCH  35  36
ATOM     36  C   UNL     1       9.744  -0.090  22.902  0.00  0.00    +0.340 C 
ATOM     37  O   UNL     1       9.857  -0.301  21.700  0.00  0.00    -0.245 OA
BRANCH  36  38
ATOM     38  C   UNL     1       9.684   1.436  23.428  0.00  0.00    +0.066 A 
ATOM     39  C   UNL     1       8.700   1.862  24.338  0.00  0.00    +0.064 A 
ATOM     40  C   UNL     1       8.634   3.205  24.788  0.00  0.00    +0.163 A 
ATOM     41  C   UNL     1       9.531   4.179  24.370  0.00  0.00    +0.201 A 
ATOM     42  C   UNL     1      10.504   3.825  23.451  0.00  0.00    +0.163 A 
ATOM     43  C   UNL     1      10.574   2.482  22.960  0.00  0.00    +0.064 A 
BRANCH  42  44
ATOM     44  O   UNL     1      11.345   4.847  23.078  0.00  0.00    -0.503 OA
ATOM     45  H   UNL     1      11.013   5.283  22.276  0.00  0.00    +0.292 HD
ENDBRANCH  42  44
BRANCH  41  46
ATOM     46  O   UNL     1       9.433   5.449  24.886  0.00  0.00    -0.501 OA
ATOM     47  H   UNL     1       9.380   5.349  25.860  0.00  0.00    +0.292 HD
ENDBRANCH  41  46
BRANCH  40  48
ATOM     48  O   UNL     1       7.652   3.577  25.670  0.00  0.00    -0.503 OA
ATOM     49  H   UNL     1       7.990   3.300  26.551  0.00  0.00    +0.292 HD
ENDBRANCH  40  48
ENDBRANCH  36  38
ENDBRANCH  35  36
ENDBRANCH   6  35
BRANCH   5  50
ATOM     50  O   UNL     1       7.229  -4.382  24.804  0.00  0.00    -0.451 OA
BRANCH  50  51
ATOM     51  C   UNL     1       7.220  -5.100  25.950  0.00  0.00    +0.340 C 
ATOM     52  O   UNL     1       8.031  -5.012  26.851  0.00  0.00    -0.245 OA
BRANCH  51  53
ATOM     53  C   UNL     1       5.956  -5.948  26.031  0.00  0.00    +0.066 A 
ATOM     54  C   UNL     1       5.314  -6.421  24.874  0.00  0.00    +0.064 A 
ATOM     55  C   UNL     1       4.111  -7.138  24.969  0.00  0.00    +0.163 A 
ATOM     56  C   UNL     1       3.522  -7.379  26.207  0.00  0.00    +0.201 A 
ATOM     57  C   UNL     1       4.147  -6.926  27.346  0.00  0.00    +0.163 A 
ATOM     58  C   UNL     1       5.372  -6.247  27.285  0.00  0.00    +0.064 A 
BRANCH  57  59
ATOM     59  O   UNL     1       3.501  -7.185  28.532  0.00  0.00    -0.503 OA
ATOM     60  H   UNL     1       3.887  -7.975  28.943  0.00  0.00    +0.292 HD
ENDBRANCH  57  59
BRANCH  56  61
ATOM     61  O   UNL     1       2.329  -8.047  26.242  0.00  0.00    -0.501 OA
ATOM     62  H   UNL     1       2.260  -8.379  27.160  0.00  0.00    +0.292 HD
ENDBRANCH  56  61
BRANCH  55  63
ATOM     63  O   UNL     1       3.511  -7.581  23.824  0.00  0.00    -0.503 OA
ATOM     64  H   UNL     1       3.341  -8.534  23.978  0.00  0.00    +0.292 HD
ENDBRANCH  55  63
ENDBRANCH  51  53
ENDBRANCH  50  51
ENDBRANCH   5  50
BRANCH   3  65
ATOM     65  C   UNL     1       5.069  -3.924  22.863  0.00  0.00    +0.190 C 
BRANCH  65  66
ATOM     66  O   UNL     1       4.973  -4.899  21.823  0.00  0.00    -0.392 OA
ATOM     67  H   UNL     1       5.718  -5.515  21.980  0.00  0.00    +0.210 HD
ENDBRANCH  65  66
ENDBRANCH   3  65
TORSDOF 22
ENDMDL
MODEL 6
REMARK VINA RESULT:      -6.7      1.781      4.555
REMARK  Name = 
REMARK  22 active torsions:
REMARK  status: ('A' for Active; 'I' for Inactive)
REMARK    1  A    between atoms: C_3  and  O_60
REMARK    2  A    between atoms: C_4  and  O_59
REMARK    3  A    between atoms: C_6  and  C_7
REMARK    4  A    between atoms: C_8  and  O_20
REMARK    5  A    between atoms: C_12  and  O_19
REMARK    6  A    between atoms: C_14  and  O_18
REMARK    7  A    between atoms: O_20  and  C_21
REMARK    8  A    between atoms: C_23  and  O_47
REMARK    9  A    between atoms: C_25  and  O_35
REMARK   10  A    between atoms: C_27  and  O_34
REMARK   11  A    between atoms: C_29  and  C_32
REMARK   12  A    between atoms: C_32  and  O_33
REMARK   13  A    between atoms: O_35  and  C_36
REMARK   14  A    between atoms: C_36  and  C_38
REMARK   15  A    between atoms: C_40  and  O_46
REMARK   16  A    between atoms: C_41  and  O_45
REMARK   17  A    between atoms: C_42  and  O_44
REMARK   18  A    between atoms: O_47  and  C_48
REMARK   19  A    between atoms: C_48  and  C_50
REMARK   20  A    between atoms: C_52  and  O_58
REMARK   21  A    between atoms: C_53  and  O_57
REMARK   22  A    between atoms: C_54  and  O_56
REMARK                            x       y       z     vdW  Elec       q    Type
REMARK                         _______ _______ _______ _____ _____    ______ ____
ROOT
ATOM      1  C   UNL     1       8.195  -0.961  24.483  0.00  0.00    +0.353 C 
ATOM      2  O   UNL     1       9.484  -0.334  24.681  0.00  0.00    -0.330 OA
ATOM      3  C   UNL     1      10.099   0.586  23.742  0.00  0.00    +0.180 C 
ATOM      4  C   UNL     1       9.614   0.479  22.272  0.00  0.00    +0.190 C 
ATOM      5  C   UNL     1       8.105   0.212  22.237  0.00  0.00    +0.254 C 
ATOM      6  C   UNL     1       7.819  -1.181  22.990  0.00  0.00    +0.288 C 
ENDROOT
BRANCH   4   7
ATOM      7  O   UNL     1       9.931   1.669  21.522  0.00  0.00    -0.385 OA
ATOM      8  H   UNL     1      10.197   2.364  22.155  0.00  0.00    +0.210 HD
ENDBRANCH   4   7
BRANCH   1   9
ATOM      9  O   UNL     1       7.058  -0.144  24.934  0.00  0.00    -0.452 OA
BRANCH   9  20
ATOM     10  C   UNL     1       5.962  -0.119  27.096  0.00  0.00    +0.181 A 
ATOM     11  O   UNL     1       5.126  -0.761  28.009  0.00  0.00    -0.451 OA
ATOM     12  C   UNL     1       4.306  -1.772  27.644  0.00  0.00    +0.147 A 
ATOM     13  C   UNL     1       4.231  -2.222  26.344  0.00  0.00    +0.109 A 
ATOM     14  C   UNL     1       3.333  -3.253  26.040  0.00  0.00    +0.135 A 
ATOM     15  C   UNL     1       2.533  -3.819  27.036  0.00  0.00    +0.091 A 
ATOM     16  C   UNL     1       2.644  -3.370  28.338  0.00  0.00    +0.124 A 
ATOM     17  C   UNL     1       5.130  -1.629  25.347  0.00  0.00    +0.238 A 
ATOM     18  O   UNL     1       5.150  -2.100  24.215  0.00  0.00    -0.283 OA
ATOM     19  C   UNL     1       3.547  -2.354  28.662  0.00  0.00    +0.092 A 
ATOM     20  C   UNL     1       6.029  -0.512  25.787  0.00  0.00    +0.214 A 
BRANCH  10  22
ATOM     21  C   UNL     1       7.181   0.733  29.168  0.00  0.00    +0.015 A 
ATOM     22  C   UNL     1       6.654   0.997  27.866  0.00  0.00    +0.025 A 
ATOM     23  C   UNL     1       6.654   2.338  27.482  0.00  0.00    +0.060 A 
ATOM     24  C   UNL     1       7.078   3.346  28.358  0.00  0.00    +0.159 A 
ATOM     25  C   UNL     1       7.493   3.061  29.653  0.00  0.00    +0.158 A 
ATOM     26  C   UNL     1       7.575   1.745  30.063  0.00  0.00    +0.050 A 
BRANCH  25  27
ATOM     27  O   UNL     1       7.783   4.106  30.485  0.00  0.00    -0.503 OA
ATOM     28  H   UNL     1       7.501   4.933  30.055  0.00  0.00    +0.292 HD
ENDBRANCH  25  27
BRANCH  24  29
ATOM     29  O   UNL     1       7.044   4.649  27.941  0.00  0.00    -0.503 OA
ATOM     30  H   UNL     1       6.161   4.971  28.215  0.00  0.00    +0.292 HD
ENDBRANCH  24  29
ENDBRANCH  10  22
BRANCH  14  31
ATOM     31  O   UNL     1       3.196  -3.774  24.784  0.00  0.00    -0.506 OA
ATOM     32  H   UNL     1       2.307  -4.190  24.715  0.00  0.00    +0.292 HD
ENDBRANCH  14  31
BRANCH  16  33
ATOM     33  O   UNL     1       1.892  -3.872  29.353  0.00  0.00    -0.507 OA
ATOM     34  H   UNL     1       2.416  -3.850  30.172  0.00  0.00    +0.292 HD
ENDBRANCH  16  33
ENDBRANCH   9  20
ENDBRANCH   1   9
BRANCH   6  35
ATOM     35  O   UNL     1       8.062  -2.560  22.235  0.00  0.00    -0.448 OA
BRANCH  35  36
ATOM     36  C   UNL     1       7.568  -3.858  22.461  0.00  0.00    +0.340 C 
ATOM     37  O   UNL     1       7.112  -4.542  21.552  0.00  0.00    -0.245 OA
BRANCH  36  38
ATOM     38  C   UNL     1       7.598  -4.462  23.958  0.00  0.00    +0.066 A 
ATOM     39  C   UNL     1       6.466  -5.071  24.529  0.00  0.00    +0.064 A 
ATOM     40  C   UNL     1       6.485  -5.586  25.850  0.00  0.00    +0.163 A 
ATOM     41  C   UNL     1       7.612  -5.531  26.658  0.00  0.00    +0.201 A 
ATOM     42  C   UNL     1       8.748  -4.917  26.161  0.00  0.00    +0.163 A 
ATOM     43  C   UNL     1       8.745  -4.363  24.840  0.00  0.00    +0.064 A 
BRANCH  42  44
ATOM     44  O   UNL     1       9.817  -4.892  27.026  0.00  0.00    -0.503 OA
ATOM     45  H   UNL     1       9.763  -4.115  27.607  0.00  0.00    +0.292 HD
ENDBRANCH  42  44
BRANCH  41  46
ATOM     46  O   UNL     1       7.568  -6.095  27.911  0.00  0.00    -0.501 OA
ATOM     47  H   UNL     1       8.434  -6.533  28.049  0.00  0.00    +0.292 HD
ENDBRANCH  41  46
BRANCH  40  48
ATOM     48  O   UNL     1       5.355  -6.166  26.368  0.00  0.00    -0.503 OA
ATOM     49  H   UNL     1       5.401  -7.104  26.081  0.00  0.00    +0.292 HD
ENDBRANCH  40  48
ENDBRANCH  36  38
ENDBRANCH  35  36
ENDBRANCH   6  35
BRANCH   5  50
ATOM     50  O   UNL     1       7.672   1.543  22.875  0.00  0.00    -0.451 OA
BRANCH  50  51
ATOM     51  C   UNL     1       7.079   2.665  22.406  0.00  0.00    +0.340 C 
ATOM     52  O   UNL     1       7.183   3.106  21.279  0.00  0.00    -0.245 OA
BRANCH  51  53
ATOM     53  C   UNL     1       6.129   3.236  23.453  0.00  0.00    +0.066 A 
ATOM     54  C   UNL     1       4.896   2.625  23.735  0.00  0.00    +0.064 A 
ATOM     55  C   UNL     1       4.004   3.208  24.649  0.00  0.00    +0.163 A 
ATOM     56  C   UNL     1       4.316   4.409  25.280  0.00  0.00    +0.201 A 
ATOM     57  C   UNL     1       5.525   5.011  25.016  0.00  0.00    +0.163 A 
ATOM     58  C   UNL     1       6.454   4.428  24.142  0.00  0.00    +0.064 A 
BRANCH  57  59
ATOM     59  O   UNL     1       5.759   6.203  25.660  0.00  0.00    -0.503 OA
ATOM     60  H   UNL     1       6.121   6.025  26.544  0.00  0.00    +0.292 HD
ENDBRANCH  57  59
BRANCH  56  61
ATOM     61  O   UNL     1       3.396   4.956  26.131  0.00  0.00    -0.501 OA
ATOM     62  H   UNL     1       3.207   5.840  25.756  0.00  0.00    +0.292 HD
ENDBRANCH  56  61
BRANCH  55  63
ATOM     63  O   UNL     1       2.811   2.590  24.899  0.00  0.00    -0.503 OA
ATOM     64  H   UNL     1       2.885   1.712  24.472  0.00  0.00    +0.292 HD
ENDBRANCH  55  63
ENDBRANCH  51  53
ENDBRANCH  50  51
ENDBRANCH   5  50
BRANCH   3  65
ATOM     65  C   UNL     1      10.172   2.016  24.349  0.00  0.00    +0.190 C 
BRANCH  65  66
ATOM     66  O   UNL     1       9.071   2.234  25.235  0.00  0.00    -0.392 OA
ATOM     67  H   UNL     1       8.296   1.849  24.778  0.00  0.00    +0.210 HD
ENDBRANCH  65  66
ENDBRANCH   3  65
TORSDOF 22
ENDMDL
MODEL 7
REMARK VINA RESULT:      -6.7      2.411      8.798
REMARK  Name = 
REMARK  22 active torsions:
REMARK  status: ('A' for Active; 'I' for Inactive)
REMARK    1  A    between atoms: C_3  and  O_60
REMARK    2  A    between atoms: C_4  and  O_59
REMARK    3  A    between atoms: C_6  and  C_7
REMARK    4  A    between atoms: C_8  and  O_20
REMARK    5  A    between atoms: C_12  and  O_19
REMARK    6  A    between atoms: C_14  and  O_18
REMARK    7  A    between atoms: O_20  and  C_21
REMARK    8  A    between atoms: C_23  and  O_47
REMARK    9  A    between atoms: C_25  and  O_35
REMARK   10  A    between atoms: C_27  and  O_34
REMARK   11  A    between atoms: C_29  and  C_32
REMARK   12  A    between atoms: C_32  and  O_33
REMARK   13  A    between atoms: O_35  and  C_36
REMARK   14  A    between atoms: C_36  and  C_38
REMARK   15  A    between atoms: C_40  and  O_46
REMARK   16  A    between atoms: C_41  and  O_45
REMARK   17  A    between atoms: C_42  and  O_44
REMARK   18  A    between atoms: O_47  and  C_48
REMARK   19  A    between atoms: C_48  and  C_50
REMARK   20  A    between atoms: C_52  and  O_58
REMARK   21  A    between atoms: C_53  and  O_57
REMARK   22  A    between atoms: C_54  and  O_56
REMARK                            x       y       z     vdW  Elec       q    Type
REMARK                         _______ _______ _______ _____ _____    ______ ____
ROOT
ATOM      1  C   UNL     1       5.546   0.505  26.988  0.00  0.00    +0.353 C 
ATOM      2  O   UNL     1       4.654   0.153  28.072  0.00  0.00    -0.330 OA
ATOM      3  C   UNL     1       3.525   0.959  28.495  0.00  0.00    +0.180 C 
ATOM      4  C   UNL     1       3.594   2.467  28.134  0.00  0.00    +0.190 C 
ATOM      5  C   UNL     1       4.208   2.643  26.740  0.00  0.00    +0.254 C 
ATOM      6  C   UNL     1       5.698   2.035  26.761  0.00  0.00    +0.288 C 
ENDROOT
BRANCH   4   7
ATOM      7  O   UNL     1       2.293   3.086  28.192  0.00  0.00    -0.385 OA
ATOM      8  H   UNL     1       1.621   2.377  28.212  0.00  0.00    +0.210 HD
ENDBRANCH   4   7
BRANCH   1   9
ATOM      9  O   UNL     1       5.074   0.077  25.662  0.00  0.00    -0.452 OA
BRANCH   9  20
ATOM     10  C   UNL     1       6.389  -0.933  23.894  0.00  0.00    +0.181 A 
ATOM     11  O   UNL     1       6.532  -1.959  22.962  0.00  0.00    -0.451 OA
ATOM     12  C   UNL     1       5.825  -3.109  23.045  0.00  0.00    +0.147 A 
ATOM     13  C   UNL     1       4.931  -3.347  24.065  0.00  0.00    +0.109 A 
ATOM     14  C   UNL     1       4.262  -4.577  24.099  0.00  0.00    +0.135 A 
ATOM     15  C   UNL     1       4.489  -5.541  23.114  0.00  0.00    +0.091 A 
ATOM     16  C   UNL     1       5.371  -5.270  22.085  0.00  0.00    +0.124 A 
ATOM     17  C   UNL     1       4.690  -2.282  25.045  0.00  0.00    +0.238 A 
ATOM     18  O   UNL     1       3.815  -2.443  25.890  0.00  0.00    -0.283 OA
ATOM     19  C   UNL     1       6.035  -4.041  22.026  0.00  0.00    +0.092 A 
ATOM     20  C   UNL     1       5.489  -1.018  24.921  0.00  0.00    +0.214 A 
BRANCH  10  22
ATOM     21  C   UNL     1       7.128   0.988  22.388  0.00  0.00    +0.015 A 
ATOM     22  C   UNL     1       7.399   0.139  23.505  0.00  0.00    +0.025 A 
ATOM     23  C   UNL     1       8.682   0.244  24.039  0.00  0.00    +0.060 A 
ATOM     24  C   UNL     1       9.646   1.079  23.458  0.00  0.00    +0.159 A 
ATOM     25  C   UNL     1       9.378   1.818  22.313  0.00  0.00    +0.158 A 
ATOM     26  C   UNL     1       8.104   1.801  21.781  0.00  0.00    +0.050 A 
BRANCH  25  27
ATOM     27  O   UNL     1      10.401   2.520  21.740  0.00  0.00    -0.503 OA
ATOM     28  H   UNL     1      10.027   3.125  21.075  0.00  0.00    +0.292 HD
ENDBRANCH  25  27
BRANCH  24  29
ATOM     29  O   UNL     1      10.898   1.136  24.010  0.00  0.00    -0.503 OA
ATOM     30  H   UNL     1      10.907   0.414  24.672  0.00  0.00    +0.292 HD
ENDBRANCH  24  29
ENDBRANCH  10  22
BRANCH  14  31
ATOM     31  O   UNL     1       3.349  -4.901  25.064  0.00  0.00    -0.506 OA
ATOM     32  H   UNL     1       3.680  -5.687  25.554  0.00  0.00    +0.292 HD
ENDBRANCH  14  31
BRANCH  16  33
ATOM     33  O   UNL     1       5.643  -6.165  21.098  0.00  0.00    -0.507 OA
ATOM     34  H   UNL     1       5.915  -7.006  21.505  0.00  0.00    +0.292 HD
ENDBRANCH  16  33
ENDBRANCH   9  20
ENDBRANCH   1   9
BRANCH   6  35
ATOM     35  O   UNL     1       6.896   2.883  27.377  0.00  0.00    -0.448 OA
BRANCH  35  36
ATOM     36  C   UNL     1       7.264   4.233  27.235  0.00  0.00    +0.340 C 
ATOM     37  O   UNL     1       7.409   4.969  28.205  0.00  0.00    -0.245 OA
BRANCH  36  38
ATOM     38  C   UNL     1       7.498   4.834  25.754  0.00  0.00    +0.066 A 
ATOM     39  C   UNL     1       8.714   4.655  25.071  0.00  0.00    +0.064 A 
ATOM     40  C   UNL     1       8.929   5.196  23.778  0.00  0.00    +0.163 A 
ATOM     41  C   UNL     1       7.959   5.925  23.103  0.00  0.00    +0.201 A 
ATOM     42  C   UNL     1       6.753   6.160  23.737  0.00  0.00    +0.163 A 
ATOM     43  C   UNL     1       6.522   5.648  25.054  0.00  0.00    +0.064 A 
BRANCH  42  44
ATOM     44  O   UNL     1       5.851   6.900  23.008  0.00  0.00    -0.503 OA
ATOM     45  H   UNL     1       5.395   7.537  23.582  0.00  0.00    +0.292 HD
ENDBRANCH  42  44
BRANCH  41  46
ATOM     46  O   UNL     1       8.224   6.378  21.832  0.00  0.00    -0.501 OA
ATOM     47  H   UNL     1       9.176   6.613  21.814  0.00  0.00    +0.292 HD
ENDBRANCH  41  46
BRANCH  40  48
ATOM     48  O   UNL     1      10.134   5.002  23.153  0.00  0.00    -0.503 OA
ATOM     49  H   UNL     1      10.013   5.379  22.253  0.00  0.00    +0.292 HD
ENDBRANCH  40  48
ENDBRANCH  36  38
ENDBRANCH  35  36
ENDBRANCH   6  35
BRANCH   5  50
ATOM     50  O   UNL     1       3.089   1.931  25.960  0.00  0.00    -0.451 OA
BRANCH  50  51
ATOM     51  C   UNL     1       1.979   2.349  25.310  0.00  0.00    +0.340 C 
ATOM     52  O   UNL     1       0.833   2.100  25.626  0.00  0.00    -0.245 OA
BRANCH  51  53
ATOM     53  C   UNL     1       2.356   3.314  24.191  0.00  0.00    +0.066 A 
ATOM     54  C   UNL     1       3.557   3.175  23.476  0.00  0.00    +0.064 A 
ATOM     55  C   UNL     1       3.919   4.116  22.500  0.00  0.00    +0.163 A 
ATOM     56  C   UNL     1       3.104   5.213  22.232  0.00  0.00    +0.201 A 
ATOM     57  C   UNL     1       1.921   5.353  22.922  0.00  0.00    +0.163 A 
ATOM     58  C   UNL     1       1.513   4.404  23.870  0.00  0.00    +0.064 A 
BRANCH  57  59
ATOM     59  O   UNL     1       1.175   6.467  22.620  0.00  0.00    -0.503 OA
ATOM     60  H   UNL     1       0.484   6.228  21.982  0.00  0.00    +0.292 HD
ENDBRANCH  57  59
BRANCH  56  61
ATOM     61  O   UNL     1       3.521   6.123  21.300  0.00  0.00    -0.501 OA
ATOM     62  H   UNL     1       2.721   6.647  21.092  0.00  0.00    +0.292 HD
ENDBRANCH  56  61
BRANCH  55  63
ATOM     63  O   UNL     1       5.096   3.954  21.825  0.00  0.00    -0.503 OA
ATOM     64  H   UNL     1       5.123   4.690  21.179  0.00  0.00    +0.292 HD
ENDBRANCH  55  63
ENDBRANCH  51  53
ENDBRANCH  50  51
ENDBRANCH   5  50
BRANCH   3  65
ATOM     65  C   UNL     1       2.187   0.229  28.182  0.00  0.00    +0.190 C 
BRANCH  65  66
ATOM     66  O   UNL     1       2.281  -0.462  26.934  0.00  0.00    -0.392 OA
ATOM     67  H   UNL     1       1.367  -0.746  26.730  0.00  0.00    +0.210 HD
ENDBRANCH  65  66
ENDBRANCH   3  65
TORSDOF 22
ENDMDL
MODEL 8
REMARK VINA RESULT:      -6.7      1.848      8.255
REMARK  Name = 
REMARK  22 active torsions:
REMARK  status: ('A' for Active; 'I' for Inactive)
REMARK    1  A    between atoms: C_3  and  O_60
REMARK    2  A    between atoms: C_4  and  O_59
REMARK    3  A    between atoms: C_6  and  C_7
REMARK    4  A    between atoms: C_8  and  O_20
REMARK    5  A    between atoms: C_12  and  O_19
REMARK    6  A    between atoms: C_14  and  O_18
REMARK    7  A    between atoms: O_20  and  C_21
REMARK    8  A    between atoms: C_23  and  O_47
REMARK    9  A    between atoms: C_25  and  O_35
REMARK   10  A    between atoms: C_27  and  O_34
REMARK   11  A    between atoms: C_29  and  C_32
REMARK   12  A    between atoms: C_32  and  O_33
REMARK   13  A    between atoms: O_35  and  C_36
REMARK   14  A    between atoms: C_36  and  C_38
REMARK   15  A    between atoms: C_40  and  O_46
REMARK   16  A    between atoms: C_41  and  O_45
REMARK   17  A    between atoms: C_42  and  O_44
REMARK   18  A    between atoms: O_47  and  C_48
REMARK   19  A    between atoms: C_48  and  C_50
REMARK   20  A    between atoms: C_52  and  O_58
REMARK   21  A    between atoms: C_53  and  O_57
REMARK   22  A    between atoms: C_54  and  O_56
REMARK                            x       y       z     vdW  Elec       q    Type
REMARK                         _______ _______ _______ _____ _____    ______ ____
ROOT
ATOM      1  C   UNL     1       6.260   0.864  24.784  0.00  0.00    +0.353 C 
ATOM      2  O   UNL     1       6.476   1.413  23.463  0.00  0.00    -0.330 OA
ATOM      3  C   UNL     1       7.780   1.571  22.847  0.00  0.00    +0.180 C 
ATOM      4  C   UNL     1       8.986   1.648  23.821  0.00  0.00    +0.190 C 
ATOM      5  C   UNL     1       8.779   0.674  24.986  0.00  0.00    +0.254 C 
ATOM      6  C   UNL     1       7.439   1.097  25.771  0.00  0.00    +0.288 C 
ENDROOT
BRANCH   4   7
ATOM      7  O   UNL     1      10.230   1.369  23.147  0.00  0.00    -0.385 OA
ATOM      8  H   UNL     1      10.788   0.840  23.750  0.00  0.00    +0.210 HD
ENDBRANCH   4   7
BRANCH   1   9
ATOM      9  O   UNL     1       6.165  -0.604  24.813  0.00  0.00    -0.452 OA
BRANCH   9  20
ATOM     10  C   UNL     1       4.388  -1.278  26.317  0.00  0.00    +0.181 A 
ATOM     11  O   UNL     1       3.518  -2.277  26.751  0.00  0.00    -0.451 OA
ATOM     12  C   UNL     1       3.257  -3.376  26.007  0.00  0.00    +0.147 A 
ATOM     13  C   UNL     1       3.823  -3.572  24.767  0.00  0.00    +0.109 A 
ATOM     14  C   UNL     1       3.477  -4.721  24.045  0.00  0.00    +0.135 A 
ATOM     15  C   UNL     1       2.583  -5.655  24.574  0.00  0.00    +0.091 A 
ATOM     16  C   UNL     1       2.048  -5.451  25.831  0.00  0.00    +0.124 A 
ATOM     17  C   UNL     1       4.795  -2.587  24.279  0.00  0.00    +0.238 A 
ATOM     18  O   UNL     1       5.387  -2.811  23.229  0.00  0.00    -0.283 OA
ATOM     19  C   UNL     1       2.395  -4.318  26.573  0.00  0.00    +0.092 A 
ATOM     20  C   UNL     1       5.063  -1.382  25.131  0.00  0.00    +0.214 A 
BRANCH  10  22
ATOM     21  C   UNL     1       3.504   0.946  27.199  0.00  0.00    +0.015 A 
ATOM     22  C   UNL     1       4.352  -0.191  27.382  0.00  0.00    +0.025 A 
ATOM     23  C   UNL     1       5.234  -0.111  28.458  0.00  0.00    +0.060 A 
ATOM     24  C   UNL     1       5.317   1.045  29.248  0.00  0.00    +0.159 A 
ATOM     25  C   UNL     1       4.546   2.168  28.980  0.00  0.00    +0.158 A 
ATOM     26  C   UNL     1       3.610   2.120  27.967  0.00  0.00    +0.050 A 
BRANCH  25  27
ATOM     27  O   UNL     1       4.764   3.295  29.723  0.00  0.00    -0.503 OA
ATOM     28  H   UNL     1       5.612   3.199  30.191  0.00  0.00    +0.292 HD
ENDBRANCH  25  27
BRANCH  24  29
ATOM     29  O   UNL     1       6.210   1.080  30.284  0.00  0.00    -0.503 OA
ATOM     30  H   UNL     1       5.979   0.303  30.834  0.00  0.00    +0.292 HD
ENDBRANCH  24  29
ENDBRANCH  10  22
BRANCH  14  31
ATOM     31  O   UNL     1       3.995  -5.009  22.812  0.00  0.00    -0.506 OA
ATOM     32  H   UNL     1       4.297  -5.945  22.813  0.00  0.00    +0.292 HD
ENDBRANCH  14  31
BRANCH  16  33
ATOM     33  O   UNL     1       1.168  -6.315  26.402  0.00  0.00    -0.507 OA
ATOM     34  H   UNL     1       1.313  -6.320  27.364  0.00  0.00    +0.292 HD
ENDBRANCH  16  33
ENDBRANCH   9  20
ENDBRANCH   1   9
BRANCH   6  35
ATOM     35  O   UNL     1       7.469   2.304  26.807  0.00  0.00    -0.448 OA
BRANCH  35  36
ATOM     36  C   UNL     1       7.130   3.663  26.680  0.00  0.00    +0.340 C 
ATOM     37  O   UNL     1       6.774   4.332  27.644  0.00  0.00    -0.245 OA
BRANCH  36  38
ATOM     38  C   UNL     1       7.205   4.361  25.226  0.00  0.00    +0.066 A 
ATOM     39  C   UNL     1       8.406   4.895  24.727  0.00  0.00    +0.064 A 
ATOM     40  C   UNL     1       8.471   5.524  23.458  0.00  0.00    +0.163 A 
ATOM     41  C   UNL     1       7.365   5.647  22.627  0.00  0.00    +0.201 A 
ATOM     42  C   UNL     1       6.148   5.166  23.077  0.00  0.00    +0.163 A 
ATOM     43  C   UNL     1       6.051   4.552  24.367  0.00  0.00    +0.064 A 
BRANCH  42  44
ATOM     44  O   UNL     1       5.100   5.337  22.203  0.00  0.00    -0.503 OA
ATOM     45  H   UNL     1       4.683   6.204  22.341  0.00  0.00    +0.292 HD
ENDBRANCH  42  44
BRANCH  41  46
ATOM     46  O   UNL     1       7.516   6.227  21.390  0.00  0.00    -0.501 OA
ATOM     47  H   UNL     1       6.630   6.218  20.970  0.00  0.00    +0.292 HD
ENDBRANCH  41  46
BRANCH  40  48
ATOM     48  O   UNL     1       9.663   6.037  23.015  0.00  0.00    -0.503 OA
ATOM     49  H   UNL     1      10.026   6.528  23.785  0.00  0.00    +0.292 HD
ENDBRANCH  40  48
ENDBRANCH  36  38
ENDBRANCH  35  36
ENDBRANCH   6  35
BRANCH   5  50
ATOM     50  O   UNL     1       8.816  -0.617  24.150  0.00  0.00    -0.451 OA
BRANCH  50  51
ATOM     51  C   UNL     1       9.668  -1.664  24.069  0.00  0.00    +0.340 C 
ATOM     52  O   UNL     1      10.730  -1.672  23.479  0.00  0.00    -0.245 OA
BRANCH  51  53
ATOM     53  C   UNL     1       9.184  -2.809  24.951  0.00  0.00    +0.066 A 
ATOM     54  C   UNL     1       9.741  -4.095  24.856  0.00  0.00    +0.064 A 
ATOM     55  C   UNL     1       9.231  -5.152  25.625  0.00  0.00    +0.163 A 
ATOM     56  C   UNL     1       8.154  -4.952  26.484  0.00  0.00    +0.201 A 
ATOM     57  C   UNL     1       7.606  -3.694  26.590  0.00  0.00    +0.163 A 
ATOM     58  C   UNL     1       8.125  -2.610  25.867  0.00  0.00    +0.064 A 
BRANCH  57  59
ATOM     59  O   UNL     1       6.535  -3.572  27.443  0.00  0.00    -0.503 OA
ATOM     60  H   UNL     1       5.984  -4.369  27.384  0.00  0.00    +0.292 HD
ENDBRANCH  57  59
BRANCH  56  61
ATOM     61  O   UNL     1       7.668  -6.023  27.182  0.00  0.00    -0.501 OA
ATOM     62  H   UNL     1       7.820  -5.796  28.121  0.00  0.00    +0.292 HD
ENDBRANCH  56  61
BRANCH  55  63
ATOM     63  O   UNL     1       9.794  -6.392  25.506  0.00  0.00    -0.503 OA
ATOM     64  H   UNL     1       9.697  -6.626  24.560  0.00  0.00    +0.292 HD
ENDBRANCH  55  63
ENDBRANCH  51  53
ENDBRANCH  50  51
ENDBRANCH   5  50
BRANCH   3  65
ATOM     65  C   UNL     1       7.927   0.611  21.631  0.00  0.00    +0.190 C 
BRANCH  65  66
ATOM     66  O   UNL     1       8.963   1.071  20.761  0.00  0.00    -0.392 OA
ATOM     67  H   UNL     1       9.771   1.092  21.314  0.00  0.00    +0.210 HD
ENDBRANCH  65  66
ENDBRANCH   3  65
TORSDOF 22
ENDMDL
MODEL 9
REMARK VINA RESULT:      -6.7      2.696      6.654
REMARK  Name = 
REMARK  22 active torsions:
REMARK  status: ('A' for Active; 'I' for Inactive)
REMARK    1  A    between atoms: C_3  and  O_60
REMARK    2  A    between atoms: C_4  and  O_59
REMARK    3  A    between atoms: C_6  and  C_7
REMARK    4  A    between atoms: C_8  and  O_20
REMARK    5  A    between atoms: C_12  and  O_19
REMARK    6  A    between atoms: C_14  and  O_18
REMARK    7  A    between atoms: O_20  and  C_21
REMARK    8  A    between atoms: C_23  and  O_47
REMARK    9  A    between atoms: C_25  and  O_35
REMARK   10  A    between atoms: C_27  and  O_34
REMARK   11  A    between atoms: C_29  and  C_32
REMARK   12  A    between atoms: C_32  and  O_33
REMARK   13  A    between atoms: O_35  and  C_36
REMARK   14  A    between atoms: C_36  and  C_38
REMARK   15  A    between atoms: C_40  and  O_46
REMARK   16  A    between atoms: C_41  and  O_45
REMARK   17  A    between atoms: C_42  and  O_44
REMARK   18  A    between atoms: O_47  and  C_48
REMARK   19  A    between atoms: C_48  and  C_50
REMARK   20  A    between atoms: C_52  and  O_58
REMARK   21  A    between atoms: C_53  and  O_57
REMARK   22  A    between atoms: C_54  and  O_56
REMARK                            x       y       z     vdW  Elec       q    Type
REMARK                         _______ _______ _______ _____ _____    ______ ____
ROOT
ATOM      1  C   UNL     1       5.103   1.809  26.749  0.00  0.00    +0.353 C 
ATOM      2  O   UNL     1       4.388   2.217  27.939  0.00  0.00    -0.330 OA
ATOM      3  C   UNL     1       4.991   2.934  29.048  0.00  0.00    +0.180 C 
ATOM      4  C   UNL     1       6.528   2.789  29.194  0.00  0.00    +0.190 C 
ATOM      5  C   UNL     1       7.187   2.785  27.810  0.00  0.00    +0.254 C 
ATOM      6  C   UNL     1       6.615   1.532  26.979  0.00  0.00    +0.288 C 
ENDROOT
BRANCH   4   7
ATOM      7  O   UNL     1       7.084   3.838  30.013  0.00  0.00    -0.385 OA
ATOM      8  H   UNL     1       7.953   4.085  29.639  0.00  0.00    +0.210 HD
ENDBRANCH   4   7
BRANCH   1   9
ATOM      9  O   UNL     1       5.170   2.846  25.707  0.00  0.00    -0.452 OA
BRANCH   9  20
ATOM     10  C   UNL     1       5.021   2.669  23.294  0.00  0.00    +0.181 A 
ATOM     11  O   UNL     1       4.392   3.062  22.114  0.00  0.00    -0.451 OA
ATOM     12  C   UNL     1       3.178   3.657  22.110  0.00  0.00    +0.147 A 
ATOM     13  C   UNL     1       2.476   3.898  23.270  0.00  0.00    +0.109 A 
ATOM     14  C   UNL     1       1.210   4.488  23.180  0.00  0.00    +0.135 A 
ATOM     15  C   UNL     1       0.670   4.834  21.939  0.00  0.00    +0.091 A 
ATOM     16  C   UNL     1       1.402   4.607  20.790  0.00  0.00    +0.124 A 
ATOM     17  C   UNL     1       3.110   3.563  24.551  0.00  0.00    +0.238 A 
ATOM     18  O   UNL     1       2.542   3.878  25.592  0.00  0.00    -0.283 OA
ATOM     19  C   UNL     1       2.675   4.034  20.863  0.00  0.00    +0.092 A 
ATOM     20  C   UNL     1       4.459   2.908  24.519  0.00  0.00    +0.214 A 
BRANCH  10  22
ATOM     21  C   UNL     1       6.465   0.575  23.108  0.00  0.00    +0.015 A 
ATOM     22  C   UNL     1       6.312   1.977  22.878  0.00  0.00    +0.025 A 
ATOM     23  C   UNL     1       7.461   2.642  22.453  0.00  0.00    +0.060 A 
ATOM     24  C   UNL     1       8.688   1.974  22.337  0.00  0.00    +0.159 A 
ATOM     25  C   UNL     1       8.821   0.630  22.663  0.00  0.00    +0.158 A 
ATOM     26  C   UNL     1       7.702  -0.091  23.027  0.00  0.00    +0.050 A 
BRANCH  25  27
ATOM     27  O   UNL     1      10.071   0.077  22.633  0.00  0.00    -0.503 OA
ATOM     28  H   UNL     1      10.585   0.511  21.930  0.00  0.00    +0.292 HD
ENDBRANCH  25  27
BRANCH  24  29
ATOM     29  O   UNL     1       9.792   2.673  21.931  0.00  0.00    -0.503 OA
ATOM     30  H   UNL     1      10.419   2.598  22.680  0.00  0.00    +0.292 HD
ENDBRANCH  24  29
ENDBRANCH  10  22
BRANCH  14  31
ATOM     31  O   UNL     1       0.444   4.778  24.275  0.00  0.00    -0.506 OA
ATOM     32  H   UNL     1      -0.365   5.250  23.974  0.00  0.00    +0.292 HD
ENDBRANCH  14  31
BRANCH  16  33
ATOM     33  O   UNL     1       0.934   4.913  19.550  0.00  0.00    -0.507 OA
ATOM     34  H   UNL     1       1.055   5.866  19.397  0.00  0.00    +0.292 HD
ENDBRANCH  16  33
ENDBRANCH   9  20
ENDBRANCH   1   9
BRANCH   6  35
ATOM     35  O   UNL     1       7.194   0.072  27.238  0.00  0.00    -0.448 OA
BRANCH  35  36
ATOM     36  C   UNL     1       6.648  -1.208  27.032  0.00  0.00    +0.340 C 
ATOM     37  O   UNL     1       5.491  -1.473  27.338  0.00  0.00    -0.245 OA
BRANCH  36  38
ATOM     38  C   UNL     1       7.570  -2.360  26.377  0.00  0.00    +0.066 A 
ATOM     39  C   UNL     1       7.501  -3.695  26.813  0.00  0.00    +0.064 A 
ATOM     40  C   UNL     1       8.322  -4.706  26.251  0.00  0.00    +0.163 A 
ATOM     41  C   UNL     1       9.236  -4.449  25.238  0.00  0.00    +0.201 A 
ATOM     42  C   UNL     1       9.370  -3.147  24.788  0.00  0.00    +0.163 A 
ATOM     43  C   UNL     1       8.572  -2.104  25.359  0.00  0.00    +0.064 A 
BRANCH  42  44
ATOM     44  O   UNL     1      10.304  -2.974  23.793  0.00  0.00    -0.503 OA
ATOM     45  H   UNL     1      10.228  -2.083  23.411  0.00  0.00    +0.292 HD
ENDBRANCH  42  44
BRANCH  41  46
ATOM     46  O   UNL     1       9.964  -5.489  24.711  0.00  0.00    -0.501 OA
ATOM     47  H   UNL     1      10.453  -5.124  23.944  0.00  0.00    +0.292 HD
ENDBRANCH  41  46
BRANCH  40  48
ATOM     48  O   UNL     1       8.225  -5.993  26.713  0.00  0.00    -0.503 OA
ATOM     49  H   UNL     1       7.714  -6.469  26.021  0.00  0.00    +0.292 HD
ENDBRANCH  40  48
ENDBRANCH  36  38
ENDBRANCH  35  36
ENDBRANCH   6  35
BRANCH   5  50
ATOM     50  O   UNL     1       6.794   4.221  27.420  0.00  0.00    -0.451 OA
BRANCH  50  51
ATOM     51  C   UNL     1       7.490   5.345  27.136  0.00  0.00    +0.340 C 
ATOM     52  O   UNL     1       8.077   6.041  27.941  0.00  0.00    -0.245 OA
BRANCH  51  53
ATOM     53  C   UNL     1       7.567   5.551  25.627  0.00  0.00    +0.066 A 
ATOM     54  C   UNL     1       8.794   5.517  24.945  0.00  0.00    +0.064 A 
ATOM     55  C   UNL     1       8.851   5.782  23.567  0.00  0.00    +0.163 A 
ATOM     56  C   UNL     1       7.697   6.098  22.855  0.00  0.00    +0.201 A 
ATOM     57  C   UNL     1       6.489   6.126  23.514  0.00  0.00    +0.163 A 
ATOM     58  C   UNL     1       6.397   5.822  24.880  0.00  0.00    +0.064 A 
BRANCH  57  59
ATOM     59  O   UNL     1       5.395   6.462  22.753  0.00  0.00    -0.503 OA
ATOM     60  H   UNL     1       5.690   6.917  21.948  0.00  0.00    +0.292 HD
ENDBRANCH  57  59
BRANCH  56  61
ATOM     61  O   UNL     1       7.812   6.387  21.523  0.00  0.00    -0.501 OA
ATOM     62  H   UNL     1       8.341   7.209  21.494  0.00  0.00    +0.292 HD
ENDBRANCH  56  61
BRANCH  55  63
ATOM     63  O   UNL     1      10.061   5.744  22.933  0.00  0.00    -0.503 OA
ATOM     64  H   UNL     1      10.579   6.475  23.330  0.00  0.00    +0.292 HD
ENDBRANCH  55  63
ENDBRANCH  51  53
ENDBRANCH  50  51
ENDBRANCH   5  50
BRANCH   3  65
ATOM     65  C   UNL     1       4.415   4.376  29.141  0.00  0.00    +0.190 C 
BRANCH  65  66
ATOM     66  O   UNL     1       4.033   4.840  27.844  0.00  0.00    -0.392 OA
ATOM     67  H   UNL     1       4.875   4.981  27.365  0.00  0.00    +0.210 HD
ENDBRANCH  65  66
ENDBRANCH   3  65
TORSDOF 22
ENDMDL
