MODEL 1
REMARK VINA RESULT:      -6.8      0.000      0.000
REMARK  Name = 
REMARK  29 active torsions:
REMARK  status: ('A' for Active; 'I' for Inactive)
REMARK    1  A    between atoms: C_3  and  O_67
REMARK    2  A    between atoms: C_4  and  O_66
REMARK    3  A    between atoms: C_6  and  C_7
REMARK    4  A    between atoms: C_8  and  C_9
REMARK    5  A    between atoms: C_9  and  O_11
REMARK    6  A    between atoms: O_11  and  C_12
REMARK    7  A    between atoms: C_12  and  C_13
REMARK    8  A    between atoms: C_14  and  O_65
REMARK    9  A    between atoms: C_15  and  O_64
REMARK   10  A    between atoms: C_16  and  O_63
REMARK   11  A    between atoms: C_17  and  O_19
REMARK   12  A    between atoms: O_19  and  C_20
REMARK   13  A    between atoms: C_21  and  O_62
REMARK   14  A    between atoms: C_22  and  O_61
REMARK   15  A    between atoms: C_23  and  C_59
REMARK   16  A    between atoms: C_25  and  O_26
REMARK   17  A    between atoms: O_26  and  C_27
REMARK   18  A    between atoms: C_28  and  O_58
REMARK   19  A    between atoms: C_29  and  O_57
REMARK   20  A    between atoms: C_30  and  C_55
REMARK   21  A    between atoms: C_32  and  O_33
REMARK   22  A    between atoms: O_33  and  C_34
REMARK   23  A    between atoms: C_35  and  C_47
REMARK   24  A    between atoms: C_39  and  O_46
REMARK   25  A    between atoms: C_41  and  O_45
REMARK   26  A    between atoms: C_49  and  O_54
REMARK   27  A    between atoms: C_50  and  O_53
REMARK   28  A    between atoms: C_55  and  O_56
REMARK   29  A    between atoms: C_59  and  O_60
REMARK                            x       y       z     vdW  Elec       q    Type
REMARK                         _______ _______ _______ _____ _____    ______ ____
ROOT
ATOM      1  C   UNL     1       4.821   2.968  23.433  0.00  0.00    +0.208 C 
ATOM      2  C   UNL     1       5.896   3.124  24.549  0.00  0.00    +0.283 C 
ATOM      3  O   UNL     1       5.962   4.424  25.075  0.00  0.00    -0.341 OA
ATOM      4  C   UNL     1       6.043   5.507  24.158  0.00  0.00    +0.178 C 
ATOM      5  C   UNL     1       5.012   5.479  23.034  0.00  0.00    +0.177 C 
ATOM      6  C   UNL     1       4.912   4.095  22.391  0.00  0.00    +0.179 C 
ENDROOT
BRANCH   5   7
ATOM      7  O   UNL     1       5.273   6.519  22.087  0.00  0.00    -0.386 OA
ATOM      8  H   UNL     1       6.178   6.389  21.753  0.00  0.00    +0.210 HD
ENDBRANCH   5   7
BRANCH   6   9
ATOM      9  O   UNL     1       3.794   4.084  21.490  0.00  0.00    -0.386 OA
ATOM     10  H   UNL     1       3.204   3.353  21.750  0.00  0.00    +0.210 HD
ENDBRANCH   6   9
BRANCH   4  11
ATOM     11  C   UNL     1       7.468   5.863  23.753  0.00  0.00    +0.190 C 
BRANCH  11  12
ATOM     12  O   UNL     1       7.874   5.228  22.561  0.00  0.00    -0.392 OA
ATOM     13  H   UNL     1       8.657   5.702  22.227  0.00  0.00    +0.210 HD
ENDBRANCH  11  12
ENDBRANCH   4  11
BRANCH   2  14
ATOM     14  O   UNL     1       7.222   2.720  24.167  0.00  0.00    -0.337 OA
BRANCH  14  15
ATOM     15  C   UNL     1       7.182   1.602  23.220  0.00  0.00    +0.221 C 
ATOM     16  C   UNL     1       7.622   0.279  23.904  0.00  0.00    +0.340 C 
ATOM     17  O   UNL     1       9.013   0.337  24.266  0.00  0.00    -0.331 OA
ATOM     18  C   UNL     1       9.976   0.728  23.279  0.00  0.00    +0.179 C 
ATOM     19  C   UNL     1       9.541   1.958  22.471  0.00  0.00    +0.177 C 
ATOM     20  C   UNL     1       8.100   1.788  21.996  0.00  0.00    +0.180 C 
BRANCH  19  21
ATOM     21  O   UNL     1      10.401   2.214  21.360  0.00  0.00    -0.386 OA
ATOM     22  H   UNL     1      11.108   1.540  21.354  0.00  0.00    +0.210 HD
ENDBRANCH  19  21
BRANCH  20  23
ATOM     23  O   UNL     1       7.714   2.852  21.132  0.00  0.00    -0.386 OA
ATOM     24  H   UNL     1       7.082   2.508  20.469  0.00  0.00    +0.210 HD
ENDBRANCH  20  23
BRANCH  18  25
ATOM     25  C   UNL     1      10.378  -0.477  22.418  0.00  0.00    +0.190 C 
BRANCH  25  26
ATOM     26  O   UNL     1       9.563  -0.563  21.249  0.00  0.00    -0.392 OA
ATOM     27  H   UNL     1       9.393  -1.512  21.074  0.00  0.00    +0.210 HD
ENDBRANCH  25  26
ENDBRANCH  18  25
BRANCH  16  28
ATOM     28  O   UNL     1       7.244  -0.776  22.991  0.00  0.00    -0.453 OA
BRANCH  28  29
ATOM     29  C   UNL     1       7.109  -2.060  23.480  0.00  0.00    +0.214 A 
ATOM     30  C   UNL     1       7.171  -3.241  22.550  0.00  0.00    +0.238 A 
ATOM     31  O   UNL     1       7.882  -3.264  21.545  0.00  0.00    -0.283 OA
ATOM     32  C   UNL     1       6.355  -4.411  22.923  0.00  0.00    +0.109 A 
ATOM     33  C   UNL     1       6.099  -4.549  24.276  0.00  0.00    +0.147 A 
ATOM     34  C   UNL     1       5.348  -5.611  24.771  0.00  0.00    +0.092 A 
ATOM     35  C   UNL     1       4.853  -6.547  23.878  0.00  0.00    +0.124 A 
ATOM     36  C   UNL     1       5.109  -6.436  22.512  0.00  0.00    +0.091 A 
ATOM     37  O   UNL     1       6.611  -3.673  25.181  0.00  0.00    -0.451 OA
ATOM     38  C   UNL     1       5.860  -5.361  22.033  0.00  0.00    +0.135 A 
ATOM     39  C   UNL     1       6.844  -2.353  24.782  0.00  0.00    +0.181 A 
BRANCH  39  40
ATOM     40  C   UNL     1       6.699  -1.467  25.995  0.00  0.00    +0.025 A 
ATOM     41  C   UNL     1       5.448  -0.809  26.160  0.00  0.00    +0.015 A 
ATOM     42  C   UNL     1       5.264   0.262  27.035  0.00  0.00    +0.050 A 
ATOM     43  C   UNL     1       6.320   0.654  27.822  0.00  0.00    +0.158 A 
ATOM     44  C   UNL     1       7.510  -0.065  27.795  0.00  0.00    +0.159 A 
ATOM     45  C   UNL     1       7.724  -1.114  26.885  0.00  0.00    +0.060 A 
BRANCH  43  46
ATOM     46  O   UNL     1       6.179   1.759  28.610  0.00  0.00    -0.503 OA
ATOM     47  H   UNL     1       5.216   1.867  28.734  0.00  0.00    +0.292 HD
ENDBRANCH  43  46
BRANCH  44  48
ATOM     48  O   UNL     1       8.484   0.308  28.684  0.00  0.00    -0.503 OA
ATOM     49  H   UNL     1       9.004  -0.499  28.863  0.00  0.00    +0.292 HD
ENDBRANCH  44  48
ENDBRANCH  39  40
BRANCH  38  50
ATOM     50  O   UNL     1       6.080  -5.237  20.692  0.00  0.00    -0.506 OA
ATOM     51  H   UNL     1       5.366  -5.672  20.199  0.00  0.00    +0.292 HD
ENDBRANCH  38  50
BRANCH  35  52
ATOM     52  O   UNL     1       4.105  -7.605  24.302  0.00  0.00    -0.507 OA
ATOM     53  H   UNL     1       3.566  -7.929  23.560  0.00  0.00    +0.292 HD
ENDBRANCH  35  52
ENDBRANCH  28  29
ENDBRANCH  16  28
ENDBRANCH  14  15
ENDBRANCH   2  14
BRANCH   1  54
ATOM     54  O   UNL     1       3.482   2.716  23.951  0.00  0.00    -0.338 OA
BRANCH  54  57
ATOM     55  C   UNL     1       1.637   2.260  27.121  0.00  0.00    +0.190 C 
ATOM     56  O   UNL     1       2.119   2.115  25.775  0.00  0.00    -0.339 OA
ATOM     57  C   UNL     1       3.195   2.932  25.345  0.00  0.00    +0.282 C 
ATOM     58  C   UNL     1       2.823   4.424  25.533  0.00  0.00    +0.201 C 
ATOM     59  C   UNL     1       2.451   4.659  27.000  0.00  0.00    +0.179 C 
ATOM     60  C   UNL     1       1.283   3.736  27.411  0.00  0.00    +0.178 C 
BRANCH  58  61
ATOM     61  O   UNL     1       1.686   4.809  24.730  0.00  0.00    -0.384 OA
ATOM     62  H   UNL     1       2.040   5.153  23.888  0.00  0.00    +0.210 HD
ENDBRANCH  58  61
BRANCH  59  63
ATOM     63  O   UNL     1       2.089   6.028  27.207  0.00  0.00    -0.386 OA
ATOM     64  H   UNL     1       2.925   6.537  27.161  0.00  0.00    +0.210 HD
ENDBRANCH  59  63
BRANCH  60  65
ATOM     65  O   UNL     1       0.924   3.909  28.784  0.00  0.00    -0.386 OA
ATOM     66  H   UNL     1       1.274   3.161  29.300  0.00  0.00    +0.210 HD
ENDBRANCH  60  65
BRANCH  55  67
ATOM     67  C   UNL     1       2.571   1.704  28.229  0.00  0.00    +0.266 C 
BRANCH  67  68
ATOM     68  O   UNL     1       2.661   0.276  28.393  0.00  0.00    -0.459 OA
BRANCH  68  69
ATOM     69  C   UNL     1       2.381  -0.283  29.600  0.00  0.00    +0.332 C 
ATOM     70  O   UNL     1       1.670   0.182  30.472  0.00  0.00    -0.246 OA
BRANCH  69  72
ATOM     71  C   UNL     1       3.161  -2.406  28.597  0.00  0.00    +0.015 C 
ATOM     72  C   UNL     1       3.097  -1.590  29.654  0.00  0.00    +0.092 C 
BRANCH  71  74
ATOM     73  C   UNL     1       2.989  -4.917  28.934  0.00  0.00    +0.012 A 
ATOM     74  C   UNL     1       3.724  -3.764  28.616  0.00  0.00    -0.021 A 
ATOM     75  C   UNL     1       5.078  -3.903  28.298  0.00  0.00    +0.057 A 
ATOM     76  C   UNL     1       5.667  -5.160  28.266  0.00  0.00    +0.159 A 
ATOM     77  C   UNL     1       4.932  -6.298  28.568  0.00  0.00    +0.158 A 
ATOM     78  C   UNL     1       3.592  -6.188  28.909  0.00  0.00    +0.050 A 
BRANCH  76  79
ATOM     79  O   UNL     1       6.980  -5.261  27.912  0.00  0.00    -0.503 OA
ATOM     80  H   UNL     1       6.980  -5.088  26.951  0.00  0.00    +0.292 HD
ENDBRANCH  76  79
BRANCH  77  81
ATOM     81  O   UNL     1       5.579  -7.504  28.506  0.00  0.00    -0.503 OA
ATOM     82  H   UNL     1       4.912  -8.207  28.581  0.00  0.00    +0.292 HD
ENDBRANCH  77  81
ENDBRANCH  71  74
ENDBRANCH  69  72
ENDBRANCH  68  69
ENDBRANCH  67  68
ENDBRANCH  55  67
ENDBRANCH  54  57
ENDBRANCH   1  54
TORSDOF 29
ENDMDL
MODEL 2
REMARK VINA RESULT:      -6.5      2.151      6.990
REMARK  Name = 
REMARK  29 active torsions:
REMARK  status: ('A' for Active; 'I' for Inactive)
REMARK    1  A    between atoms: C_3  and  O_67
REMARK    2  A    between atoms: C_4  and  O_66
REMARK    3  A    between atoms: C_6  and  C_7
REMARK    4  A    between atoms: C_8  and  C_9
REMARK    5  A    between atoms: C_9  and  O_11
REMARK    6  A    between atoms: O_11  and  C_12
REMARK    7  A    between atoms: C_12  and  C_13
REMARK    8  A    between atoms: C_14  and  O_65
REMARK    9  A    between atoms: C_15  and  O_64
REMARK   10  A    between atoms: C_16  and  O_63
REMARK   11  A    between atoms: C_17  and  O_19
REMARK   12  A    between atoms: O_19  and  C_20
REMARK   13  A    between atoms: C_21  and  O_62
REMARK   14  A    between atoms: C_22  and  O_61
REMARK   15  A    between atoms: C_23  and  C_59
REMARK   16  A    between atoms: C_25  and  O_26
REMARK   17  A    between atoms: O_26  and  C_27
REMARK   18  A    between atoms: C_28  and  O_58
REMARK   19  A    between atoms: C_29  and  O_57
REMARK   20  A    between atoms: C_30  and  C_55
REMARK   21  A    between atoms: C_32  and  O_33
REMARK   22  A    between atoms: O_33  and  C_34
REMARK   23  A    between atoms: C_35  and  C_47
REMARK   24  A    between atoms: C_39  and  O_46
REMARK   25  A    between atoms: C_41  and  O_45
REMARK   26  A    between atoms: C_49  and  O_54
REMARK   27  A    between atoms: C_50  and  O_53
REMARK   28  A    between atoms: C_55  and  O_56
REMARK   29  A    between atoms: C_59  and  O_60
REMARK                            x       y       z     vdW  Elec       q    Type
REMARK                         _______ _______ _______ _____ _____    ______ ____
ROOT
ATOM      1  C   UNL     1       5.878   1.716  26.625  0.00  0.00    +0.208 C 
ATOM      2  C   UNL     1       4.741   1.204  27.559  0.00  0.00    +0.283 C 
ATOM      3  O   UNL     1       4.210   2.207  28.385  0.00  0.00    -0.341 OA
ATOM      4  C   UNL     1       5.123   3.014  29.118  0.00  0.00    +0.178 C 
ATOM      5  C   UNL     1       6.266   3.602  28.297  0.00  0.00    +0.177 C 
ATOM      6  C   UNL     1       6.914   2.551  27.395  0.00  0.00    +0.179 C 
ENDROOT
BRANCH   5   7
ATOM      7  O   UNL     1       7.205   4.266  29.148  0.00  0.00    -0.386 OA
ATOM      8  H   UNL     1       8.089   3.918  28.935  0.00  0.00    +0.210 HD
ENDBRANCH   5   7
BRANCH   6   9
ATOM      9  O   UNL     1       7.837   3.207  26.511  0.00  0.00    -0.386 OA
ATOM     10  H   UNL     1       8.741   2.974  26.791  0.00  0.00    +0.210 HD
ENDBRANCH   6   9
BRANCH   4  11
ATOM     11  C   UNL     1       5.499   2.437  30.476  0.00  0.00    +0.190 C 
BRANCH  11  12
ATOM     12  O   UNL     1       6.557   1.507  30.402  0.00  0.00    -0.392 OA
ATOM     13  H   UNL     1       7.046   1.682  29.577  0.00  0.00    +0.210 HD
ENDBRANCH  11  12
ENDBRANCH   4  11
BRANCH   2  14
ATOM     14  O   UNL     1       5.098   0.079  28.380  0.00  0.00    -0.337 OA
BRANCH  14  15
ATOM     15  C   UNL     1       4.332  -1.113  28.008  0.00  0.00    +0.221 C 
ATOM     16  C   UNL     1       3.482  -0.853  26.735  0.00  0.00    +0.340 C 
ATOM     17  O   UNL     1       2.452   0.113  27.006  0.00  0.00    -0.331 OA
ATOM     18  C   UNL     1       1.597  -0.077  28.141  0.00  0.00    +0.179 C 
ATOM     19  C   UNL     1       2.364  -0.469  29.410  0.00  0.00    +0.177 C 
ATOM     20  C   UNL     1       3.352  -1.590  29.097  0.00  0.00    +0.180 C 
BRANCH  19  21
ATOM     21  O   UNL     1       1.496  -0.856  30.475  0.00  0.00    -0.386 OA
ATOM     22  H   UNL     1       1.807  -0.433  31.299  0.00  0.00    +0.210 HD
ENDBRANCH  19  21
BRANCH  20  23
ATOM     23  O   UNL     1       3.982  -2.066  30.283  0.00  0.00    -0.386 OA
ATOM     24  H   UNL     1       3.923  -1.374  30.973  0.00  0.00    +0.210 HD
ENDBRANCH  20  23
BRANCH  18  25
ATOM     25  C   UNL     1       0.443  -1.025  27.787  0.00  0.00    +0.190 C 
BRANCH  25  26
ATOM     26  O   UNL     1       0.753  -2.368  28.162  0.00  0.00    -0.392 OA
ATOM     27  H   UNL     1       1.241  -2.779  27.419  0.00  0.00    +0.210 HD
ENDBRANCH  25  26
ENDBRANCH  18  25
BRANCH  16  28
ATOM     28  O   UNL     1       3.036  -2.154  26.291  0.00  0.00    -0.453 OA
BRANCH  28  29
ATOM     29  C   UNL     1       3.966  -3.034  25.772  0.00  0.00    +0.214 A 
ATOM     30  C   UNL     1       4.891  -2.601  24.667  0.00  0.00    +0.238 A 
ATOM     31  O   UNL     1       5.322  -1.453  24.566  0.00  0.00    -0.283 OA
ATOM     32  C   UNL     1       5.300  -3.646  23.711  0.00  0.00    +0.109 A 
ATOM     33  C   UNL     1       5.293  -4.939  24.205  0.00  0.00    +0.147 A 
ATOM     34  C   UNL     1       5.663  -6.023  23.415  0.00  0.00    +0.092 A 
ATOM     35  C   UNL     1       6.049  -5.789  22.105  0.00  0.00    +0.124 A 
ATOM     36  C   UNL     1       6.077  -4.495  21.589  0.00  0.00    +0.091 A 
ATOM     37  O   UNL     1       4.964  -5.195  25.499  0.00  0.00    -0.451 OA
ATOM     38  C   UNL     1       5.697  -3.419  22.396  0.00  0.00    +0.135 A 
ATOM     39  C   UNL     1       4.071  -4.336  26.149  0.00  0.00    +0.181 A 
BRANCH  39  40
ATOM     40  C   UNL     1       3.332  -5.136  27.194  0.00  0.00    +0.025 A 
ATOM     41  C   UNL     1       3.842  -5.079  28.521  0.00  0.00    +0.015 A 
ATOM     42  C   UNL     1       3.473  -5.985  29.515  0.00  0.00    +0.050 A 
ATOM     43  C   UNL     1       2.522  -6.932  29.218  0.00  0.00    +0.158 A 
ATOM     44  C   UNL     1       1.893  -6.918  27.977  0.00  0.00    +0.159 A 
ATOM     45  C   UNL     1       2.289  -6.042  26.953  0.00  0.00    +0.060 A 
BRANCH  43  46
ATOM     46  O   UNL     1       2.223  -7.881  30.152  0.00  0.00    -0.503 OA
ATOM     47  H   UNL     1       2.350  -7.443  31.015  0.00  0.00    +0.292 HD
ENDBRANCH  43  46
BRANCH  44  48
ATOM     48  O   UNL     1       0.876  -7.816  27.784  0.00  0.00    -0.503 OA
ATOM     49  H   UNL     1       0.124  -7.484  28.311  0.00  0.00    +0.292 HD
ENDBRANCH  44  48
ENDBRANCH  39  40
BRANCH  38  50
ATOM     50  O   UNL     1       5.694  -2.157  21.877  0.00  0.00    -0.506 OA
ATOM     51  H   UNL     1       6.178  -1.557  22.466  0.00  0.00    +0.292 HD
ENDBRANCH  38  50
BRANCH  35  52
ATOM     52  O   UNL     1       6.415  -6.811  21.280  0.00  0.00    -0.507 OA
ATOM     53  H   UNL     1       6.474  -7.631  21.799  0.00  0.00    +0.292 HD
ENDBRANCH  35  52
ENDBRANCH  28  29
ENDBRANCH  16  28
ENDBRANCH  14  15
ENDBRANCH   2  14
BRANCH   1  54
ATOM     54  O   UNL     1       5.386   2.326  25.397  0.00  0.00    -0.338 OA
BRANCH  54  57
ATOM     55  C   UNL     1       8.268   1.387  23.281  0.00  0.00    +0.190 C 
ATOM     56  O   UNL     1       7.376   1.566  24.395  0.00  0.00    -0.339 OA
ATOM     57  C   UNL     1       6.102   2.141  24.162  0.00  0.00    +0.282 C 
ATOM     58  C   UNL     1       6.272   3.528  23.493  0.00  0.00    +0.201 C 
ATOM     59  C   UNL     1       7.089   3.361  22.209  0.00  0.00    +0.179 C 
ATOM     60  C   UNL     1       8.459   2.721  22.525  0.00  0.00    +0.178 C 
BRANCH  58  61
ATOM     61  O   UNL     1       6.981   4.460  24.340  0.00  0.00    -0.384 OA
ATOM     62  H   UNL     1       6.305   5.005  24.785  0.00  0.00    +0.210 HD
ENDBRANCH  58  61
BRANCH  59  63
ATOM     63  O   UNL     1       7.276   4.627  21.570  0.00  0.00    -0.386 OA
ATOM     64  H   UNL     1       6.753   4.590  20.743  0.00  0.00    +0.210 HD
ENDBRANCH  59  63
BRANCH  60  65
ATOM     65  O   UNL     1       9.241   2.524  21.345  0.00  0.00    -0.386 OA
ATOM     66  H   UNL     1       9.402   1.571  21.225  0.00  0.00    +0.210 HD
ENDBRANCH  60  65
BRANCH  55  67
ATOM     67  C   UNL     1       7.881   0.258  22.290  0.00  0.00    +0.266 C 
BRANCH  67  68
ATOM     68  O   UNL     1       8.899  -0.257  21.410  0.00  0.00    -0.459 OA
BRANCH  68  69
ATOM     69  C   UNL     1       9.803  -1.158  21.880  0.00  0.00    +0.332 C 
ATOM     70  O   UNL     1      10.969  -1.260  21.549  0.00  0.00    -0.246 OA
BRANCH  69  72
ATOM     71  C   UNL     1       9.659  -2.296  24.072  0.00  0.00    +0.015 C 
ATOM     72  C   UNL     1       9.100  -1.993  22.895  0.00  0.00    +0.092 C 
BRANCH  71  74
ATOM     73  C   UNL     1       8.169  -2.851  26.053  0.00  0.00    +0.012 A 
ATOM     74  C   UNL     1       9.089  -3.224  25.059  0.00  0.00    -0.021 A 
ATOM     75  C   UNL     1       9.498  -4.559  24.998  0.00  0.00    +0.057 A 
ATOM     76  C   UNL     1       8.976  -5.496  25.880  0.00  0.00    +0.159 A 
ATOM     77  C   UNL     1       8.056  -5.123  26.851  0.00  0.00    +0.158 A 
ATOM     78  C   UNL     1       7.649  -3.801  26.950  0.00  0.00    +0.050 A 
BRANCH  76  79
ATOM     79  O   UNL     1       9.368  -6.797  25.765  0.00  0.00    -0.503 OA
ATOM     80  H   UNL     1       8.644  -7.217  25.261  0.00  0.00    +0.292 HD
ENDBRANCH  76  79
BRANCH  77  81
ATOM     81  O   UNL     1       7.578  -6.104  27.679  0.00  0.00    -0.503 OA
ATOM     82  H   UNL     1       8.286  -6.757  27.812  0.00  0.00    +0.292 HD
ENDBRANCH  77  81
ENDBRANCH  71  74
ENDBRANCH  69  72
ENDBRANCH  68  69
ENDBRANCH  67  68
ENDBRANCH  55  67
ENDBRANCH  54  57
ENDBRANCH   1  54
TORSDOF 29
ENDMDL
MODEL 3
REMARK VINA RESULT:      -6.4      2.289      7.747
REMARK  Name = 
REMARK  29 active torsions:
REMARK  status: ('A' for Active; 'I' for Inactive)
REMARK    1  A    between atoms: C_3  and  O_67
REMARK    2  A    between atoms: C_4  and  O_66
REMARK    3  A    between atoms: C_6  and  C_7
REMARK    4  A    between atoms: C_8  and  C_9
REMARK    5  A    between atoms: C_9  and  O_11
REMARK    6  A    between atoms: O_11  and  C_12
REMARK    7  A    between atoms: C_12  and  C_13
REMARK    8  A    between atoms: C_14  and  O_65
REMARK    9  A    between atoms: C_15  and  O_64
REMARK   10  A    between atoms: C_16  and  O_63
REMARK   11  A    between atoms: C_17  and  O_19
REMARK   12  A    between atoms: O_19  and  C_20
REMARK   13  A    between atoms: C_21  and  O_62
REMARK   14  A    between atoms: C_22  and  O_61
REMARK   15  A    between atoms: C_23  and  C_59
REMARK   16  A    between atoms: C_25  and  O_26
REMARK   17  A    between atoms: O_26  and  C_27
REMARK   18  A    between atoms: C_28  and  O_58
REMARK   19  A    between atoms: C_29  and  O_57
REMARK   20  A    between atoms: C_30  and  C_55
REMARK   21  A    between atoms: C_32  and  O_33
REMARK   22  A    between atoms: O_33  and  C_34
REMARK   23  A    between atoms: C_35  and  C_47
REMARK   24  A    between atoms: C_39  and  O_46
REMARK   25  A    between atoms: C_41  and  O_45
REMARK   26  A    between atoms: C_49  and  O_54
REMARK   27  A    between atoms: C_50  and  O_53
REMARK   28  A    between atoms: C_55  and  O_56
REMARK   29  A    between atoms: C_59  and  O_60
REMARK                            x       y       z     vdW  Elec       q    Type
REMARK                         _______ _______ _______ _____ _____    ______ ____
ROOT
ATOM      1  C   UNL     1       7.434   1.419  23.566  0.00  0.00    +0.208 C 
ATOM      2  C   UNL     1       7.660   0.483  24.790  0.00  0.00    +0.283 C 
ATOM      3  O   UNL     1       9.008   0.136  24.978  0.00  0.00    -0.341 OA
ATOM      4  C   UNL     1       9.734  -0.340  23.853  0.00  0.00    +0.178 C 
ATOM      5  C   UNL     1       9.614   0.519  22.599  0.00  0.00    +0.177 C 
ATOM      6  C   UNL     1       8.163   0.907  22.313  0.00  0.00    +0.179 C 
ENDROOT
BRANCH   5   7
ATOM      7  O   UNL     1      10.252  -0.121  21.489  0.00  0.00    -0.386 OA
ATOM      8  H   UNL     1      11.203   0.079  21.543  0.00  0.00    +0.210 HD
ENDBRANCH   5   7
BRANCH   6   9
ATOM      9  O   UNL     1       8.143   1.871  21.250  0.00  0.00    -0.386 OA
ATOM     10  H   UNL     1       8.286   2.753  21.638  0.00  0.00    +0.210 HD
ENDBRANCH   6   9
BRANCH   4  11
ATOM     11  C   UNL     1       9.630  -1.846  23.648  0.00  0.00    +0.190 C 
BRANCH  11  12
ATOM     12  O   UNL     1       8.651  -2.204  22.698  0.00  0.00    -0.392 OA
ATOM     13  H   UNL     1       7.994  -2.764  23.151  0.00  0.00    +0.210 HD
ENDBRANCH  11  12
ENDBRANCH   4  11
BRANCH   2  14
ATOM     14  O   UNL     1       6.878  -0.723  24.777  0.00  0.00    -0.337 OA
BRANCH  14  15
ATOM     15  C   UNL     1       6.542  -1.151  26.138  0.00  0.00    +0.221 C 
ATOM     16  C   UNL     1       5.075  -1.652  26.217  0.00  0.00    +0.340 C 
ATOM     17  O   UNL     1       4.159  -0.565  25.993  0.00  0.00    -0.331 OA
ATOM     18  C   UNL     1       4.312   0.644  26.750  0.00  0.00    +0.179 C 
ATOM     19  C   UNL     1       5.767   1.125  26.824  0.00  0.00    +0.177 C 
ATOM     20  C   UNL     1       6.683  -0.039  27.195  0.00  0.00    +0.180 C 
BRANCH  19  21
ATOM     21  O   UNL     1       5.939   2.203  27.744  0.00  0.00    -0.386 OA
ATOM     22  H   UNL     1       6.353   1.854  28.557  0.00  0.00    +0.210 HD
ENDBRANCH  19  21
BRANCH  20  23
ATOM     23  O   UNL     1       8.020   0.405  27.402  0.00  0.00    -0.386 OA
ATOM     24  H   UNL     1       8.636  -0.256  27.026  0.00  0.00    +0.210 HD
ENDBRANCH  20  23
BRANCH  18  25
ATOM     25  C   UNL     1       3.625   0.509  28.115  0.00  0.00    +0.190 C 
BRANCH  25  26
ATOM     26  O   UNL     1       3.108   1.767  28.552  0.00  0.00    -0.392 OA
ATOM     27  H   UNL     1       2.385   2.020  27.941  0.00  0.00    +0.210 HD
ENDBRANCH  25  26
ENDBRANCH  18  25
BRANCH  16  28
ATOM     28  O   UNL     1       4.962  -2.330  27.488  0.00  0.00    -0.453 OA
BRANCH  28  29
ATOM     29  C   UNL     1       4.262  -3.519  27.547  0.00  0.00    +0.214 A 
ATOM     30  C   UNL     1       2.917  -3.579  28.219  0.00  0.00    +0.238 A 
ATOM     31  O   UNL     1       2.120  -2.642  28.205  0.00  0.00    -0.283 OA
ATOM     32  C   UNL     1       2.572  -4.854  28.875  0.00  0.00    +0.109 A 
ATOM     33  C   UNL     1       3.188  -5.978  28.352  0.00  0.00    +0.147 A 
ATOM     34  C   UNL     1       2.949  -7.247  28.869  0.00  0.00    +0.092 A 
ATOM     35  C   UNL     1       2.068  -7.377  29.931  0.00  0.00    +0.124 A 
ATOM     36  C   UNL     1       1.425  -6.261  30.466  0.00  0.00    +0.091 A 
ATOM     37  O   UNL     1       4.021  -5.888  27.281  0.00  0.00    -0.451 OA
ATOM     38  C   UNL     1       1.682  -4.994  29.937  0.00  0.00    +0.135 A 
ATOM     39  C   UNL     1       4.742  -4.705  27.087  0.00  0.00    +0.181 A 
BRANCH  39  40
ATOM     40  C   UNL     1       6.026  -5.054  26.376  0.00  0.00    +0.025 A 
ATOM     41  C   UNL     1       7.167  -5.287  27.193  0.00  0.00    +0.015 A 
ATOM     42  C   UNL     1       8.469  -5.311  26.692  0.00  0.00    +0.050 A 
ATOM     43  C   UNL     1       8.651  -5.171  25.337  0.00  0.00    +0.158 A 
ATOM     44  C   UNL     1       7.548  -5.095  24.493  0.00  0.00    +0.159 A 
ATOM     45  C   UNL     1       6.236  -5.022  24.989  0.00  0.00    +0.060 A 
BRANCH  43  46
ATOM     46  O   UNL     1       9.923  -5.098  24.847  0.00  0.00    -0.503 OA
ATOM     47  H   UNL     1       9.960  -5.757  24.128  0.00  0.00    +0.292 HD
ENDBRANCH  43  46
BRANCH  44  48
ATOM     48  O   UNL     1       7.795  -5.071  23.145  0.00  0.00    -0.503 OA
ATOM     49  H   UNL     1       8.615  -5.585  23.016  0.00  0.00    +0.292 HD
ENDBRANCH  44  48
ENDBRANCH  39  40
BRANCH  38  50
ATOM     50  O   UNL     1       1.077  -3.900  30.485  0.00  0.00    -0.506 OA
ATOM     51  H   UNL     1       0.571  -4.162  31.271  0.00  0.00    +0.292 HD
ENDBRANCH  38  50
BRANCH  35  52
ATOM     52  O   UNL     1       1.799  -8.593  30.485  0.00  0.00    -0.507 OA
ATOM     53  H   UNL     1       0.945  -8.912  30.149  0.00  0.00    +0.292 HD
ENDBRANCH  35  52
ENDBRANCH  28  29
ENDBRANCH  16  28
ENDBRANCH  14  15
ENDBRANCH   2  14
BRANCH   1  54
ATOM     54  O   UNL     1       7.648   2.829  23.869  0.00  0.00    -0.338 OA
BRANCH  54  57
ATOM     55  C   UNL     1       4.509   4.241  25.214  0.00  0.00    +0.190 C 
ATOM     56  O   UNL     1       5.721   3.485  25.051  0.00  0.00    -0.339 OA
ATOM     57  C   UNL     1       6.531   3.735  23.915  0.00  0.00    +0.282 C 
ATOM     58  C   UNL     1       5.696   3.534  22.626  0.00  0.00    +0.201 C 
ATOM     59  C   UNL     1       4.466   4.444  22.687  0.00  0.00    +0.179 C 
ATOM     60  C   UNL     1       3.631   4.133  23.948  0.00  0.00    +0.178 C 
BRANCH  58  61
ATOM     61  O   UNL     1       5.225   2.176  22.487  0.00  0.00    -0.384 OA
ATOM     62  H   UNL     1       5.896   1.602  22.901  0.00  0.00    +0.210 HD
ENDBRANCH  58  61
BRANCH  59  63
ATOM     63  O   UNL     1       3.665   4.276  21.514  0.00  0.00    -0.386 OA
ATOM     64  H   UNL     1       3.553   3.309  21.402  0.00  0.00    +0.210 HD
ENDBRANCH  59  63
BRANCH  60  65
ATOM     65  O   UNL     1       2.486   4.982  24.053  0.00  0.00    -0.386 OA
ATOM     66  H   UNL     1       2.744   5.808  24.499  0.00  0.00    +0.210 HD
ENDBRANCH  60  65
BRANCH  55  67
ATOM     67  C   UNL     1       4.698   5.729  25.612  0.00  0.00    +0.266 C 
BRANCH  67  68
ATOM     68  O   UNL     1       6.035   6.264  25.643  0.00  0.00    -0.459 OA
BRANCH  68  69
ATOM     69  C   UNL     1       6.747   6.232  26.801  0.00  0.00    +0.332 C 
ATOM     70  O   UNL     1       6.310   6.357  27.929  0.00  0.00    -0.246 OA
BRANCH  69  72
ATOM     71  C   UNL     1       8.729   6.565  25.357  0.00  0.00    +0.015 C 
ATOM     72  C   UNL     1       8.172   5.996  26.431  0.00  0.00    +0.092 C 
BRANCH  71  74
ATOM     73  C   UNL     1      11.233   6.970  25.241  0.00  0.00    +0.012 A 
ATOM     74  C   UNL     1      10.079   6.271  24.854  0.00  0.00    -0.021 A 
ATOM     75  C   UNL     1      10.208   5.230  23.931  0.00  0.00    +0.057 A 
ATOM     76  C   UNL     1      11.458   4.878  23.439  0.00  0.00    +0.159 A 
ATOM     77  C   UNL     1      12.597   5.565  23.836  0.00  0.00    +0.158 A 
ATOM     78  C   UNL     1      12.497   6.617  24.733  0.00  0.00    +0.050 A 
BRANCH  76  79
ATOM     79  O   UNL     1      11.551   3.831  22.570  0.00  0.00    -0.503 OA
ATOM     80  H   UNL     1      12.167   3.214  23.009  0.00  0.00    +0.292 HD
ENDBRANCH  76  79
BRANCH  77  81
ATOM     81  O   UNL     1      13.797   5.154  23.315  0.00  0.00    -0.503 OA
ATOM     82  H   UNL     1      13.623   4.732  22.456  0.00  0.00    +0.292 HD
ENDBRANCH  77  81
ENDBRANCH  71  74
ENDBRANCH  69  72
ENDBRANCH  68  69
ENDBRANCH  67  68
ENDBRANCH  55  67
ENDBRANCH  54  57
ENDBRANCH   1  54
TORSDOF 29
ENDMDL
MODEL 4
REMARK VINA RESULT:      -6.1      2.196      8.404
REMARK  Name = 
REMARK  29 active torsions:
REMARK  status: ('A' for Active; 'I' for Inactive)
REMARK    1  A    between atoms: C_3  and  O_67
REMARK    2  A    between atoms: C_4  and  O_66
REMARK    3  A    between atoms: C_6  and  C_7
REMARK    4  A    between atoms: C_8  and  C_9
REMARK    5  A    between atoms: C_9  and  O_11
REMARK    6  A    between atoms: O_11  and  C_12
REMARK    7  A    between atoms: C_12  and  C_13
REMARK    8  A    between atoms: C_14  and  O_65
REMARK    9  A    between atoms: C_15  and  O_64
REMARK   10  A    between atoms: C_16  and  O_63
REMARK   11  A    between atoms: C_17  and  O_19
REMARK   12  A    between atoms: O_19  and  C_20
REMARK   13  A    between atoms: C_21  and  O_62
REMARK   14  A    between atoms: C_22  and  O_61
REMARK   15  A    between atoms: C_23  and  C_59
REMARK   16  A    between atoms: C_25  and  O_26
REMARK   17  A    between atoms: O_26  and  C_27
REMARK   18  A    between atoms: C_28  and  O_58
REMARK   19  A    between atoms: C_29  and  O_57
REMARK   20  A    between atoms: C_30  and  C_55
REMARK   21  A    between atoms: C_32  and  O_33
REMARK   22  A    between atoms: O_33  and  C_34
REMARK   23  A    between atoms: C_35  and  C_47
REMARK   24  A    between atoms: C_39  and  O_46
REMARK   25  A    between atoms: C_41  and  O_45
REMARK   26  A    between atoms: C_49  and  O_54
REMARK   27  A    between atoms: C_50  and  O_53
REMARK   28  A    between atoms: C_55  and  O_56
REMARK   29  A    between atoms: C_59  and  O_60
REMARK                            x       y       z     vdW  Elec       q    Type
REMARK                         _______ _______ _______ _____ _____    ______ ____
ROOT
ATOM      1  C   UNL     1       5.554   0.560  25.305  0.00  0.00    +0.208 C 
ATOM      2  C   UNL     1       5.132   2.055  25.180  0.00  0.00    +0.283 C 
ATOM      3  O   UNL     1       5.035   2.707  26.419  0.00  0.00    -0.341 OA
ATOM      4  C   UNL     1       4.290   2.069  27.448  0.00  0.00    +0.178 C 
ATOM      5  C   UNL     1       4.642   0.605  27.685  0.00  0.00    +0.177 C 
ATOM      6  C   UNL     1       4.731  -0.177  26.374  0.00  0.00    +0.179 C 
ENDROOT
BRANCH   5   7
ATOM      7  O   UNL     1       3.738   0.018  28.627  0.00  0.00    -0.386 OA
ATOM      8  H   UNL     1       2.835   0.264  28.358  0.00  0.00    +0.210 HD
ENDBRANCH   5   7
BRANCH   6   9
ATOM      9  O   UNL     1       5.258  -1.483  26.650  0.00  0.00    -0.386 OA
ATOM     10  H   UNL     1       5.971  -1.664  26.009  0.00  0.00    +0.210 HD
ENDBRANCH   6   9
BRANCH   4  11
ATOM     11  C   UNL     1       2.805   2.409  27.430  0.00  0.00    +0.190 C 
BRANCH  11  12
ATOM     12  O   UNL     1       2.086   1.675  26.464  0.00  0.00    -0.392 OA
ATOM     13  H   UNL     1       1.546   1.016  26.937  0.00  0.00    +0.210 HD
ENDBRANCH  11  12
ENDBRANCH   4  11
BRANCH   2  14
ATOM     14  O   UNL     1       3.912   2.275  24.452  0.00  0.00    -0.337 OA
BRANCH  14  15
ATOM     15  C   UNL     1       3.891   3.609  23.845  0.00  0.00    +0.221 C 
ATOM     16  C   UNL     1       2.878   4.535  24.571  0.00  0.00    +0.340 C 
ATOM     17  O   UNL     1       1.532   4.071  24.361  0.00  0.00    -0.331 OA
ATOM     18  C   UNL     1       1.087   3.801  23.025  0.00  0.00    +0.179 C 
ATOM     19  C   UNL     1       2.106   2.999  22.204  0.00  0.00    +0.177 C 
ATOM     20  C   UNL     1       3.496   3.611  22.356  0.00  0.00    +0.180 C 
BRANCH  19  21
ATOM     21  O   UNL     1       1.750   2.914  20.824  0.00  0.00    -0.386 OA
ATOM     22  H   UNL     1       2.189   3.644  20.346  0.00  0.00    +0.210 HD
ENDBRANCH  19  21
BRANCH  20  23
ATOM     23  O   UNL     1       4.437   2.969  21.500  0.00  0.00    -0.386 OA
ATOM     24  H   UNL     1       5.094   2.496  22.050  0.00  0.00    +0.210 HD
ENDBRANCH  20  23
BRANCH  18  25
ATOM     25  C   UNL     1       0.616   5.095  22.348  0.00  0.00    +0.190 C 
BRANCH  25  26
ATOM     26  O   UNL     1       0.459   6.143  23.305  0.00  0.00    -0.392 OA
ATOM     27  H   UNL     1      -0.184   6.786  22.939  0.00  0.00    +0.210 HD
ENDBRANCH  25  26
ENDBRANCH  18  25
BRANCH  16  28
ATOM     28  O   UNL     1       3.171   5.872  24.110  0.00  0.00    -0.453 OA
BRANCH  28  29
ATOM     29  C   UNL     1       4.409   6.416  24.391  0.00  0.00    +0.214 A 
ATOM     30  C   UNL     1       5.385   6.703  23.283  0.00  0.00    +0.238 A 
ATOM     31  O   UNL     1       5.034   7.059  22.158  0.00  0.00    -0.283 OA
ATOM     32  C   UNL     1       6.815   6.576  23.622  0.00  0.00    +0.109 A 
ATOM     33  C   UNL     1       7.129   6.777  24.955  0.00  0.00    +0.147 A 
ATOM     34  C   UNL     1       8.440   6.695  25.414  0.00  0.00    +0.092 A 
ATOM     35  C   UNL     1       9.445   6.407  24.506  0.00  0.00    +0.124 A 
ATOM     36  C   UNL     1       9.154   6.213  23.156  0.00  0.00    +0.091 A 
ATOM     37  O   UNL     1       6.171   7.107  25.861  0.00  0.00    -0.451 OA
ATOM     38  C   UNL     1       7.832   6.295  22.714  0.00  0.00    +0.135 A 
ATOM     39  C   UNL     1       4.863   6.659  25.650  0.00  0.00    +0.181 A 
BRANCH  39  40
ATOM     40  C   UNL     1       4.203   6.497  26.998  0.00  0.00    +0.025 A 
ATOM     41  C   UNL     1       4.943   5.798  27.992  0.00  0.00    +0.015 A 
ATOM     42  C   UNL     1       4.364   5.303  29.161  0.00  0.00    +0.050 A 
ATOM     43  C   UNL     1       3.035   5.561  29.394  0.00  0.00    +0.158 A 
ATOM     44  C   UNL     1       2.321   6.371  28.516  0.00  0.00    +0.159 A 
ATOM     45  C   UNL     1       2.879   6.836  27.314  0.00  0.00    +0.060 A 
BRANCH  43  46
ATOM     46  O   UNL     1       2.437   5.001  30.485  0.00  0.00    -0.503 OA
ATOM     47  H   UNL     1       2.098   4.138  30.178  0.00  0.00    +0.292 HD
ENDBRANCH  43  46
BRANCH  44  48
ATOM     48  O   UNL     1       1.033   6.683  28.864  0.00  0.00    -0.503 OA
ATOM     49  H   UNL     1       0.859   7.563  28.480  0.00  0.00    +0.292 HD
ENDBRANCH  44  48
ENDBRANCH  39  40
BRANCH  38  50
ATOM     50  O   UNL     1       7.547   6.071  21.398  0.00  0.00    -0.506 OA
ATOM     51  H   UNL     1       8.327   5.709  20.948  0.00  0.00    +0.292 HD
ENDBRANCH  38  50
BRANCH  35  52
ATOM     52  O   UNL     1      10.747   6.306  24.897  0.00  0.00    -0.507 OA
ATOM     53  H   UNL     1      10.780   5.928  25.792  0.00  0.00    +0.292 HD
ENDBRANCH  35  52
ENDBRANCH  28  29
ENDBRANCH  16  28
ENDBRANCH  14  15
ENDBRANCH   2  14
BRANCH   1  54
ATOM     54  O   UNL     1       6.996   0.373  25.401  0.00  0.00    -0.338 OA
BRANCH  54  57
ATOM     55  C   UNL     1       9.747  -1.725  24.101  0.00  0.00    +0.190 C 
ATOM     56  O   UNL     1       8.883  -0.966  24.963  0.00  0.00    -0.339 OA
ATOM     57  C   UNL     1       7.687  -0.429  24.425  0.00  0.00    +0.282 C 
ATOM     58  C   UNL     1       8.022   0.476  23.212  0.00  0.00    +0.201 C 
ATOM     59  C   UNL     1       8.814  -0.343  22.190  0.00  0.00    +0.179 C 
ATOM     60  C   UNL     1      10.098  -0.910  22.836  0.00  0.00    +0.178 C 
BRANCH  58  61
ATOM     61  O   UNL     1       8.835   1.609  23.585  0.00  0.00    -0.384 OA
ATOM     62  H   UNL     1       9.292   1.906  22.775  0.00  0.00    +0.210 HD
ENDBRANCH  58  61
BRANCH  59  63
ATOM     63  O   UNL     1       9.152   0.466  21.060  0.00  0.00    -0.386 OA
ATOM     64  H   UNL     1      10.092   0.714  21.177  0.00  0.00    +0.210 HD
ENDBRANCH  59  63
BRANCH  60  65
ATOM     65  O   UNL     1      10.852  -1.704  21.917  0.00  0.00    -0.386 OA
ATOM     66  H   UNL     1      10.483  -1.592  21.023  0.00  0.00    +0.210 HD
ENDBRANCH  60  65
BRANCH  55  67
ATOM     67  C   UNL     1       9.230  -3.134  23.707  0.00  0.00    +0.266 C 
BRANCH  67  68
ATOM     68  O   UNL     1       9.762  -4.277  24.403  0.00  0.00    -0.459 OA
BRANCH  68  69
ATOM     69  C   UNL     1       9.235  -4.642  25.601  0.00  0.00    +0.332 C 
ATOM     70  O   UNL     1       9.773  -4.558  26.690  0.00  0.00    -0.246 OA
BRANCH  69  72
ATOM     71  C   UNL     1       6.806  -4.755  26.057  0.00  0.00    +0.015 C 
ATOM     72  C   UNL     1       7.860  -5.153  25.337  0.00  0.00    +0.092 C 
BRANCH  71  74
ATOM     73  C   UNL     1       4.401  -5.016  26.829  0.00  0.00    +0.012 A 
ATOM     74  C   UNL     1       5.452  -5.317  25.948  0.00  0.00    -0.021 A 
ATOM     75  C   UNL     1       5.208  -6.206  24.898  0.00  0.00    +0.057 A 
ATOM     76  C   UNL     1       3.943  -6.750  24.717  0.00  0.00    +0.159 A 
ATOM     77  C   UNL     1       2.904  -6.438  25.584  0.00  0.00    +0.158 A 
ATOM     78  C   UNL     1       3.123  -5.576  26.647  0.00  0.00    +0.050 A 
BRANCH  76  79
ATOM     79  O   UNL     1       3.731  -7.584  23.659  0.00  0.00    -0.503 OA
ATOM     80  H   UNL     1       4.626  -7.741  23.300  0.00  0.00    +0.292 HD
ENDBRANCH  76  79
BRANCH  77  81
ATOM     81  O   UNL     1       1.682  -7.006  25.336  0.00  0.00    -0.503 OA
ATOM     82  H   UNL     1       1.610  -7.159  24.379  0.00  0.00    +0.292 HD
ENDBRANCH  77  81
ENDBRANCH  71  74
ENDBRANCH  69  72
ENDBRANCH  68  69
ENDBRANCH  67  68
ENDBRANCH  55  67
ENDBRANCH  54  57
ENDBRANCH   1  54
TORSDOF 29
ENDMDL
MODEL 5
REMARK VINA RESULT:      -6.1      1.509      2.049
REMARK  Name = 
REMARK  29 active torsions:
REMARK  status: ('A' for Active; 'I' for Inactive)
REMARK    1  A    between atoms: C_3  and  O_67
REMARK    2  A    between atoms: C_4  and  O_66
REMARK    3  A    between atoms: C_6  and  C_7
REMARK    4  A    between atoms: C_8  and  C_9
REMARK    5  A    between atoms: C_9  and  O_11
REMARK    6  A    between atoms: O_11  and  C_12
REMARK    7  A    between atoms: C_12  and  C_13
REMARK    8  A    between atoms: C_14  and  O_65
REMARK    9  A    between atoms: C_15  and  O_64
REMARK   10  A    between atoms: C_16  and  O_63
REMARK   11  A    between atoms: C_17  and  O_19
REMARK   12  A    between atoms: O_19  and  C_20
REMARK   13  A    between atoms: C_21  and  O_62
REMARK   14  A    between atoms: C_22  and  O_61
REMARK   15  A    between atoms: C_23  and  C_59
REMARK   16  A    between atoms: C_25  and  O_26
REMARK   17  A    between atoms: O_26  and  C_27
REMARK   18  A    between atoms: C_28  and  O_58
REMARK   19  A    between atoms: C_29  and  O_57
REMARK   20  A    between atoms: C_30  and  C_55
REMARK   21  A    between atoms: C_32  and  O_33
REMARK   22  A    between atoms: O_33  and  C_34
REMARK   23  A    between atoms: C_35  and  C_47
REMARK   24  A    between atoms: C_39  and  O_46
REMARK   25  A    between atoms: C_41  and  O_45
REMARK   26  A    between atoms: C_49  and  O_54
REMARK   27  A    between atoms: C_50  and  O_53
REMARK   28  A    between atoms: C_55  and  O_56
REMARK   29  A    between atoms: C_59  and  O_60
REMARK                            x       y       z     vdW  Elec       q    Type
REMARK                         _______ _______ _______ _____ _____    ______ ____
ROOT
ATOM      1  C   UNL     1       5.188   3.777  24.005  0.00  0.00    +0.208 C 
ATOM      2  C   UNL     1       6.379   3.986  24.986  0.00  0.00    +0.283 C 
ATOM      3  O   UNL     1       6.756   5.332  25.118  0.00  0.00    -0.341 OA
ATOM      4  C   UNL     1       6.959   6.084  23.929  0.00  0.00    +0.178 C 
ATOM      5  C   UNL     1       5.836   5.982  22.902  0.00  0.00    +0.177 C 
ATOM      6  C   UNL     1       5.397   4.534  22.683  0.00  0.00    +0.179 C 
ENDROOT
BRANCH   5   7
ATOM      7  O   UNL     1       6.203   6.646  21.689  0.00  0.00    -0.386 OA
ATOM      8  H   UNL     1       6.727   7.430  21.932  0.00  0.00    +0.210 HD
ENDBRANCH   5   7
BRANCH   6   9
ATOM      9  O   UNL     1       4.215   4.527  21.868  0.00  0.00    -0.386 OA
ATOM     10  H   UNL     1       4.477   4.301  20.957  0.00  0.00    +0.210 HD
ENDBRANCH   6   9
BRANCH   4  11
ATOM     11  C   UNL     1       8.378   5.996  23.382  0.00  0.00    +0.190 C 
BRANCH  11  12
ATOM     12  O   UNL     1       9.303   5.513  24.331  0.00  0.00    -0.392 OA
ATOM     13  H   UNL     1      10.153   5.383  23.873  0.00  0.00    +0.210 HD
ENDBRANCH  11  12
ENDBRANCH   4  11
BRANCH   2  14
ATOM     14  O   UNL     1       7.552   3.213  24.681  0.00  0.00    -0.337 OA
BRANCH  14  15
ATOM     15  C   UNL     1       7.245   2.137  23.735  0.00  0.00    +0.221 C 
ATOM     16  C   UNL     1       7.543   0.747  24.359  0.00  0.00    +0.340 C 
ATOM     17  O   UNL     1       8.956   0.584  24.576  0.00  0.00    -0.331 OA
ATOM     18  C   UNL     1       9.863   0.847  23.497  0.00  0.00    +0.179 C 
ATOM     19  C   UNL     1       9.543   2.147  22.748  0.00  0.00    +0.177 C 
ATOM     20  C   UNL     1       8.053   2.209  22.424  0.00  0.00    +0.180 C 
BRANCH  19  21
ATOM     21  O   UNL     1      10.315   2.295  21.556  0.00  0.00    -0.386 OA
ATOM     22  H   UNL     1      10.975   3.001  21.700  0.00  0.00    +0.210 HD
ENDBRANCH  19  21
BRANCH  20  23
ATOM     23  O   UNL     1       7.749   3.340  21.612  0.00  0.00    -0.386 OA
ATOM     24  H   UNL     1       8.556   3.607  21.126  0.00  0.00    +0.210 HD
ENDBRANCH  20  23
BRANCH  18  25
ATOM     25  C   UNL     1       9.985  -0.385  22.590  0.00  0.00    +0.190 C 
BRANCH  25  26
ATOM     26  O   UNL     1       9.263  -0.196  21.372  0.00  0.00    -0.392 OA
ATOM     27  H   UNL     1       9.093   0.763  21.274  0.00  0.00    +0.210 HD
ENDBRANCH  25  26
ENDBRANCH  18  25
BRANCH  16  28
ATOM     28  O   UNL     1       6.917  -0.217  23.482  0.00  0.00    -0.453 OA
BRANCH  28  29
ATOM     29  C   UNL     1       6.930  -1.550  23.843  0.00  0.00    +0.214 A 
ATOM     30  C   UNL     1       7.036  -2.622  22.793  0.00  0.00    +0.238 A 
ATOM     31  O   UNL     1       7.678  -2.480  21.753  0.00  0.00    -0.283 OA
ATOM     32  C   UNL     1       6.355  -3.896  23.089  0.00  0.00    +0.109 A 
ATOM     33  C   UNL     1       6.202  -4.190  24.434  0.00  0.00    +0.147 A 
ATOM     34  C   UNL     1       5.584  -5.362  24.858  0.00  0.00    +0.092 A 
ATOM     35  C   UNL     1       5.117  -6.250  23.903  0.00  0.00    +0.124 A 
ATOM     36  C   UNL     1       5.270  -5.982  22.543  0.00  0.00    +0.091 A 
ATOM     37  O   UNL     1       6.692  -3.361  25.394  0.00  0.00    -0.451 OA
ATOM     38  C   UNL     1       5.889  -4.797  22.136  0.00  0.00    +0.135 A 
ATOM     39  C   UNL     1       6.779  -1.992  25.120  0.00  0.00    +0.181 A 
BRANCH  39  40
ATOM     40  C   UNL     1       6.636  -1.246  26.425  0.00  0.00    +0.025 A 
ATOM     41  C   UNL     1       5.318  -0.868  26.803  0.00  0.00    +0.015 A 
ATOM     42  C   UNL     1       5.055   0.076  27.797  0.00  0.00    +0.050 A 
ATOM     43  C   UNL     1       6.115   0.612  28.487  0.00  0.00    +0.158 A 
ATOM     44  C   UNL     1       7.405   0.151  28.246  0.00  0.00    +0.159 A 
ATOM     45  C   UNL     1       7.687  -0.762  27.217  0.00  0.00    +0.060 A 
BRANCH  43  46
ATOM     46  O   UNL     1       5.876   1.604  29.394  0.00  0.00    -0.503 OA
ATOM     47  H   UNL     1       5.161   1.264  29.965  0.00  0.00    +0.292 HD
ENDBRANCH  43  46
BRANCH  44  48
ATOM     48  O   UNL     1       8.403   0.645  29.046  0.00  0.00    -0.503 OA
ATOM     49  H   UNL     1       8.006   0.750  29.931  0.00  0.00    +0.292 HD
ENDBRANCH  44  48
ENDBRANCH  39  40
BRANCH  38  50
ATOM     50  O   UNL     1       6.007  -4.523  20.805  0.00  0.00    -0.506 OA
ATOM     51  H   UNL     1       5.134  -4.325  20.430  0.00  0.00    +0.292 HD
ENDBRANCH  38  50
BRANCH  35  52
ATOM     52  O   UNL     1       4.496  -7.410  24.257  0.00  0.00    -0.507 OA
ATOM     53  H   UNL     1       5.168  -8.098  24.399  0.00  0.00    +0.292 HD
ENDBRANCH  35  52
ENDBRANCH  28  29
ENDBRANCH  16  28
ENDBRANCH  14  15
ENDBRANCH   2  14
BRANCH   1  54
ATOM     54  O   UNL     1       3.885   3.974  24.627  0.00  0.00    -0.338 OA
BRANCH  54  57
ATOM     55  C   UNL     1       1.558   2.229  26.908  0.00  0.00    +0.190 C 
ATOM     56  O   UNL     1       2.124   2.919  25.781  0.00  0.00    -0.339 OA
ATOM     57  C   UNL     1       3.513   3.204  25.784  0.00  0.00    +0.282 C 
ATOM     58  C   UNL     1       3.872   4.029  27.046  0.00  0.00    +0.201 C 
ATOM     59  C   UNL     1       3.424   3.253  28.287  0.00  0.00    +0.179 C 
ATOM     60  C   UNL     1       1.908   2.964  28.221  0.00  0.00    +0.178 C 
BRANCH  58  61
ATOM     61  O   UNL     1       3.203   5.309  27.069  0.00  0.00    -0.384 OA
ATOM     62  H   UNL     1       3.027   5.551  26.141  0.00  0.00    +0.210 HD
ENDBRANCH  58  61
BRANCH  59  63
ATOM     63  O   UNL     1       3.730   3.993  29.472  0.00  0.00    -0.386 OA
ATOM     64  H   UNL     1       4.337   4.710  29.193  0.00  0.00    +0.210 HD
ENDBRANCH  59  63
BRANCH  60  65
ATOM     65  O   UNL     1       1.458   2.217  29.353  0.00  0.00    -0.386 OA
ATOM     66  H   UNL     1       1.749   1.292  29.260  0.00  0.00    +0.210 HD
ENDBRANCH  60  65
BRANCH  55  67
ATOM     67  C   UNL     1       1.920   0.725  27.021  0.00  0.00    +0.266 C 
BRANCH  67  68
ATOM     68  O   UNL     1       0.959  -0.166  27.621  0.00  0.00    -0.459 OA
BRANCH  68  69
ATOM     69  C   UNL     1       1.364  -1.059  28.562  0.00  0.00    +0.332 C 
ATOM     70  O   UNL     1       1.769  -0.806  29.681  0.00  0.00    -0.246 OA
BRANCH  69  72
ATOM     71  C   UNL     1       2.053  -2.900  27.058  0.00  0.00    +0.015 C 
ATOM     72  C   UNL     1       1.203  -2.419  27.972  0.00  0.00    +0.092 C 
BRANCH  71  74
ATOM     73  C   UNL     1       1.688  -5.411  26.956  0.00  0.00    +0.012 A 
ATOM     74  C   UNL     1       1.879  -4.167  26.333  0.00  0.00    -0.021 A 
ATOM     75  C   UNL     1       1.911  -4.119  24.937  0.00  0.00    +0.057 A 
ATOM     76  C   UNL     1       1.723  -5.273  24.189  0.00  0.00    +0.159 A 
ATOM     77  C   UNL     1       1.521  -6.498  24.810  0.00  0.00    +0.158 A 
ATOM     78  C   UNL     1       1.507  -6.580  26.194  0.00  0.00    +0.050 A 
BRANCH  76  79
ATOM     79  O   UNL     1       1.720  -5.181  22.828  0.00  0.00    -0.503 OA
ATOM     80  H   UNL     1       0.801  -4.934  22.610  0.00  0.00    +0.292 HD
ENDBRANCH  76  79
BRANCH  77  81
ATOM     81  O   UNL     1       1.333  -7.592  24.006  0.00  0.00    -0.503 OA
ATOM     82  H   UNL     1       1.744  -8.358  24.441  0.00  0.00    +0.292 HD
ENDBRANCH  77  81
ENDBRANCH  71  74
ENDBRANCH  69  72
ENDBRANCH  68  69
ENDBRANCH  67  68
ENDBRANCH  55  67
ENDBRANCH  54  57
ENDBRANCH   1  54
TORSDOF 29
ENDMDL
MODEL 6
REMARK VINA RESULT:      -6.0      2.389      8.086
REMARK  Name = 
REMARK  29 active torsions:
REMARK  status: ('A' for Active; 'I' for Inactive)
REMARK    1  A    between atoms: C_3  and  O_67
REMARK    2  A    between atoms: C_4  and  O_66
REMARK    3  A    between atoms: C_6  and  C_7
REMARK    4  A    between atoms: C_8  and  C_9
REMARK    5  A    between atoms: C_9  and  O_11
REMARK    6  A    between atoms: O_11  and  C_12
REMARK    7  A    between atoms: C_12  and  C_13
REMARK    8  A    between atoms: C_14  and  O_65
REMARK    9  A    between atoms: C_15  and  O_64
REMARK   10  A    between atoms: C_16  and  O_63
REMARK   11  A    between atoms: C_17  and  O_19
REMARK   12  A    between atoms: O_19  and  C_20
REMARK   13  A    between atoms: C_21  and  O_62
REMARK   14  A    between atoms: C_22  and  O_61
REMARK   15  A    between atoms: C_23  and  C_59
REMARK   16  A    between atoms: C_25  and  O_26
REMARK   17  A    between atoms: O_26  and  C_27
REMARK   18  A    between atoms: C_28  and  O_58
REMARK   19  A    between atoms: C_29  and  O_57
REMARK   20  A    between atoms: C_30  and  C_55
REMARK   21  A    between atoms: C_32  and  O_33
REMARK   22  A    between atoms: O_33  and  C_34
REMARK   23  A    between atoms: C_35  and  C_47
REMARK   24  A    between atoms: C_39  and  O_46
REMARK   25  A    between atoms: C_41  and  O_45
REMARK   26  A    between atoms: C_49  and  O_54
REMARK   27  A    between atoms: C_50  and  O_53
REMARK   28  A    between atoms: C_55  and  O_56
REMARK   29  A    between atoms: C_59  and  O_60
REMARK                            x       y       z     vdW  Elec       q    Type
REMARK                         _______ _______ _______ _____ _____    ______ ____
ROOT
ATOM      1  C   UNL     1       5.730  -0.612  24.888  0.00  0.00    +0.208 C 
ATOM      2  C   UNL     1       5.241   0.728  25.512  0.00  0.00    +0.283 C 
ATOM      3  O   UNL     1       4.850   1.674  24.551  0.00  0.00    -0.341 OA
ATOM      4  C   UNL     1       5.738   1.930  23.471  0.00  0.00    +0.178 C 
ATOM      5  C   UNL     1       6.259   0.686  22.758  0.00  0.00    +0.177 C 
ATOM      6  C   UNL     1       6.736  -0.377  23.748  0.00  0.00    +0.179 C 
ENDROOT
BRANCH   5   7
ATOM      7  O   UNL     1       7.256   1.041  21.795  0.00  0.00    -0.386 OA
ATOM      8  H   UNL     1       8.126   0.856  22.192  0.00  0.00    +0.210 HD
ENDBRANCH   5   7
BRANCH   6   9
ATOM      9  O   UNL     1       7.020  -1.585  23.027  0.00  0.00    -0.386 OA
ATOM     10  H   UNL     1       7.574  -1.356  22.258  0.00  0.00    +0.210 HD
ENDBRANCH   6   9
BRANCH   4  11
ATOM     11  C   UNL     1       6.766   3.016  23.765  0.00  0.00    +0.190 C 
BRANCH  11  12
ATOM     12  O   UNL     1       7.990   2.498  24.237  0.00  0.00    -0.392 OA
ATOM     13  H   UNL     1       7.903   2.370  25.200  0.00  0.00    +0.210 HD
ENDBRANCH  11  12
ENDBRANCH   4  11
BRANCH   2  14
ATOM     14  O   UNL     1       6.175   1.350  26.409  0.00  0.00    -0.337 OA
BRANCH  14  15
ATOM     15  C   UNL     1       5.645   2.610  26.937  0.00  0.00    +0.221 C 
ATOM     16  C   UNL     1       6.793   3.597  27.279  0.00  0.00    +0.340 C 
ATOM     17  O   UNL     1       7.576   3.099  28.378  0.00  0.00    -0.331 OA
ATOM     18  C   UNL     1       6.910   2.681  29.577  0.00  0.00    +0.179 C 
ATOM     19  C   UNL     1       5.679   1.806  29.305  0.00  0.00    +0.177 C 
ATOM     20  C   UNL     1       4.812   2.447  28.224  0.00  0.00    +0.180 C 
BRANCH  19  21
ATOM     21  O   UNL     1       4.907   1.569  30.482  0.00  0.00    -0.386 OA
ATOM     22  H   UNL     1       5.369   1.973  31.242  0.00  0.00    +0.210 HD
ENDBRANCH  19  21
BRANCH  20  23
ATOM     23  O   UNL     1       3.596   1.727  28.046  0.00  0.00    -0.386 OA
ATOM     24  H   UNL     1       3.674   1.165  27.248  0.00  0.00    +0.210 HD
ENDBRANCH  20  23
BRANCH  18  25
ATOM     25  C   UNL     1       6.633   3.889  30.482  0.00  0.00    +0.190 C 
BRANCH  25  26
ATOM     26  O   UNL     1       7.560   4.944  30.222  0.00  0.00    -0.392 OA
ATOM     27  H   UNL     1       7.672   5.009  29.251  0.00  0.00    +0.210 HD
ENDBRANCH  25  26
ENDBRANCH  18  25
BRANCH  16  28
ATOM     28  O   UNL     1       6.159   4.881  27.477  0.00  0.00    -0.453 OA
BRANCH  28  29
ATOM     29  C   UNL     1       5.576   5.508  26.394  0.00  0.00    +0.214 A 
ATOM     30  C   UNL     1       4.098   5.375  26.142  0.00  0.00    +0.238 A 
ATOM     31  O   UNL     1       3.271   5.281  27.047  0.00  0.00    -0.283 OA
ATOM     32  C   UNL     1       3.671   5.405  24.730  0.00  0.00    +0.109 A 
ATOM     33  C   UNL     1       4.509   6.093  23.870  0.00  0.00    +0.147 A 
ATOM     34  C   UNL     1       4.226   6.208  22.513  0.00  0.00    +0.092 A 
ATOM     35  C   UNL     1       3.073   5.617  22.023  0.00  0.00    +0.124 A 
ATOM     36  C   UNL     1       2.207   4.929  22.872  0.00  0.00    +0.091 A 
ATOM     37  O   UNL     1       5.624   6.723  24.330  0.00  0.00    -0.451 OA
ATOM     38  C   UNL     1       2.510   4.820  24.231  0.00  0.00    +0.135 A 
ATOM     39  C   UNL     1       6.270   6.210  25.459  0.00  0.00    +0.181 A 
BRANCH  39  40
ATOM     40  C   UNL     1       7.736   6.553  25.352  0.00  0.00    +0.025 A 
ATOM     41  C   UNL     1       8.326   6.442  24.062  0.00  0.00    +0.015 A 
ATOM     42  C   UNL     1       9.706   6.420  23.859  0.00  0.00    +0.050 A 
ATOM     43  C   UNL     1      10.531   6.581  24.946  0.00  0.00    +0.158 A 
ATOM     44  C   UNL     1       9.985   6.845  26.198  0.00  0.00    +0.159 A 
ATOM     45  C   UNL     1       8.599   6.822  26.424  0.00  0.00    +0.060 A 
BRANCH  43  46
ATOM     46  O   UNL     1      11.880   6.466  24.772  0.00  0.00    -0.503 OA
ATOM     47  H   UNL     1      12.136   5.666  25.269  0.00  0.00    +0.292 HD
ENDBRANCH  43  46
BRANCH  44  48
ATOM     48  O   UNL     1      10.863   7.107  27.218  0.00  0.00    -0.503 OA
ATOM     49  H   UNL     1      11.737   7.213  26.795  0.00  0.00    +0.292 HD
ENDBRANCH  44  48
ENDBRANCH  39  40
BRANCH  38  50
ATOM     50  O   UNL     1       1.678   4.118  25.053  0.00  0.00    -0.506 OA
ATOM     51  H   UNL     1       1.992   3.203  25.138  0.00  0.00    +0.292 HD
ENDBRANCH  38  50
BRANCH  35  52
ATOM     52  O   UNL     1       2.746   5.688  20.702  0.00  0.00    -0.507 OA
ATOM     53  H   UNL     1       1.821   5.409  20.589  0.00  0.00    +0.292 HD
ENDBRANCH  35  52
ENDBRANCH  28  29
ENDBRANCH  16  28
ENDBRANCH  14  15
ENDBRANCH   2  14
BRANCH   1  54
ATOM     54  O   UNL     1       4.646  -1.533  24.571  0.00  0.00    -0.338 OA
BRANCH  54  57
ATOM     55  C   UNL     1       4.052  -5.166  24.898  0.00  0.00    +0.190 C 
ATOM     56  O   UNL     1       4.278  -3.849  24.367  0.00  0.00    -0.339 OA
ATOM     57  C   UNL     1       4.536  -2.787  25.269  0.00  0.00    +0.282 C 
ATOM     58  C   UNL     1       3.371  -2.671  26.283  0.00  0.00    +0.201 C 
ATOM     59  C   UNL     1       3.196  -4.017  26.991  0.00  0.00    +0.179 C 
ATOM     60  C   UNL     1       2.929  -5.135  25.958  0.00  0.00    +0.178 C 
BRANCH  58  61
ATOM     61  O   UNL     1       2.117  -2.352  25.641  0.00  0.00    -0.384 OA
ATOM     62  H   UNL     1       2.296  -1.618  25.024  0.00  0.00    +0.210 HD
ENDBRANCH  58  61
BRANCH  59  63
ATOM     63  O   UNL     1       2.118  -3.949  27.929  0.00  0.00    -0.386 OA
ATOM     64  H   UNL     1       2.430  -3.371  28.655  0.00  0.00    +0.210 HD
ENDBRANCH  59  63
BRANCH  60  65
ATOM     65  O   UNL     1       2.786  -6.413  26.581  0.00  0.00    -0.386 OA
ATOM     66  H   UNL     1       2.403  -7.038  25.940  0.00  0.00    +0.210 HD
ENDBRANCH  60  65
BRANCH  55  67
ATOM     67  C   UNL     1       5.307  -5.882  25.466  0.00  0.00    +0.266 C 
BRANCH  67  68
ATOM     68  O   UNL     1       5.460  -5.961  26.896  0.00  0.00    -0.459 OA
BRANCH  68  69
ATOM     69  C   UNL     1       6.659  -5.658  27.462  0.00  0.00    +0.332 C 
ATOM     70  O   UNL     1       7.236  -6.290  28.328  0.00  0.00    -0.246 OA
BRANCH  69  72
ATOM     71  C   UNL     1       8.281  -4.377  26.102  0.00  0.00    +0.015 C 
ATOM     72  C   UNL     1       7.147  -4.410  26.811  0.00  0.00    +0.092 C 
BRANCH  71  74
ATOM     73  C   UNL     1       9.689  -3.132  24.395  0.00  0.00    +0.012 A 
ATOM     74  C   UNL     1       8.895  -3.160  25.553  0.00  0.00    -0.021 A 
ATOM     75  C   UNL     1       8.669  -1.962  26.235  0.00  0.00    +0.057 A 
ATOM     76  C   UNL     1       9.194  -0.769  25.754  0.00  0.00    +0.159 A 
ATOM     77  C   UNL     1       9.967  -0.746  24.601  0.00  0.00    +0.158 A 
ATOM     78  C   UNL     1      10.225  -1.922  23.915  0.00  0.00    +0.050 A 
BRANCH  76  79
ATOM     79  O   UNL     1       8.920   0.387  26.425  0.00  0.00    -0.503 OA
ATOM     80  H   UNL     1       7.964   0.525  26.275  0.00  0.00    +0.292 HD
ENDBRANCH  76  79
BRANCH  77  81
ATOM     81  O   UNL     1      10.441   0.469  24.182  0.00  0.00    -0.503 OA
ATOM     82  H   UNL     1      10.325   0.521  23.218  0.00  0.00    +0.292 HD
ENDBRANCH  77  81
ENDBRANCH  71  74
ENDBRANCH  69  72
ENDBRANCH  68  69
ENDBRANCH  67  68
ENDBRANCH  55  67
ENDBRANCH  54  57
ENDBRANCH   1  54
TORSDOF 29
ENDMDL
MODEL 7
REMARK VINA RESULT:      -6.0      2.063      7.988
REMARK  Name = 
REMARK  29 active torsions:
REMARK  status: ('A' for Active; 'I' for Inactive)
REMARK    1  A    between atoms: C_3  and  O_67
REMARK    2  A    between atoms: C_4  and  O_66
REMARK    3  A    between atoms: C_6  and  C_7
REMARK    4  A    between atoms: C_8  and  C_9
REMARK    5  A    between atoms: C_9  and  O_11
REMARK    6  A    between atoms: O_11  and  C_12
REMARK    7  A    between atoms: C_12  and  C_13
REMARK    8  A    between atoms: C_14  and  O_65
REMARK    9  A    between atoms: C_15  and  O_64
REMARK   10  A    between atoms: C_16  and  O_63
REMARK   11  A    between atoms: C_17  and  O_19
REMARK   12  A    between atoms: O_19  and  C_20
REMARK   13  A    between atoms: C_21  and  O_62
REMARK   14  A    between atoms: C_22  and  O_61
REMARK   15  A    between atoms: C_23  and  C_59
REMARK   16  A    between atoms: C_25  and  O_26
REMARK   17  A    between atoms: O_26  and  C_27
REMARK   18  A    between atoms: C_28  and  O_58
REMARK   19  A    between atoms: C_29  and  O_57
REMARK   20  A    between atoms: C_30  and  C_55
REMARK   21  A    between atoms: C_32  and  O_33
REMARK   22  A    between atoms: O_33  and  C_34
REMARK   23  A    between atoms: C_35  and  C_47
REMARK   24  A    between atoms: C_39  and  O_46
REMARK   25  A    between atoms: C_41  and  O_45
REMARK   26  A    between atoms: C_49  and  O_54
REMARK   27  A    between atoms: C_50  and  O_53
REMARK   28  A    between atoms: C_55  and  O_56
REMARK   29  A    between atoms: C_59  and  O_60
REMARK                            x       y       z     vdW  Elec       q    Type
REMARK                         _______ _______ _______ _____ _____    ______ ____
ROOT
ATOM      1  C   UNL     1       6.248  -1.738  26.463  0.00  0.00    +0.208 C 
ATOM      2  C   UNL     1       6.224  -0.259  25.973  0.00  0.00    +0.283 C 
ATOM      3  O   UNL     1       6.764  -0.095  24.688  0.00  0.00    -0.341 OA
ATOM      4  C   UNL     1       8.031  -0.680  24.421  0.00  0.00    +0.178 C 
ATOM      5  C   UNL     1       8.163  -2.144  24.829  0.00  0.00    +0.177 C 
ATOM      6  C   UNL     1       7.622  -2.391  26.238  0.00  0.00    +0.179 C 
ENDROOT
BRANCH   5   7
ATOM      7  O   UNL     1       9.511  -2.592  24.660  0.00  0.00    -0.386 OA
ATOM      8  H   UNL     1      10.044  -1.822  24.394  0.00  0.00    +0.210 HD
ENDBRANCH   5   7
BRANCH   6   9
ATOM      9  O   UNL     1       7.590  -3.805  26.479  0.00  0.00    -0.386 OA
ATOM     10  H   UNL     1       6.891  -4.192  25.920  0.00  0.00    +0.210 HD
ENDBRANCH   6   9
BRANCH   4  11
ATOM     11  C   UNL     1       9.209   0.222  24.765  0.00  0.00    +0.190 C 
BRANCH  11  12
ATOM     12  O   UNL     1       9.676   0.035  26.082  0.00  0.00    -0.392 OA
ATOM     13  H   UNL     1      10.582  -0.318  26.026  0.00  0.00    +0.210 HD
ENDBRANCH  11  12
ENDBRANCH   4  11
BRANCH   2  14
ATOM     14  O   UNL     1       6.860   0.678  26.858  0.00  0.00    -0.337 OA
BRANCH  14  15
ATOM     15  C   UNL     1       6.032   1.872  27.049  0.00  0.00    +0.221 C 
ATOM     16  C   UNL     1       6.901   3.092  27.455  0.00  0.00    +0.340 C 
ATOM     17  O   UNL     1       7.473   2.892  28.760  0.00  0.00    -0.331 OA
ATOM     18  C   UNL     1       6.618   2.510  29.846  0.00  0.00    +0.179 C 
ATOM     19  C   UNL     1       5.635   1.393  29.471  0.00  0.00    +0.177 C 
ATOM     20  C   UNL     1       4.957   1.718  28.143  0.00  0.00    +0.180 C 
BRANCH  19  21
ATOM     21  O   UNL     1       4.656   1.164  30.484  0.00  0.00    -0.386 OA
ATOM     22  H   UNL     1       5.030   0.549  31.144  0.00  0.00    +0.210 HD
ENDBRANCH  19  21
BRANCH  20  23
ATOM     23  O   UNL     1       3.943   0.766  27.837  0.00  0.00    -0.386 OA
ATOM     24  H   UNL     1       4.367  -0.090  27.618  0.00  0.00    +0.210 HD
ENDBRANCH  20  23
BRANCH  18  25
ATOM     25  C   UNL     1       5.953   3.749  30.462  0.00  0.00    +0.190 C 
BRANCH  25  26
ATOM     26  O   UNL     1       4.645   3.946  29.925  0.00  0.00    -0.392 OA
ATOM     27  H   UNL     1       4.033   3.351  30.405  0.00  0.00    +0.210 HD
ENDBRANCH  25  26
ENDBRANCH  18  25
BRANCH  16  28
ATOM     28  O   UNL     1       6.048   4.248  27.303  0.00  0.00    -0.453 OA
BRANCH  28  29
ATOM     29  C   UNL     1       5.442   4.470  26.082  0.00  0.00    +0.214 A 
ATOM     30  C   UNL     1       3.943   4.424  25.956  0.00  0.00    +0.238 A 
ATOM     31  O   UNL     1       3.184   4.786  26.854  0.00  0.00    -0.283 OA
ATOM     32  C   UNL     1       3.411   3.955  24.663  0.00  0.00    +0.109 A 
ATOM     33  C   UNL     1       4.239   4.153  23.572  0.00  0.00    +0.147 A 
ATOM     34  C   UNL     1       3.861   3.765  22.290  0.00  0.00    +0.092 A 
ATOM     35  C   UNL     1       2.623   3.170  22.114  0.00  0.00    +0.124 A 
ATOM     36  C   UNL     1       1.766   2.972  23.196  0.00  0.00    +0.091 A 
ATOM     37  O   UNL     1       5.440   4.777  23.706  0.00  0.00    -0.451 OA
ATOM     38  C   UNL     1       2.164   3.363  24.476  0.00  0.00    +0.135 A 
ATOM     39  C   UNL     1       6.123   4.668  24.922  0.00  0.00    +0.181 A 
BRANCH  39  40
ATOM     40  C   UNL     1       7.601   4.769  24.637  0.00  0.00    +0.025 A 
ATOM     41  C   UNL     1       8.199   6.050  24.803  0.00  0.00    +0.015 A 
ATOM     42  C   UNL     1       9.455   6.373  24.291  0.00  0.00    +0.050 A 
ATOM     43  C   UNL     1      10.177   5.391  23.658  0.00  0.00    +0.158 A 
ATOM     44  C   UNL     1       9.687   4.090  23.612  0.00  0.00    +0.159 A 
ATOM     45  C   UNL     1       8.404   3.762  24.081  0.00  0.00    +0.060 A 
BRANCH  43  46
ATOM     46  O   UNL     1      11.364   5.720  23.070  0.00  0.00    -0.503 OA
ATOM     47  H   UNL     1      11.130   6.318  22.334  0.00  0.00    +0.292 HD
ENDBRANCH  43  46
BRANCH  44  48
ATOM     48  O   UNL     1      10.505   3.135  23.066  0.00  0.00    -0.503 OA
ATOM     49  H   UNL     1      10.233   3.056  22.132  0.00  0.00    +0.292 HD
ENDBRANCH  44  48
ENDBRANCH  39  40
BRANCH  38  50
ATOM     50  O   UNL     1       1.337   3.136  25.538  0.00  0.00    -0.506 OA
ATOM     51  H   UNL     1       1.428   3.853  26.186  0.00  0.00    +0.292 HD
ENDBRANCH  38  50
BRANCH  35  52
ATOM     52  O   UNL     1       2.201   2.762  20.884  0.00  0.00    -0.507 OA
ATOM     53  H   UNL     1       1.799   3.516  20.421  0.00  0.00    +0.292 HD
ENDBRANCH  35  52
ENDBRANCH  28  29
ENDBRANCH  16  28
ENDBRANCH  14  15
ENDBRANCH   2  14
BRANCH   1  54
ATOM     54  O   UNL     1       5.112  -2.521  25.995  0.00  0.00    -0.338 OA
BRANCH  54  57
ATOM     55  C   UNL     1       2.605  -5.006  27.093  0.00  0.00    +0.190 C 
ATOM     56  O   UNL     1       3.313  -3.998  26.351  0.00  0.00    -0.339 OA
ATOM     57  C   UNL     1       4.595  -3.595  26.802  0.00  0.00    +0.282 C 
ATOM     58  C   UNL     1       4.497  -3.093  28.264  0.00  0.00    +0.201 C 
ATOM     59  C   UNL     1       3.887  -4.202  29.127  0.00  0.00    +0.179 C 
ATOM     60  C   UNL     1       2.500  -4.605  28.581  0.00  0.00    +0.178 C 
BRANCH  58  61
ATOM     61  O   UNL     1       3.648  -1.931  28.387  0.00  0.00    -0.384 OA
ATOM     62  H   UNL     1       3.627  -1.504  27.510  0.00  0.00    +0.210 HD
ENDBRANCH  58  61
BRANCH  59  63
ATOM     63  O   UNL     1       3.771  -3.767  30.485  0.00  0.00    -0.386 OA
ATOM     64  H   UNL     1       4.538  -4.152  30.958  0.00  0.00    +0.210 HD
ENDBRANCH  59  63
BRANCH  60  65
ATOM     65  O   UNL     1       1.910  -5.657  29.347  0.00  0.00    -0.386 OA
ATOM     66  H   UNL     1       0.945  -5.532  29.368  0.00  0.00    +0.210 HD
ENDBRANCH  60  65
BRANCH  55  67
ATOM     67  C   UNL     1       3.162  -6.448  26.962  0.00  0.00    +0.266 C 
BRANCH  67  68
ATOM     68  O   UNL     1       2.384  -7.418  26.236  0.00  0.00    -0.459 OA
BRANCH  68  69
ATOM     69  C   UNL     1       2.863  -7.931  25.072  0.00  0.00    +0.332 C 
ATOM     70  O   UNL     1       2.436  -8.900  24.471  0.00  0.00    -0.246 OA
BRANCH  69  72
ATOM     71  C   UNL     1       3.902  -6.188  23.656  0.00  0.00    +0.015 C 
ATOM     72  C   UNL     1       4.008  -7.072  24.653  0.00  0.00    +0.092 C 
BRANCH  71  74
ATOM     73  C   UNL     1       6.230  -5.975  22.663  0.00  0.00    +0.012 A 
ATOM     74  C   UNL     1       5.019  -5.412  23.098  0.00  0.00    -0.021 A 
ATOM     75  C   UNL     1       4.856  -4.028  23.002  0.00  0.00    +0.057 A 
ATOM     76  C   UNL     1       5.858  -3.237  22.457  0.00  0.00    +0.159 A 
ATOM     77  C   UNL     1       7.048  -3.801  22.016  0.00  0.00    +0.158 A 
ATOM     78  C   UNL     1       7.247  -5.169  22.119  0.00  0.00    +0.050 A 
BRANCH  76  79
ATOM     79  O   UNL     1       5.647  -1.894  22.343  0.00  0.00    -0.503 OA
ATOM     80  H   UNL     1       5.501  -1.759  21.386  0.00  0.00    +0.292 HD
ENDBRANCH  76  79
BRANCH  77  81
ATOM     81  O   UNL     1       7.987  -2.959  21.480  0.00  0.00    -0.503 OA
ATOM     82  H   UNL     1       7.520  -2.222  21.052  0.00  0.00    +0.292 HD
ENDBRANCH  77  81
ENDBRANCH  71  74
ENDBRANCH  69  72
ENDBRANCH  68  69
ENDBRANCH  67  68
ENDBRANCH  55  67
ENDBRANCH  54  57
ENDBRANCH   1  54
TORSDOF 29
ENDMDL
MODEL 8
REMARK VINA RESULT:      -5.6      1.970      9.465
REMARK  Name = 
REMARK  29 active torsions:
REMARK  status: ('A' for Active; 'I' for Inactive)
REMARK    1  A    between atoms: C_3  and  O_67
REMARK    2  A    between atoms: C_4  and  O_66
REMARK    3  A    between atoms: C_6  and  C_7
REMARK    4  A    between atoms: C_8  and  C_9
REMARK    5  A    between atoms: C_9  and  O_11
REMARK    6  A    between atoms: O_11  and  C_12
REMARK    7  A    between atoms: C_12  and  C_13
REMARK    8  A    between atoms: C_14  and  O_65
REMARK    9  A    between atoms: C_15  and  O_64
REMARK   10  A    between atoms: C_16  and  O_63
REMARK   11  A    between atoms: C_17  and  O_19
REMARK   12  A    between atoms: O_19  and  C_20
REMARK   13  A    between atoms: C_21  and  O_62
REMARK   14  A    between atoms: C_22  and  O_61
REMARK   15  A    between atoms: C_23  and  C_59
REMARK   16  A    between atoms: C_25  and  O_26
REMARK   17  A    between atoms: O_26  and  C_27
REMARK   18  A    between atoms: C_28  and  O_58
REMARK   19  A    between atoms: C_29  and  O_57
REMARK   20  A    between atoms: C_30  and  C_55
REMARK   21  A    between atoms: C_32  and  O_33
REMARK   22  A    between atoms: O_33  and  C_34
REMARK   23  A    between atoms: C_35  and  C_47
REMARK   24  A    between atoms: C_39  and  O_46
REMARK   25  A    between atoms: C_41  and  O_45
REMARK   26  A    between atoms: C_49  and  O_54
REMARK   27  A    between atoms: C_50  and  O_53
REMARK   28  A    between atoms: C_55  and  O_56
REMARK   29  A    between atoms: C_59  and  O_60
REMARK                            x       y       z     vdW  Elec       q    Type
REMARK                         _______ _______ _______ _____ _____    ______ ____
ROOT
ATOM      1  C   UNL     1       3.842  -4.552  24.224  0.00  0.00    +0.208 C 
ATOM      2  C   UNL     1       4.343  -3.970  25.579  0.00  0.00    +0.283 C 
ATOM      3  O   UNL     1       5.118  -4.877  26.317  0.00  0.00    -0.341 OA
ATOM      4  C   UNL     1       4.604  -6.189  26.505  0.00  0.00    +0.178 C 
ATOM      5  C   UNL     1       4.113  -6.877  25.236  0.00  0.00    +0.177 C 
ATOM      6  C   UNL     1       3.231  -5.953  24.395  0.00  0.00    +0.179 C 
ENDROOT
BRANCH   5   7
ATOM      7  O   UNL     1       3.480  -8.121  25.551  0.00  0.00    -0.386 OA
ATOM      8  H   UNL     1       2.799  -7.940  26.224  0.00  0.00    +0.210 HD
ENDBRANCH   5   7
BRANCH   6   9
ATOM      9  O   UNL     1       2.972  -6.583  23.133  0.00  0.00    -0.386 OA
ATOM     10  H   UNL     1       2.225  -6.120  22.710  0.00  0.00    +0.210 HD
ENDBRANCH   6   9
BRANCH   4  11
ATOM     11  C   UNL     1       3.713  -6.330  27.733  0.00  0.00    +0.190 C 
BRANCH  11  12
ATOM     12  O   UNL     1       3.956  -7.518  28.453  0.00  0.00    -0.392 OA
ATOM     13  H   UNL     1       4.493  -7.284  29.232  0.00  0.00    +0.210 HD
ENDBRANCH  11  12
ENDBRANCH   4  11
BRANCH   2  14
ATOM     14  O   UNL     1       3.306  -3.457  26.432  0.00  0.00    -0.337 OA
BRANCH  14  15
ATOM     15  C   UNL     1       3.576  -2.070  26.820  0.00  0.00    +0.221 C 
ATOM     16  C   UNL     1       4.629  -2.007  27.959  0.00  0.00    +0.340 C 
ATOM     17  O   UNL     1       4.096  -2.575  29.169  0.00  0.00    -0.331 OA
ATOM     18  C   UNL     1       2.821  -2.128  29.648  0.00  0.00    +0.179 C 
ATOM     19  C   UNL     1       1.762  -2.039  28.541  0.00  0.00    +0.177 C 
ATOM     20  C   UNL     1       2.336  -1.310  27.328  0.00  0.00    +0.180 C 
BRANCH  19  21
ATOM     21  O   UNL     1       0.564  -1.401  28.981  0.00  0.00    -0.386 OA
ATOM     22  H   UNL     1       0.530  -0.505  28.595  0.00  0.00    +0.210 HD
ENDBRANCH  19  21
BRANCH  20  23
ATOM     23  O   UNL     1       1.335  -1.095  26.338  0.00  0.00    -0.386 OA
ATOM     24  H   UNL     1       1.028  -0.167  26.393  0.00  0.00    +0.210 HD
ENDBRANCH  20  23
BRANCH  18  25
ATOM     25  C   UNL     1       2.980  -0.842  30.469  0.00  0.00    +0.190 C 
BRANCH  25  26
ATOM     26  O   UNL     1       2.955   0.309  29.623  0.00  0.00    -0.392 OA
ATOM     27  H   UNL     1       2.608   0.029  28.750  0.00  0.00    +0.210 HD
ENDBRANCH  25  26
ENDBRANCH  18  25
BRANCH  16  28
ATOM     28  O   UNL     1       5.043  -0.624  28.032  0.00  0.00    -0.453 OA
BRANCH  28  29
ATOM     29  C   UNL     1       5.752  -0.086  26.976  0.00  0.00    +0.214 A 
ATOM     30  C   UNL     1       6.904  -0.840  26.369  0.00  0.00    +0.238 A 
ATOM     31  O   UNL     1       6.934  -2.067  26.291  0.00  0.00    -0.283 OA
ATOM     32  C   UNL     1       8.003  -0.023  25.822  0.00  0.00    +0.109 A 
ATOM     33  C   UNL     1       7.647   1.248  25.402  0.00  0.00    +0.147 A 
ATOM     34  C   UNL     1       8.581   2.124  24.859  0.00  0.00    +0.092 A 
ATOM     35  C   UNL     1       9.895   1.702  24.737  0.00  0.00    +0.124 A 
ATOM     36  C   UNL     1      10.275   0.423  25.141  0.00  0.00    +0.091 A 
ATOM     37  O   UNL     1       6.357   1.673  25.466  0.00  0.00    -0.451 OA
ATOM     38  C   UNL     1       9.324  -0.441  25.689  0.00  0.00    +0.135 A 
ATOM     39  C   UNL     1       5.525   1.153  26.463  0.00  0.00    +0.181 A 
BRANCH  39  40
ATOM     40  C   UNL     1       4.491   2.199  26.799  0.00  0.00    +0.025 A 
ATOM     41  C   UNL     1       3.290   2.179  26.037  0.00  0.00    +0.015 A 
ATOM     42  C   UNL     1       2.390   3.245  26.010  0.00  0.00    +0.050 A 
ATOM     43  C   UNL     1       2.641   4.334  26.809  0.00  0.00    +0.158 A 
ATOM     44  C   UNL     1       3.725   4.320  27.681  0.00  0.00    +0.159 A 
ATOM     45  C   UNL     1       4.664   3.275  27.682  0.00  0.00    +0.060 A 
BRANCH  43  46
ATOM     46  O   UNL     1       1.820   5.420  26.720  0.00  0.00    -0.503 OA
ATOM     47  H   UNL     1       2.351   6.109  26.276  0.00  0.00    +0.292 HD
ENDBRANCH  43  46
BRANCH  44  48
ATOM     48  O   UNL     1       3.855   5.388  28.531  0.00  0.00    -0.503 OA
ATOM     49  H   UNL     1       4.539   5.130  29.178  0.00  0.00    +0.292 HD
ENDBRANCH  44  48
ENDBRANCH  39  40
BRANCH  38  50
ATOM     50  O   UNL     1       9.706  -1.680  26.114  0.00  0.00    -0.506 OA
ATOM     51  H   UNL     1      10.534  -1.939  25.678  0.00  0.00    +0.292 HD
ENDBRANCH  38  50
BRANCH  35  52
ATOM     52  O   UNL     1      10.857   2.518  24.220  0.00  0.00    -0.507 OA
ATOM     53  H   UNL     1      11.655   2.456  24.772  0.00  0.00    +0.292 HD
ENDBRANCH  35  52
ENDBRANCH  28  29
ENDBRANCH  16  28
ENDBRANCH  14  15
ENDBRANCH   2  14
BRANCH   1  54
ATOM     54  O   UNL     1       4.819  -4.436  23.148  0.00  0.00    -0.338 OA
BRANCH  54  57
ATOM     55  C   UNL     1       7.335  -2.002  21.963  0.00  0.00    +0.190 C 
ATOM     56  O   UNL     1       6.202  -2.883  22.044  0.00  0.00    -0.339 OA
ATOM     57  C   UNL     1       5.929  -3.529  23.276  0.00  0.00    +0.282 C 
ATOM     58  C   UNL     1       7.168  -4.346  23.720  0.00  0.00    +0.201 C 
ATOM     59  C   UNL     1       8.376  -3.408  23.799  0.00  0.00    +0.179 C 
ATOM     60  C   UNL     1       8.616  -2.727  22.433  0.00  0.00    +0.178 C 
BRANCH  58  61
ATOM     61  O   UNL     1       7.494  -5.396  22.783  0.00  0.00    -0.384 OA
ATOM     62  H   UNL     1       8.318  -5.127  22.335  0.00  0.00    +0.210 HD
ENDBRANCH  58  61
BRANCH  59  63
ATOM     63  O   UNL     1       9.543  -4.134  24.196  0.00  0.00    -0.386 OA
ATOM     64  H   UNL     1       9.647  -4.855  23.541  0.00  0.00    +0.210 HD
ENDBRANCH  59  63
BRANCH  60  65
ATOM     65  O   UNL     1       9.721  -1.823  22.475  0.00  0.00    -0.386 OA
ATOM     66  H   UNL     1      10.132  -1.864  23.357  0.00  0.00    +0.210 HD
ENDBRANCH  60  65
BRANCH  55  67
ATOM     67  C   UNL     1       7.183  -0.646  22.701  0.00  0.00    +0.266 C 
BRANCH  67  68
ATOM     68  O   UNL     1       6.718   0.492  21.950  0.00  0.00    -0.459 OA
BRANCH  68  69
ATOM     69  C   UNL     1       7.550   1.548  21.743  0.00  0.00    +0.332 C 
ATOM     70  O   UNL     1       8.684   1.508  21.305  0.00  0.00    -0.246 OA
BRANCH  69  72
ATOM     71  C   UNL     1       5.588   2.719  22.694  0.00  0.00    +0.015 C 
ATOM     72  C   UNL     1       6.803   2.777  22.140  0.00  0.00    +0.092 C 
BRANCH  71  74
ATOM     73  C   UNL     1       5.139   4.978  23.763  0.00  0.00    +0.012 A 
ATOM     74  C   UNL     1       4.737   3.883  22.980  0.00  0.00    -0.021 A 
ATOM     75  C   UNL     1       3.451   3.890  22.435  0.00  0.00    +0.057 A 
ATOM     76  C   UNL     1       2.606   4.972  22.640  0.00  0.00    +0.159 A 
ATOM     77  C   UNL     1       3.013   6.058  23.404  0.00  0.00    +0.158 A 
ATOM     78  C   UNL     1       4.276   6.069  23.975  0.00  0.00    +0.050 A 
BRANCH  76  79
ATOM     79  O   UNL     1       1.371   4.961  22.060  0.00  0.00    -0.503 OA
ATOM     80  H   UNL     1       1.099   4.024  22.103  0.00  0.00    +0.292 HD
ENDBRANCH  76  79
BRANCH  77  81
ATOM     81  O   UNL     1       2.128   7.094  23.553  0.00  0.00    -0.503 OA
ATOM     82  H   UNL     1       2.404   7.813  22.960  0.00  0.00    +0.292 HD
ENDBRANCH  77  81
ENDBRANCH  71  74
ENDBRANCH  69  72
ENDBRANCH  68  69
ENDBRANCH  67  68
ENDBRANCH  55  67
ENDBRANCH  54  57
ENDBRANCH   1  54
TORSDOF 29
ENDMDL
MODEL 9
REMARK VINA RESULT:      -5.4      2.465      9.742
REMARK  Name = 
REMARK  29 active torsions:
REMARK  status: ('A' for Active; 'I' for Inactive)
REMARK    1  A    between atoms: C_3  and  O_67
REMARK    2  A    between atoms: C_4  and  O_66
REMARK    3  A    between atoms: C_6  and  C_7
REMARK    4  A    between atoms: C_8  and  C_9
REMARK    5  A    between atoms: C_9  and  O_11
REMARK    6  A    between atoms: O_11  and  C_12
REMARK    7  A    between atoms: C_12  and  C_13
REMARK    8  A    between atoms: C_14  and  O_65
REMARK    9  A    between atoms: C_15  and  O_64
REMARK   10  A    between atoms: C_16  and  O_63
REMARK   11  A    between atoms: C_17  and  O_19
REMARK   12  A    between atoms: O_19  and  C_20
REMARK   13  A    between atoms: C_21  and  O_62
REMARK   14  A    between atoms: C_22  and  O_61
REMARK   15  A    between atoms: C_23  and  C_59
REMARK   16  A    between atoms: C_25  and  O_26
REMARK   17  A    between atoms: O_26  and  C_27
REMARK   18  A    between atoms: C_28  and  O_58
REMARK   19  A    between atoms: C_29  and  O_57
REMARK   20  A    between atoms: C_30  and  C_55
REMARK   21  A    between atoms: C_32  and  O_33
REMARK   22  A    between atoms: O_33  and  C_34
REMARK   23  A    between atoms: C_35  and  C_47
REMARK   24  A    between atoms: C_39  and  O_46
REMARK   25  A    between atoms: C_41  and  O_45
REMARK   26  A    between atoms: C_49  and  O_54
REMARK   27  A    between atoms: C_50  and  O_53
REMARK   28  A    between atoms: C_55  and  O_56
REMARK   29  A    between atoms: C_59  and  O_60
REMARK                            x       y       z     vdW  Elec       q    Type
REMARK                         _______ _______ _______ _____ _____    ______ ____
ROOT
ATOM      1  C   UNL     1       6.084  -3.027  23.629  0.00  0.00    +0.208 C 
ATOM      2  C   UNL     1       5.030  -3.775  24.497  0.00  0.00    +0.283 C 
ATOM      3  O   UNL     1       5.511  -4.978  25.036  0.00  0.00    -0.341 OA
ATOM      4  C   UNL     1       6.157  -5.888  24.155  0.00  0.00    +0.178 C 
ATOM      5  C   UNL     1       7.239  -5.272  23.273  0.00  0.00    +0.177 C 
ATOM      6  C   UNL     1       6.769  -3.969  22.625  0.00  0.00    +0.179 C 
ENDROOT
BRANCH   5   7
ATOM      7  O   UNL     1       7.717  -6.229  22.324  0.00  0.00    -0.386 OA
ATOM      8  H   UNL     1       7.105  -6.221  21.567  0.00  0.00    +0.210 HD
ENDBRANCH   5   7
BRANCH   6   9
ATOM      9  O   UNL     1       7.888  -3.344  21.980  0.00  0.00    -0.386 OA
ATOM     10  H   UNL     1       7.554  -2.839  21.215  0.00  0.00    +0.210 HD
ENDBRANCH   6   9
BRANCH   4  11
ATOM     11  C   UNL     1       5.206  -6.860  23.469  0.00  0.00    +0.190 C 
BRANCH  11  12
ATOM     12  O   UNL     1       4.582  -6.307  22.332  0.00  0.00    -0.392 OA
ATOM     13  H   UNL     1       5.285  -6.039  21.712  0.00  0.00    +0.210 HD
ENDBRANCH  11  12
ENDBRANCH   4  11
BRANCH   2  14
ATOM     14  O   UNL     1       3.783  -4.039  23.833  0.00  0.00    -0.337 OA
BRANCH  14  15
ATOM     15  C   UNL     1       2.645  -3.780  24.720  0.00  0.00    +0.221 C 
ATOM     16  C   UNL     1       2.988  -4.151  26.187  0.00  0.00    +0.340 C 
ATOM     17  O   UNL     1       3.174  -5.571  26.318  0.00  0.00    -0.331 OA
ATOM     18  C   UNL     1       2.169  -6.457  25.806  0.00  0.00    +0.179 C 
ATOM     19  C   UNL     1       1.685  -6.068  24.403  0.00  0.00    +0.177 C 
ATOM     20  C   UNL     1       1.375  -4.574  24.354  0.00  0.00    +0.180 C 
BRANCH  19  21
ATOM     21  O   UNL     1       0.547  -6.824  23.988  0.00  0.00    -0.386 OA
ATOM     22  H   UNL     1      -0.158  -6.713  24.655  0.00  0.00    +0.210 HD
ENDBRANCH  19  21
BRANCH  20  23
ATOM     23  O   UNL     1       0.798  -4.210  23.104  0.00  0.00    -0.386 OA
ATOM     24  H   UNL     1       0.133  -3.507  23.254  0.00  0.00    +0.210 HD
ENDBRANCH  20  23
BRANCH  18  25
ATOM     25  C   UNL     1       1.041  -6.635  26.831  0.00  0.00    +0.190 C 
BRANCH  25  26
ATOM     26  O   UNL     1       0.661  -8.008  26.940  0.00  0.00    -0.392 OA
ATOM     27  H   UNL     1       0.041  -8.086  27.694  0.00  0.00    +0.210 HD
ENDBRANCH  25  26
ENDBRANCH  18  25
BRANCH  16  28
ATOM     28  O   UNL     1       1.940  -3.568  26.993  0.00  0.00    -0.453 OA
BRANCH  28  29
ATOM     29  C   UNL     1       2.284  -2.663  27.978  0.00  0.00    +0.214 A 
ATOM     30  C   UNL     1       1.678  -1.286  27.993  0.00  0.00    +0.238 A 
ATOM     31  O   UNL     1       0.529  -1.056  27.618  0.00  0.00    -0.283 OA
ATOM     32  C   UNL     1       2.528  -0.205  28.527  0.00  0.00    +0.109 A 
ATOM     33  C   UNL     1       3.488  -0.601  29.443  0.00  0.00    +0.147 A 
ATOM     34  C   UNL     1       4.353   0.315  30.033  0.00  0.00    +0.092 A 
ATOM     35  C   UNL     1       4.240   1.652  29.690  0.00  0.00    +0.124 A 
ATOM     36  C   UNL     1       3.272   2.077  28.780  0.00  0.00    +0.091 A 
ATOM     37  O   UNL     1       3.592  -1.899  29.834  0.00  0.00    -0.451 OA
ATOM     38  C   UNL     1       2.415   1.142  28.194  0.00  0.00    +0.135 A 
ATOM     39  C   UNL     1       3.217  -2.904  28.937  0.00  0.00    +0.181 A 
BRANCH  39  40
ATOM     40  C   UNL     1       4.039  -4.132  29.244  0.00  0.00    +0.025 A 
ATOM     41  C   UNL     1       5.348  -4.181  28.688  0.00  0.00    +0.015 A 
ATOM     42  C   UNL     1       6.099  -5.355  28.618  0.00  0.00    +0.050 A 
ATOM     43  C   UNL     1       5.579  -6.499  29.173  0.00  0.00    +0.158 A 
ATOM     44  C   UNL     1       4.370  -6.451  29.859  0.00  0.00    +0.159 A 
ATOM     45  C   UNL     1       3.582  -5.288  29.895  0.00  0.00    +0.060 A 
BRANCH  43  46
ATOM     46  O   UNL     1       6.263  -7.672  29.027  0.00  0.00    -0.503 OA
ATOM     47  H   UNL     1       6.969  -7.479  28.381  0.00  0.00    +0.292 HD
ENDBRANCH  43  46
BRANCH  44  48
ATOM     48  O   UNL     1       3.962  -7.600  30.485  0.00  0.00    -0.503 OA
ATOM     49  H   UNL     1       3.416  -8.078  29.832  0.00  0.00    +0.292 HD
ENDBRANCH  44  48
ENDBRANCH  39  40
BRANCH  38  50
ATOM     50  O   UNL     1       1.492   1.557  27.278  0.00  0.00    -0.506 OA
ATOM     51  H   UNL     1       1.922   1.712  26.423  0.00  0.00    +0.292 HD
ENDBRANCH  38  50
BRANCH  35  52
ATOM     52  O   UNL     1       5.064   2.595  30.228  0.00  0.00    -0.507 OA
ATOM     53  H   UNL     1       5.678   2.908  29.542  0.00  0.00    +0.292 HD
ENDBRANCH  35  52
ENDBRANCH  28  29
ENDBRANCH  16  28
ENDBRANCH  14  15
ENDBRANCH   2  14
BRANCH   1  54
ATOM     54  O   UNL     1       6.992  -2.196  24.410  0.00  0.00    -0.338 OA
BRANCH  54  57
ATOM     55  C   UNL     1       7.627   0.377  21.833  0.00  0.00    +0.190 C 
ATOM     56  O   UNL     1       7.198  -0.814  22.515  0.00  0.00    -0.339 OA
ATOM     57  C   UNL     1       7.396  -0.906  23.915  0.00  0.00    +0.282 C 
ATOM     58  C   UNL     1       8.899  -0.716  24.241  0.00  0.00    +0.201 C 
ATOM     59  C   UNL     1       9.364   0.624  23.665  0.00  0.00    +0.179 C 
ATOM     60  C   UNL     1       9.113   0.669  22.141  0.00  0.00    +0.178 C 
BRANCH  58  61
ATOM     61  O   UNL     1       9.720  -1.749  23.654  0.00  0.00    -0.384 OA
ATOM     62  H   UNL     1      10.610  -1.367  23.535  0.00  0.00    +0.210 HD
ENDBRANCH  58  61
BRANCH  59  63
ATOM     63  O   UNL     1      10.753   0.827  23.938  0.00  0.00    -0.386 OA
ATOM     64  H   UNL     1      10.806   1.092  24.879  0.00  0.00    +0.210 HD
ENDBRANCH  59  63
BRANCH  60  65
ATOM     65  O   UNL     1       9.511   1.917  21.571  0.00  0.00    -0.386 OA
ATOM     66  H   UNL     1       9.614   2.573  22.284  0.00  0.00    +0.210 HD
ENDBRANCH  60  65
BRANCH  55  67
ATOM     67  C   UNL     1       6.766   1.642  22.091  0.00  0.00    +0.266 C 
BRANCH  67  68
ATOM     68  O   UNL     1       6.755   2.202  23.419  0.00  0.00    -0.459 OA
BRANCH  68  69
ATOM     69  C   UNL     1       6.159   3.404  23.638  0.00  0.00    +0.332 C 
ATOM     70  O   UNL     1       4.969   3.649  23.580  0.00  0.00    -0.246 OA
BRANCH  69  72
ATOM     71  C   UNL     1       8.532   4.089  23.787  0.00  0.00    +0.015 C 
ATOM     72  C   UNL     1       7.240   4.371  23.984  0.00  0.00    +0.092 C 
BRANCH  71  74
ATOM     73  C   UNL     1       9.530   5.990  25.144  0.00  0.00    +0.012 A 
ATOM     74  C   UNL     1       9.653   4.931  24.230  0.00  0.00    -0.021 A 
ATOM     75  C   UNL     1      10.916   4.651  23.700  0.00  0.00    +0.057 A 
ATOM     76  C   UNL     1      12.024   5.386  24.099  0.00  0.00    +0.159 A 
ATOM     77  C   UNL     1      11.898   6.424  25.013  0.00  0.00    +0.158 A 
ATOM     78  C   UNL     1      10.655   6.738  25.539  0.00  0.00    +0.050 A 
BRANCH  76  79
ATOM     79  O   UNL     1      13.247   5.060  23.590  0.00  0.00    -0.503 OA
ATOM     80  H   UNL     1      13.440   4.187  23.984  0.00  0.00    +0.292 HD
ENDBRANCH  76  79
BRANCH  77  81
ATOM     81  O   UNL     1      13.038   7.097  25.366  0.00  0.00    -0.503 OA
ATOM     82  H   UNL     1      13.612   6.482  25.853  0.00  0.00    +0.292 HD
ENDBRANCH  77  81
ENDBRANCH  71  74
ENDBRANCH  69  72
ENDBRANCH  68  69
ENDBRANCH  67  68
ENDBRANCH  55  67
ENDBRANCH  54  57
ENDBRANCH   1  54
TORSDOF 29
ENDMDL
