MODEL 1
REMARK VINA RESULT:      -7.3      0.000      0.000
REMARK  Name = 
REMARK  8 active torsions:
REMARK  status: ('A' for Active; 'I' for Inactive)
REMARK    1  A    between atoms: C_3  and  O_26
REMARK    2  A    between atoms: C_4  and  O_25
REMARK    3  A    between atoms: C_6  and  C_7
REMARK    4  A    between atoms: C_8  and  O_24
REMARK    5  A    between atoms: C_14  and  S_20
REMARK    6  A    between atoms: C_15  and  O_19
REMARK    7  A    between atoms: C_17  and  O_18
REMARK    8  A    between atoms: S_20  and  O_23
REMARK                            x       y       z     vdW  Elec       q    Type
REMARK                         _______ _______ _______ _____ _____    ______ ____
ROOT
ATOM      1  C   UNL     1       6.314  -3.649  23.362  0.00  0.00    +0.181 A 
ATOM      2  O   UNL     1       6.358  -4.090  24.682  0.00  0.00    -0.449 OA
ATOM      3  C   UNL     1       5.648  -5.207  25.066  0.00  0.00    +0.174 A 
ATOM      4  C   UNL     1       5.757  -5.662  26.395  0.00  0.00    +0.201 A 
ATOM      5  C   UNL     1       5.040  -6.790  26.817  0.00  0.00    +0.151 A 
ATOM      6  C   UNL     1       4.246  -7.490  25.914  0.00  0.00    +0.093 A 
ATOM      7  C   UNL     1       4.144  -7.056  24.597  0.00  0.00    +0.135 A 
ATOM      8  C   UNL     1       4.831  -5.908  24.169  0.00  0.00    +0.111 A 
ATOM      9  C   UNL     1       4.740  -5.427  22.772  0.00  0.00    +0.238 A 
ATOM     10  O   UNL     1       4.016  -5.946  21.931  0.00  0.00    -0.283 OA
ATOM     11  C   UNL     1       5.602  -4.272  22.401  0.00  0.00    +0.208 A 
ENDROOT
BRANCH   1  13
ATOM     12  C   UNL     1       6.688  -1.135  23.298  0.00  0.00    +0.015 A 
ATOM     13  C   UNL     1       7.165  -2.449  23.094  0.00  0.00    +0.025 A 
ATOM     14  C   UNL     1       8.474  -2.592  22.609  0.00  0.00    +0.060 A 
ATOM     15  C   UNL     1       9.216  -1.469  22.250  0.00  0.00    +0.159 A 
ATOM     16  C   UNL     1       8.685  -0.188  22.363  0.00  0.00    +0.158 A 
ATOM     17  C   UNL     1       7.425  -0.009  22.906  0.00  0.00    +0.050 A 
BRANCH  15  18
ATOM     18  O   UNL     1      10.478  -1.633  21.753  0.00  0.00    -0.503 OA
ATOM     19  H   UNL     1      10.749  -2.524  22.059  0.00  0.00    +0.292 HD
ENDBRANCH  15  18
BRANCH  16  20
ATOM     20  O   UNL     1       9.441   0.862  21.926  0.00  0.00    -0.503 OA
ATOM     21  H   UNL     1       9.241   1.016  20.986  0.00  0.00    +0.292 HD
ENDBRANCH  16  20
ENDBRANCH   1  13
BRANCH   4  22
ATOM     22  S   UNL     1       6.833  -4.844  27.528  0.00  0.00    +0.117 S 
ATOM     23  O   UNL     1       8.196  -5.115  27.103  0.00  0.00    -0.142 OA
ATOM     24  O   UNL     1       6.415  -5.109  28.883  0.00  0.00    -0.142 OA
BRANCH  22  25
ATOM     25  O   UNL     1       6.555  -3.278  27.263  0.00  0.00    -0.250 OA
ATOM     26  H   UNL     1       5.673  -3.190  26.842  0.00  0.00    +0.245 HD
ENDBRANCH  22  25
ENDBRANCH   4  22
BRANCH   5  27
ATOM     27  O   UNL     1       5.045  -7.313  28.080  0.00  0.00    -0.505 OA
ATOM     28  H   UNL     1       5.699  -8.041  28.169  0.00  0.00    +0.292 HD
ENDBRANCH   5  27
BRANCH   7  29
ATOM     29  O   UNL     1       3.372  -7.780  23.737  0.00  0.00    -0.506 OA
ATOM     30  H   UNL     1       3.540  -7.523  22.817  0.00  0.00    +0.292 HD
ENDBRANCH   7  29
BRANCH  11  31
ATOM     31  O   UNL     1       5.623  -3.942  21.057  0.00  0.00    -0.501 OA
ATOM     32  H   UNL     1       5.741  -4.760  20.546  0.00  0.00    +0.292 HD
ENDBRANCH  11  31
TORSDOF 8
ENDMDL
MODEL 2
REMARK VINA RESULT:      -6.9      3.313      4.043
REMARK  Name = 
REMARK  8 active torsions:
REMARK  status: ('A' for Active; 'I' for Inactive)
REMARK    1  A    between atoms: C_3  and  O_26
REMARK    2  A    between atoms: C_4  and  O_25
REMARK    3  A    between atoms: C_6  and  C_7
REMARK    4  A    between atoms: C_8  and  O_24
REMARK    5  A    between atoms: C_14  and  S_20
REMARK    6  A    between atoms: C_15  and  O_19
REMARK    7  A    between atoms: C_17  and  O_18
REMARK    8  A    between atoms: S_20  and  O_23
REMARK                            x       y       z     vdW  Elec       q    Type
REMARK                         _______ _______ _______ _____ _____    ______ ____
ROOT
ATOM      1  C   UNL     1       8.393  -1.973  24.601  0.00  0.00    +0.181 A 
ATOM      2  O   UNL     1       7.241  -1.763  25.355  0.00  0.00    -0.449 OA
ATOM      3  C   UNL     1       6.783  -2.742  26.211  0.00  0.00    +0.174 A 
ATOM      4  C   UNL     1       5.647  -2.480  27.002  0.00  0.00    +0.201 A 
ATOM      5  C   UNL     1       5.153  -3.458  27.874  0.00  0.00    +0.151 A 
ATOM      6  C   UNL     1       5.805  -4.681  27.993  0.00  0.00    +0.093 A 
ATOM      7  C   UNL     1       6.935  -4.943  27.226  0.00  0.00    +0.135 A 
ATOM      8  C   UNL     1       7.423  -3.983  26.324  0.00  0.00    +0.111 A 
ATOM      9  C   UNL     1       8.624  -4.238  25.497  0.00  0.00    +0.238 A 
ATOM     10  O   UNL     1       9.220  -5.308  25.493  0.00  0.00    -0.283 OA
ATOM     11  C   UNL     1       9.119  -3.108  24.664  0.00  0.00    +0.208 A 
ENDROOT
BRANCH   1  13
ATOM     12  C   UNL     1       8.799  -0.884  22.340  0.00  0.00    +0.015 A 
ATOM     13  C   UNL     1       8.782  -0.806  23.750  0.00  0.00    +0.025 A 
ATOM     14  C   UNL     1       9.163   0.412  24.333  0.00  0.00    +0.060 A 
ATOM     15  C   UNL     1       9.638   1.453  23.538  0.00  0.00    +0.159 A 
ATOM     16  C   UNL     1       9.743   1.315  22.157  0.00  0.00    +0.158 A 
ATOM     17  C   UNL     1       9.306   0.153  21.545  0.00  0.00    +0.050 A 
BRANCH  15  18
ATOM     18  O   UNL     1      10.030   2.620  24.130  0.00  0.00    -0.503 OA
ATOM     19  H   UNL     1       9.318   2.822  24.772  0.00  0.00    +0.292 HD
ENDBRANCH  15  18
BRANCH  16  20
ATOM     20  O   UNL     1      10.282   2.350  21.447  0.00  0.00    -0.503 OA
ATOM     21  H   UNL     1      11.046   2.014  20.946  0.00  0.00    +0.292 HD
ENDBRANCH  16  20
ENDBRANCH   1  13
BRANCH   4  22
ATOM     22  S   UNL     1       4.863  -0.901  26.935  0.00  0.00    +0.117 S 
ATOM     23  O   UNL     1       5.745   0.048  27.595  0.00  0.00    -0.142 OA
ATOM     24  O   UNL     1       3.481  -1.020  27.327  0.00  0.00    -0.142 OA
BRANCH  22  25
ATOM     25  O   UNL     1       4.863  -0.535  25.365  0.00  0.00    -0.250 OA
ATOM     26  H   UNL     1       3.932  -0.491  25.060  0.00  0.00    +0.245 HD
ENDBRANCH  22  25
ENDBRANCH   4  22
BRANCH   5  27
ATOM     27  O   UNL     1       4.050  -3.332  28.673  0.00  0.00    -0.505 OA
ATOM     28  H   UNL     1       3.658  -2.433  28.613  0.00  0.00    +0.292 HD
ENDBRANCH   5  27
BRANCH   7  29
ATOM     29  O   UNL     1       7.559  -6.145  27.385  0.00  0.00    -0.506 OA
ATOM     30  H   UNL     1       7.233  -6.794  26.742  0.00  0.00    +0.292 HD
ENDBRANCH   7  29
BRANCH  11  31
ATOM     31  O   UNL     1      10.330  -3.312  24.027  0.00  0.00    -0.501 OA
ATOM     32  H   UNL     1      11.037  -3.002  24.616  0.00  0.00    +0.292 HD
ENDBRANCH  11  31
TORSDOF 8
ENDMDL
MODEL 3
REMARK VINA RESULT:      -6.7      1.610      2.081
REMARK  Name = 
REMARK  8 active torsions:
REMARK  status: ('A' for Active; 'I' for Inactive)
REMARK    1  A    between atoms: C_3  and  O_26
REMARK    2  A    between atoms: C_4  and  O_25
REMARK    3  A    between atoms: C_6  and  C_7
REMARK    4  A    between atoms: C_8  and  O_24
REMARK    5  A    between atoms: C_14  and  S_20
REMARK    6  A    between atoms: C_15  and  O_19
REMARK    7  A    between atoms: C_17  and  O_18
REMARK    8  A    between atoms: S_20  and  O_23
REMARK                            x       y       z     vdW  Elec       q    Type
REMARK                         _______ _______ _______ _____ _____    ______ ____
ROOT
ATOM      1  C   UNL     1       7.167  -3.255  23.968  0.00  0.00    +0.181 A 
ATOM      2  O   UNL     1       6.936  -3.950  25.153  0.00  0.00    -0.449 OA
ATOM      3  C   UNL     1       6.045  -5.001  25.179  0.00  0.00    +0.174 A 
ATOM      4  C   UNL     1       5.875  -5.721  26.377  0.00  0.00    +0.201 A 
ATOM      5  C   UNL     1       4.970  -6.788  26.438  0.00  0.00    +0.151 A 
ATOM      6  C   UNL     1       4.263  -7.169  25.301  0.00  0.00    +0.093 A 
ATOM      7  C   UNL     1       4.436  -6.473  24.111  0.00  0.00    +0.135 A 
ATOM      8  C   UNL     1       5.315  -5.380  24.044  0.00  0.00    +0.111 A 
ATOM      9  C   UNL     1       5.518  -4.623  22.788  0.00  0.00    +0.238 A 
ATOM     10  O   UNL     1       4.890  -4.850  21.762  0.00  0.00    -0.283 OA
ATOM     11  C   UNL     1       6.560  -3.561  22.804  0.00  0.00    +0.208 A 
ENDROOT
BRANCH   1  13
ATOM     12  C   UNL     1       9.451  -2.255  23.467  0.00  0.00    +0.015 A 
ATOM     13  C   UNL     1       8.186  -2.167  24.092  0.00  0.00    +0.025 A 
ATOM     14  C   UNL     1       7.923  -1.020  24.855  0.00  0.00    +0.060 A 
ATOM     15  C   UNL     1       8.921  -0.070  25.062  0.00  0.00    +0.159 A 
ATOM     16  C   UNL     1      10.193  -0.230  24.520  0.00  0.00    +0.158 A 
ATOM     17  C   UNL     1      10.462  -1.313  23.703  0.00  0.00    +0.050 A 
BRANCH  15  18
ATOM     18  O   UNL     1       8.651   1.026  25.833  0.00  0.00    -0.503 OA
ATOM     19  H   UNL     1       8.659   1.777  25.205  0.00  0.00    +0.292 HD
ENDBRANCH  15  18
BRANCH  16  20
ATOM     20  O   UNL     1      11.142   0.704  24.822  0.00  0.00    -0.503 OA
ATOM     21  H   UNL     1      10.861   1.559  24.451  0.00  0.00    +0.292 HD
ENDBRANCH  16  20
ENDBRANCH   1  13
BRANCH   4  22
ATOM     22  S   UNL     1       6.833  -5.314  27.802  0.00  0.00    +0.117 S 
ATOM     23  O   UNL     1       6.925  -6.514  28.618  0.00  0.00    -0.142 OA
ATOM     24  O   UNL     1       6.371  -4.071  28.368  0.00  0.00    -0.142 OA
BRANCH  22  25
ATOM     25  O   UNL     1       8.304  -5.028  27.209  0.00  0.00    -0.250 OA
ATOM     26  H   UNL     1       8.677  -5.877  26.889  0.00  0.00    +0.245 HD
ENDBRANCH  22  25
ENDBRANCH   4  22
BRANCH   5  27
ATOM     27  O   UNL     1       4.700  -7.546  27.544  0.00  0.00    -0.505 OA
ATOM     28  H   UNL     1       5.327  -7.355  28.276  0.00  0.00    +0.292 HD
ENDBRANCH   5  27
BRANCH   7  29
ATOM     29  O   UNL     1       3.740  -6.888  23.013  0.00  0.00    -0.506 OA
ATOM     30  H   UNL     1       2.871  -6.457  22.968  0.00  0.00    +0.292 HD
ENDBRANCH   7  29
BRANCH  11  31
ATOM     31  O   UNL     1       6.846  -2.978  21.581  0.00  0.00    -0.501 OA
ATOM     32  H   UNL     1       6.848  -2.014  21.700  0.00  0.00    +0.292 HD
ENDBRANCH  11  31
TORSDOF 8
ENDMDL
MODEL 4
REMARK VINA RESULT:      -6.6      3.022      7.329
REMARK  Name = 
REMARK  8 active torsions:
REMARK  status: ('A' for Active; 'I' for Inactive)
REMARK    1  A    between atoms: C_3  and  O_26
REMARK    2  A    between atoms: C_4  and  O_25
REMARK    3  A    between atoms: C_6  and  C_7
REMARK    4  A    between atoms: C_8  and  O_24
REMARK    5  A    between atoms: C_14  and  S_20
REMARK    6  A    between atoms: C_15  and  O_19
REMARK    7  A    between atoms: C_17  and  O_18
REMARK    8  A    between atoms: S_20  and  O_23
REMARK                            x       y       z     vdW  Elec       q    Type
REMARK                         _______ _______ _______ _____ _____    ______ ____
ROOT
ATOM      1  C   UNL     1       7.884  -1.708  24.110  0.00  0.00    +0.181 A 
ATOM      2  O   UNL     1       7.715  -0.594  24.928  0.00  0.00    -0.449 OA
ATOM      3  C   UNL     1       8.124   0.651  24.501  0.00  0.00    +0.174 A 
ATOM      4  C   UNL     1       7.889   1.767  25.327  0.00  0.00    +0.201 A 
ATOM      5  C   UNL     1       8.302   3.044  24.924  0.00  0.00    +0.151 A 
ATOM      6  C   UNL     1       8.912   3.222  23.686  0.00  0.00    +0.093 A 
ATOM      7  C   UNL     1       9.135   2.127  22.859  0.00  0.00    +0.135 A 
ATOM      8  C   UNL     1       8.756   0.837  23.264  0.00  0.00    +0.111 A 
ATOM      9  C   UNL     1       8.981  -0.344  22.401  0.00  0.00    +0.238 A 
ATOM     10  O   UNL     1       9.567  -0.286  21.327  0.00  0.00    -0.283 OA
ATOM     11  C   UNL     1       8.434  -1.642  22.880  0.00  0.00    +0.208 A 
ENDROOT
BRANCH   1  13
ATOM     12  C   UNL     1       5.980  -3.294  24.680  0.00  0.00    +0.015 A 
ATOM     13  C   UNL     1       7.357  -2.978  24.698  0.00  0.00    +0.025 A 
ATOM     14  C   UNL     1       8.222  -3.900  25.308  0.00  0.00    +0.060 A 
ATOM     15  C   UNL     1       7.708  -5.021  25.957  0.00  0.00    +0.159 A 
ATOM     16  C   UNL     1       6.338  -5.255  26.015  0.00  0.00    +0.158 A 
ATOM     17  C   UNL     1       5.464  -4.405  25.360  0.00  0.00    +0.050 A 
BRANCH  15  18
ATOM     18  O   UNL     1       8.567  -5.889  26.569  0.00  0.00    -0.503 OA
ATOM     19  H   UNL     1       8.195  -6.012  27.467  0.00  0.00    +0.292 HD
ENDBRANCH  15  18
BRANCH  16  20
ATOM     20  O   UNL     1       5.900  -6.336  26.728  0.00  0.00    -0.503 OA
ATOM     21  H   UNL     1       5.196  -6.775  26.219  0.00  0.00    +0.292 HD
ENDBRANCH  16  20
ENDBRANCH   1  13
BRANCH   4  22
ATOM     22  S   UNL     1       7.031   1.576  26.857  0.00  0.00    +0.117 S 
ATOM     23  O   UNL     1       5.700   1.084  26.547  0.00  0.00    -0.142 OA
ATOM     24  O   UNL     1       7.214   2.750  27.674  0.00  0.00    -0.142 OA
BRANCH  22  25
ATOM     25  O   UNL     1       7.820   0.379  27.595  0.00  0.00    -0.250 OA
ATOM     26  H   UNL     1       8.256   0.745  28.394  0.00  0.00    +0.245 HD
ENDBRANCH  22  25
ENDBRANCH   4  22
BRANCH   5  27
ATOM     27  O   UNL     1       8.152   4.197  25.644  0.00  0.00    -0.505 OA
ATOM     28  H   UNL     1       9.009   4.513  26.006  0.00  0.00    +0.292 HD
ENDBRANCH   5  27
BRANCH   7  29
ATOM     29  O   UNL     1       9.717   2.344  21.644  0.00  0.00    -0.506 OA
ATOM     30  H   UNL     1      10.326   1.624  21.417  0.00  0.00    +0.292 HD
ENDBRANCH   7  29
BRANCH  11  31
ATOM     31  O   UNL     1       8.513  -2.698  21.988  0.00  0.00    -0.501 OA
ATOM     32  H   UNL     1       9.189  -2.483  21.325  0.00  0.00    +0.292 HD
ENDBRANCH  11  31
TORSDOF 8
ENDMDL
MODEL 5
REMARK VINA RESULT:      -6.6      1.573      3.792
REMARK  Name = 
REMARK  8 active torsions:
REMARK  status: ('A' for Active; 'I' for Inactive)
REMARK    1  A    between atoms: C_3  and  O_26
REMARK    2  A    between atoms: C_4  and  O_25
REMARK    3  A    between atoms: C_6  and  C_7
REMARK    4  A    between atoms: C_8  and  O_24
REMARK    5  A    between atoms: C_14  and  S_20
REMARK    6  A    between atoms: C_15  and  O_19
REMARK    7  A    between atoms: C_17  and  O_18
REMARK    8  A    between atoms: S_20  and  O_23
REMARK                            x       y       z     vdW  Elec       q    Type
REMARK                         _______ _______ _______ _____ _____    ______ ____
ROOT
ATOM      1  C   UNL     1       7.360  -3.387  24.764  0.00  0.00    +0.181 A 
ATOM      2  O   UNL     1       6.416  -4.187  24.125  0.00  0.00    -0.449 OA
ATOM      3  C   UNL     1       5.819  -5.230  24.799  0.00  0.00    +0.174 A 
ATOM      4  C   UNL     1       4.826  -5.986  24.145  0.00  0.00    +0.201 A 
ATOM      5  C   UNL     1       4.208  -7.058  24.802  0.00  0.00    +0.151 A 
ATOM      6  C   UNL     1       4.542  -7.357  26.119  0.00  0.00    +0.093 A 
ATOM      7  C   UNL     1       5.511  -6.607  26.776  0.00  0.00    +0.135 A 
ATOM      8  C   UNL     1       6.162  -5.550  26.119  0.00  0.00    +0.111 A 
ATOM      9  C   UNL     1       7.196  -4.736  26.798  0.00  0.00    +0.238 A 
ATOM     10  O   UNL     1       7.595  -4.971  27.932  0.00  0.00    -0.283 OA
ATOM     11  C   UNL     1       7.734  -3.569  26.047  0.00  0.00    +0.208 A 
ENDROOT
BRANCH   1  13
ATOM     12  C   UNL     1       7.203  -1.048  23.779  0.00  0.00    +0.015 A 
ATOM     13  C   UNL     1       7.889  -2.276  23.914  0.00  0.00    +0.025 A 
ATOM     14  C   UNL     1       9.088  -2.426  23.201  0.00  0.00    +0.060 A 
ATOM     15  C   UNL     1       9.510  -1.432  22.319  0.00  0.00    +0.159 A 
ATOM     16  C   UNL     1       8.762  -0.275  22.127  0.00  0.00    +0.158 A 
ATOM     17  C   UNL     1       7.613  -0.064  22.869  0.00  0.00    +0.050 A 
BRANCH  15  18
ATOM     18  O   UNL     1      10.666  -1.613  21.614  0.00  0.00    -0.503 OA
ATOM     19  H   UNL     1      10.810  -2.582  21.621  0.00  0.00    +0.292 HD
ENDBRANCH  15  18
BRANCH  16  20
ATOM     20  O   UNL     1       9.198   0.624  21.196  0.00  0.00    -0.503 OA
ATOM     21  H   UNL     1      10.087   0.356  20.902  0.00  0.00    +0.292 HD
ENDBRANCH  16  20
ENDBRANCH   1  13
BRANCH   4  22
ATOM     22  S   UNL     1       4.320  -5.562  22.509  0.00  0.00    +0.117 S 
ATOM     23  O   UNL     1       2.928  -5.957  22.371  0.00  0.00    -0.142 OA
ATOM     24  O   UNL     1       5.310  -6.001  21.558  0.00  0.00    -0.142 OA
BRANCH  22  25
ATOM     25  O   UNL     1       4.360  -3.950  22.499  0.00  0.00    -0.250 OA
ATOM     26  H   UNL     1       4.611  -3.643  23.396  0.00  0.00    +0.245 HD
ENDBRANCH  22  25
ENDBRANCH   4  22
BRANCH   5  27
ATOM     27  O   UNL     1       3.251  -7.877  24.268  0.00  0.00    -0.505 OA
ATOM     28  H   UNL     1       3.650  -8.651  23.812  0.00  0.00    +0.292 HD
ENDBRANCH   5  27
BRANCH   7  29
ATOM     29  O   UNL     1       5.798  -6.918  28.073  0.00  0.00    -0.506 OA
ATOM     30  H   UNL     1       4.991  -7.140  28.564  0.00  0.00    +0.292 HD
ENDBRANCH   7  29
BRANCH  11  31
ATOM     31  O   UNL     1       8.575  -2.730  26.756  0.00  0.00    -0.501 OA
ATOM     32  H   UNL     1       8.424  -1.821  26.449  0.00  0.00    +0.292 HD
ENDBRANCH  11  31
TORSDOF 8
ENDMDL
MODEL 6
REMARK VINA RESULT:      -6.6      2.041      4.172
REMARK  Name = 
REMARK  8 active torsions:
REMARK  status: ('A' for Active; 'I' for Inactive)
REMARK    1  A    between atoms: C_3  and  O_26
REMARK    2  A    between atoms: C_4  and  O_25
REMARK    3  A    between atoms: C_6  and  C_7
REMARK    4  A    between atoms: C_8  and  O_24
REMARK    5  A    between atoms: C_14  and  S_20
REMARK    6  A    between atoms: C_15  and  O_19
REMARK    7  A    between atoms: C_17  and  O_18
REMARK    8  A    between atoms: S_20  and  O_23
REMARK                            x       y       z     vdW  Elec       q    Type
REMARK                         _______ _______ _______ _____ _____    ______ ____
ROOT
ATOM      1  C   UNL     1       7.197  -1.813  24.315  0.00  0.00    +0.181 A 
ATOM      2  O   UNL     1       6.859  -2.985  23.643  0.00  0.00    -0.449 OA
ATOM      3  C   UNL     1       6.135  -3.968  24.282  0.00  0.00    +0.174 A 
ATOM      4  C   UNL     1       5.760  -5.118  23.559  0.00  0.00    +0.201 A 
ATOM      5  C   UNL     1       5.032  -6.139  24.184  0.00  0.00    +0.151 A 
ATOM      6  C   UNL     1       4.641  -6.005  25.512  0.00  0.00    +0.093 A 
ATOM      7  C   UNL     1       4.996  -4.867  26.229  0.00  0.00    +0.135 A 
ATOM      8  C   UNL     1       5.753  -3.851  25.625  0.00  0.00    +0.111 A 
ATOM      9  C   UNL     1       6.142  -2.629  26.366  0.00  0.00    +0.238 A 
ATOM     10  O   UNL     1       5.895  -2.460  27.553  0.00  0.00    -0.283 OA
ATOM     11  C   UNL     1       6.841  -1.568  25.593  0.00  0.00    +0.208 A 
ENDROOT
BRANCH   1  13
ATOM     12  C   UNL     1       9.345  -0.925  23.284  0.00  0.00    +0.015 A 
ATOM     13  C   UNL     1       7.949  -0.828  23.478  0.00  0.00    +0.025 A 
ATOM     14  C   UNL     1       7.286   0.246  22.864  0.00  0.00    +0.060 A 
ATOM     15  C   UNL     1       8.012   1.224  22.187  0.00  0.00    +0.159 A 
ATOM     16  C   UNL     1       9.399   1.161  22.099  0.00  0.00    +0.158 A 
ATOM     17  C   UNL     1      10.075   0.076  22.630  0.00  0.00    +0.050 A 
BRANCH  15  18
ATOM     18  O   UNL     1       7.348   2.277  21.622  0.00  0.00    -0.503 OA
ATOM     19  H   UNL     1       6.607   1.865  21.130  0.00  0.00    +0.292 HD
ENDBRANCH  15  18
BRANCH  16  20
ATOM     20  O   UNL     1      10.051   2.190  21.481  0.00  0.00    -0.503 OA
ATOM     21  H   UNL     1       9.779   3.024  21.902  0.00  0.00    +0.292 HD
ENDBRANCH  16  20
ENDBRANCH   1  13
BRANCH   4  22
ATOM     22  S   UNL     1       6.163  -5.262  21.848  0.00  0.00    +0.117 S 
ATOM     23  O   UNL     1       5.196  -6.167  21.250  0.00  0.00    -0.142 OA
ATOM     24  O   UNL     1       7.579  -5.487  21.693  0.00  0.00    -0.142 OA
BRANCH  22  25
ATOM     25  O   UNL     1       5.867  -3.792  21.256  0.00  0.00    -0.250 OA
ATOM     26  H   UNL     1       4.906  -3.723  21.072  0.00  0.00    +0.245 HD
ENDBRANCH  22  25
ENDBRANCH   4  22
BRANCH   5  27
ATOM     27  O   UNL     1       4.631  -7.307  23.598  0.00  0.00    -0.505 OA
ATOM     28  H   UNL     1       5.327  -7.999  23.652  0.00  0.00    +0.292 HD
ENDBRANCH   5  27
BRANCH   7  29
ATOM     29  O   UNL     1       4.578  -4.764  27.523  0.00  0.00    -0.506 OA
ATOM     30  H   UNL     1       4.774  -3.884  27.883  0.00  0.00    +0.292 HD
ENDBRANCH   7  29
BRANCH  11  31
ATOM     31  O   UNL     1       7.051  -0.373  26.260  0.00  0.00    -0.501 OA
ATOM     32  H   UNL     1       6.919   0.353  25.628  0.00  0.00    +0.292 HD
ENDBRANCH  11  31
TORSDOF 8
ENDMDL
MODEL 7
REMARK VINA RESULT:      -6.5      3.194      7.216
REMARK  Name = 
REMARK  8 active torsions:
REMARK  status: ('A' for Active; 'I' for Inactive)
REMARK    1  A    between atoms: C_3  and  O_26
REMARK    2  A    between atoms: C_4  and  O_25
REMARK    3  A    between atoms: C_6  and  C_7
REMARK    4  A    between atoms: C_8  and  O_24
REMARK    5  A    between atoms: C_14  and  S_20
REMARK    6  A    between atoms: C_15  and  O_19
REMARK    7  A    between atoms: C_17  and  O_18
REMARK    8  A    between atoms: S_20  and  O_23
REMARK                            x       y       z     vdW  Elec       q    Type
REMARK                         _______ _______ _______ _____ _____    ______ ____
ROOT
ATOM      1  C   UNL     1       8.196  -1.138  23.175  0.00  0.00    +0.181 A 
ATOM      2  O   UNL     1       7.607  -0.491  24.259  0.00  0.00    -0.449 OA
ATOM      3  C   UNL     1       7.880   0.837  24.508  0.00  0.00    +0.174 A 
ATOM      4  C   UNL     1       7.227   1.479  25.578  0.00  0.00    +0.201 A 
ATOM      5  C   UNL     1       7.491   2.825  25.861  0.00  0.00    +0.151 A 
ATOM      6  C   UNL     1       8.371   3.547  25.062  0.00  0.00    +0.093 A 
ATOM      7  C   UNL     1       9.010   2.925  23.995  0.00  0.00    +0.135 A 
ATOM      8  C   UNL     1       8.780   1.567  23.720  0.00  0.00    +0.111 A 
ATOM      9  C   UNL     1       9.446   0.882  22.589  0.00  0.00    +0.238 A 
ATOM     10  O   UNL     1      10.282   1.424  21.877  0.00  0.00    -0.283 OA
ATOM     11  C   UNL     1       9.038  -0.523  22.319  0.00  0.00    +0.208 A 
ENDROOT
BRANCH   1  13
ATOM     12  C   UNL     1       8.289  -3.592  23.836  0.00  0.00    +0.015 A 
ATOM     13  C   UNL     1       7.772  -2.563  23.016  0.00  0.00    +0.025 A 
ATOM     14  C   UNL     1       6.851  -2.931  22.024  0.00  0.00    +0.060 A 
ATOM     15  C   UNL     1       6.554  -4.275  21.805  0.00  0.00    +0.159 A 
ATOM     16  C   UNL     1       7.156  -5.278  22.559  0.00  0.00    +0.158 A 
ATOM     17  C   UNL     1       8.013  -4.944  23.593  0.00  0.00    +0.050 A 
BRANCH  15  18
ATOM     18  O   UNL     1       5.676  -4.612  20.814  0.00  0.00    -0.503 OA
ATOM     19  H   UNL     1       5.844  -3.959  20.104  0.00  0.00    +0.292 HD
ENDBRANCH  15  18
BRANCH  16  20
ATOM     20  O   UNL     1       6.872  -6.577  22.244  0.00  0.00    -0.503 OA
ATOM     21  H   UNL     1       6.738  -7.072  23.071  0.00  0.00    +0.292 HD
ENDBRANCH  16  20
ENDBRANCH   1  13
BRANCH   4  22
ATOM     22  S   UNL     1       6.035   0.606  26.543  0.00  0.00    +0.117 S 
ATOM     23  O   UNL     1       4.870   0.392  25.702  0.00  0.00    -0.142 OA
ATOM     24  O   UNL     1       5.906   1.223  27.841  0.00  0.00    -0.142 OA
BRANCH  22  25
ATOM     25  O   UNL     1       6.716  -0.834  26.788  0.00  0.00    -0.250 OA
ATOM     26  H   UNL     1       6.906  -0.925  27.746  0.00  0.00    +0.245 HD
ENDBRANCH  22  25
ENDBRANCH   4  22
BRANCH   5  27
ATOM     27  O   UNL     1       6.939   3.550  26.882  0.00  0.00    -0.505 OA
ATOM     28  H   UNL     1       6.304   4.221  26.549  0.00  0.00    +0.292 HD
ENDBRANCH   5  27
BRANCH   7  29
ATOM     29  O   UNL     1       9.851   3.670  23.223  0.00  0.00    -0.506 OA
ATOM     30  H   UNL     1      10.658   3.176  23.009  0.00  0.00    +0.292 HD
ENDBRANCH   7  29
BRANCH  11  31
ATOM     31  O   UNL     1       9.551  -1.091  21.166  0.00  0.00    -0.501 OA
ATOM     32  H   UNL     1      10.331  -0.577  20.898  0.00  0.00    +0.292 HD
ENDBRANCH  11  31
TORSDOF 8
ENDMDL
MODEL 8
REMARK VINA RESULT:      -6.5      2.922      7.885
REMARK  Name = 
REMARK  8 active torsions:
REMARK  status: ('A' for Active; 'I' for Inactive)
REMARK    1  A    between atoms: C_3  and  O_26
REMARK    2  A    between atoms: C_4  and  O_25
REMARK    3  A    between atoms: C_6  and  C_7
REMARK    4  A    between atoms: C_8  and  O_24
REMARK    5  A    between atoms: C_14  and  S_20
REMARK    6  A    between atoms: C_15  and  O_19
REMARK    7  A    between atoms: C_17  and  O_18
REMARK    8  A    between atoms: S_20  and  O_23
REMARK                            x       y       z     vdW  Elec       q    Type
REMARK                         _______ _______ _______ _____ _____    ______ ____
ROOT
ATOM      1  C   UNL     1       7.076  -1.392  25.722  0.00  0.00    +0.181 A 
ATOM      2  O   UNL     1       7.771  -1.121  24.546  0.00  0.00    -0.449 OA
ATOM      3  C   UNL     1       8.197   0.160  24.270  0.00  0.00    +0.174 A 
ATOM      4  C   UNL     1       8.946   0.392  23.100  0.00  0.00    +0.201 A 
ATOM      5  C   UNL     1       9.386   1.685  22.788  0.00  0.00    +0.151 A 
ATOM      6  C   UNL     1       9.119   2.741  23.653  0.00  0.00    +0.093 A 
ATOM      7  C   UNL     1       8.393   2.518  24.817  0.00  0.00    +0.135 A 
ATOM      8  C   UNL     1       7.917   1.233  25.126  0.00  0.00    +0.111 A 
ATOM      9  C   UNL     1       7.143   0.969  26.360  0.00  0.00    +0.238 A 
ATOM     10  O   UNL     1       6.809   1.851  27.142  0.00  0.00    -0.283 OA
ATOM     11  C   UNL     1       6.792  -0.449  26.644  0.00  0.00    +0.208 A 
ENDROOT
BRANCH   1  13
ATOM     12  C   UNL     1       5.499  -3.362  25.405  0.00  0.00    +0.015 A 
ATOM     13  C   UNL     1       6.714  -2.832  25.896  0.00  0.00    +0.025 A 
ATOM     14  C   UNL     1       7.572  -3.711  26.575  0.00  0.00    +0.060 A 
ATOM     15  C   UNL     1       7.173  -5.020  26.836  0.00  0.00    +0.159 A 
ATOM     16  C   UNL     1       5.926  -5.488  26.432  0.00  0.00    +0.158 A 
ATOM     17  C   UNL     1       5.088  -4.669  25.697  0.00  0.00    +0.050 A 
BRANCH  15  18
ATOM     18  O   UNL     1       8.013  -5.850  27.524  0.00  0.00    -0.503 OA
ATOM     19  H   UNL     1       8.864  -5.793  27.042  0.00  0.00    +0.292 HD
ENDBRANCH  15  18
BRANCH  16  20
ATOM     20  O   UNL     1       5.573  -6.760  26.783  0.00  0.00    -0.503 OA
ATOM     21  H   UNL     1       5.716  -6.866  27.739  0.00  0.00    +0.292 HD
ENDBRANCH  16  20
ENDBRANCH   1  13
BRANCH   4  22
ATOM     22  S   UNL     1       9.377  -0.951  22.039  0.00  0.00    +0.117 S 
ATOM     23  O   UNL     1      10.527  -1.616  22.630  0.00  0.00    -0.142 OA
ATOM     24  O   UNL     1       9.405  -0.506  20.668  0.00  0.00    -0.142 OA
BRANCH  22  25
ATOM     25  O   UNL     1       8.127  -1.960  22.166  0.00  0.00    -0.250 OA
ATOM     26  H   UNL     1       7.342  -1.443  22.449  0.00  0.00    +0.245 HD
ENDBRANCH  22  25
ENDBRANCH   4  22
BRANCH   5  27
ATOM     27  O   UNL     1      10.098   2.040  21.675  0.00  0.00    -0.505 OA
ATOM     28  H   UNL     1      11.040   2.221  21.889  0.00  0.00    +0.292 HD
ENDBRANCH   5  27
BRANCH   7  29
ATOM     29  O   UNL     1       8.168   3.574  25.650  0.00  0.00    -0.506 OA
ATOM     30  H   UNL     1       8.721   4.333  25.407  0.00  0.00    +0.292 HD
ENDBRANCH   7  29
BRANCH  11  31
ATOM     31  O   UNL     1       6.212  -0.693  27.877  0.00  0.00    -0.501 OA
ATOM     32  H   UNL     1       5.604  -1.444  27.781  0.00  0.00    +0.292 HD
ENDBRANCH  11  31
TORSDOF 8
ENDMDL
MODEL 9
REMARK VINA RESULT:      -6.5      3.481      4.938
REMARK  Name = 
REMARK  8 active torsions:
REMARK  status: ('A' for Active; 'I' for Inactive)
REMARK    1  A    between atoms: C_3  and  O_26
REMARK    2  A    between atoms: C_4  and  O_25
REMARK    3  A    between atoms: C_6  and  C_7
REMARK    4  A    between atoms: C_8  and  O_24
REMARK    5  A    between atoms: C_14  and  S_20
REMARK    6  A    between atoms: C_15  and  O_19
REMARK    7  A    between atoms: C_17  and  O_18
REMARK    8  A    between atoms: S_20  and  O_23
REMARK                            x       y       z     vdW  Elec       q    Type
REMARK                         _______ _______ _______ _____ _____    ______ ____
ROOT
ATOM      1  C   UNL     1       8.326  -0.011  23.719  0.00  0.00    +0.181 A 
ATOM      2  O   UNL     1       7.469  -0.548  24.676  0.00  0.00    -0.449 OA
ATOM      3  C   UNL     1       7.697  -1.810  25.182  0.00  0.00    +0.174 A 
ATOM      4  C   UNL     1       6.846  -2.305  26.190  0.00  0.00    +0.201 A 
ATOM      5  C   UNL     1       7.046  -3.587  26.717  0.00  0.00    +0.151 A 
ATOM      6  C   UNL     1       8.112  -4.365  26.275  0.00  0.00    +0.093 A 
ATOM      7  C   UNL     1       8.964  -3.879  25.290  0.00  0.00    +0.135 A 
ATOM      8  C   UNL     1       8.756  -2.608  24.730  0.00  0.00    +0.111 A 
ATOM      9  C   UNL     1       9.651  -2.067  23.681  0.00  0.00    +0.238 A 
ATOM     10  O   UNL     1      10.571  -2.709  23.191  0.00  0.00    -0.283 OA
ATOM     11  C   UNL     1       9.406  -0.666  23.245  0.00  0.00    +0.208 A 
ENDROOT
BRANCH   1  13
ATOM     12  C   UNL     1       6.905   1.639  22.406  0.00  0.00    +0.015 A 
ATOM     13  C   UNL     1       7.969   1.379  23.298  0.00  0.00    +0.025 A 
ATOM     14  C   UNL     1       8.701   2.481  23.766  0.00  0.00    +0.060 A 
ATOM     15  C   UNL     1       8.438   3.759  23.275  0.00  0.00    +0.159 A 
ATOM     16  C   UNL     1       7.451   3.974  22.318  0.00  0.00    +0.158 A 
ATOM     17  C   UNL     1       6.663   2.920  21.891  0.00  0.00    +0.050 A 
BRANCH  15  18
ATOM     18  O   UNL     1       9.183   4.813  23.725  0.00  0.00    -0.503 OA
ATOM     19  H   UNL     1       9.018   5.526  23.074  0.00  0.00    +0.292 HD
ENDBRANCH  15  18
BRANCH  16  20
ATOM     20  O   UNL     1       7.295   5.240  21.830  0.00  0.00    -0.503 OA
ATOM     21  H   UNL     1       6.895   5.791  22.526  0.00  0.00    +0.292 HD
ENDBRANCH  16  20
ENDBRANCH   1  13
BRANCH   4  22
ATOM     22  S   UNL     1       5.548  -1.296  26.831  0.00  0.00    +0.117 S 
ATOM     23  O   UNL     1       6.168  -0.232  27.602  0.00  0.00    -0.142 OA
ATOM     24  O   UNL     1       4.520  -2.126  27.410  0.00  0.00    -0.142 OA
BRANCH  22  25
ATOM     25  O   UNL     1       4.902  -0.618  25.519  0.00  0.00    -0.250 OA
ATOM     26  H   UNL     1       5.068  -1.210  24.754  0.00  0.00    +0.245 HD
ENDBRANCH  22  25
ENDBRANCH   4  22
BRANCH   5  27
ATOM     27  O   UNL     1       6.278  -4.185  27.677  0.00  0.00    -0.505 OA
ATOM     28  H   UNL     1       6.770  -4.293  28.521  0.00  0.00    +0.292 HD
ENDBRANCH   5  27
BRANCH   7  29
ATOM     29  O   UNL     1      10.009  -4.662  24.897  0.00  0.00    -0.506 OA
ATOM     30  H   UNL     1      10.730  -4.633  25.545  0.00  0.00    +0.292 HD
ENDBRANCH   7  29
BRANCH  11  31
ATOM     31  O   UNL     1      10.348  -0.127  22.387  0.00  0.00    -0.501 OA
ATOM     32  H   UNL     1      11.217  -0.488  22.627  0.00  0.00    +0.292 HD
ENDBRANCH  11  31
TORSDOF 8
ENDMDL
