MODEL 1
REMARK VINA RESULT:      -8.3      0.000      0.000
REMARK  Name = 
REMARK  23 active torsions:
REMARK  status: ('A' for Active; 'I' for Inactive)
REMARK    1  A    between atoms: C_1  and  C_2
REMARK    2  A    between atoms: C_3  and  O_63
REMARK    3  A    between atoms: C_5  and  O_62
REMARK    4  A    between atoms: C_6  and  O_61
REMARK    5  A    between atoms: C_8  and  O_11
REMARK    6  A    between atoms: O_11  and  C_12
REMARK    7  A    between atoms: C_12  and  C_13
REMARK    8  A    between atoms: C_14  and  O_60
REMARK    9  A    between atoms: C_16  and  O_59
REMARK   10  A    between atoms: C_18  and  O_58
REMARK   11  A    between atoms: C_19  and  O_22
REMARK   12  A    between atoms: O_22  and  C_23
REMARK   13  A    between atoms: C_23  and  C_24
REMARK   14  A    between atoms: C_25  and  O_57
REMARK   15  A    between atoms: C_27  and  O_56
REMARK   16  A    between atoms: C_29  and  O_55
REMARK   17  A    between atoms: C_30  and  O_33
REMARK   18  A    between atoms: O_33  and  C_34
REMARK   19  A    between atoms: C_35  and  C_47
REMARK   20  A    between atoms: C_39  and  O_46
REMARK   21  A    between atoms: C_41  and  O_45
REMARK   22  A    between atoms: C_49  and  O_54
REMARK   23  A    between atoms: C_50  and  O_53
REMARK                            x       y       z     vdW  Elec       q    Type
REMARK                         _______ _______ _______ _____ _____    ______ ____
ROOT
ATOM      1  C   UNL     1       8.753  -0.842  25.619  0.00  0.00    +0.179 C 
ATOM      2  O   UNL     1       8.700   0.574  25.879  0.00  0.00    -0.331 OA
ATOM      3  C   UNL     1       8.105   1.325  24.797  0.00  0.00    +0.340 C 
ATOM      4  C   UNL     1       8.994   1.168  23.533  0.00  0.00    +0.214 C 
ATOM      5  C   UNL     1       9.123  -0.321  23.184  0.00  0.00    +0.180 C 
ATOM      6  C   UNL     1       9.654  -1.101  24.398  0.00  0.00    +0.177 C 
ENDROOT
BRANCH   6   7
ATOM      7  O   UNL     1       9.732  -2.494  24.077  0.00  0.00    -0.386 OA
ATOM      8  H   UNL     1       9.726  -2.979  24.923  0.00  0.00    +0.210 HD
ENDBRANCH   6   7
BRANCH   5   9
ATOM      9  O   UNL     1       9.990  -0.534  22.063  0.00  0.00    -0.386 OA
ATOM     10  H   UNL     1       9.777  -1.428  21.735  0.00  0.00    +0.210 HD
ENDBRANCH   5   9
BRANCH   4  11
ATOM     11  O   UNL     1      10.308   1.721  23.786  0.00  0.00    -0.383 OA
ATOM     12  H   UNL     1      10.573   2.211  22.986  0.00  0.00    +0.210 HD
ENDBRANCH   4  11
BRANCH   3  13
ATOM     13  O   UNL     1       8.058   2.702  25.185  0.00  0.00    -0.453 OA
BRANCH  13  14
ATOM     14  C   UNL     1       7.164   3.575  24.570  0.00  0.00    +0.214 A 
ATOM     15  C   UNL     1       5.733   3.192  24.314  0.00  0.00    +0.238 A 
ATOM     16  O   UNL     1       5.277   2.119  24.687  0.00  0.00    -0.283 OA
ATOM     17  C   UNL     1       4.882   4.143  23.587  0.00  0.00    +0.109 A 
ATOM     18  C   UNL     1       5.427   5.376  23.244  0.00  0.00    +0.147 A 
ATOM     19  C   UNL     1       4.651   6.317  22.552  0.00  0.00    +0.092 A 
ATOM     20  C   UNL     1       3.336   6.005  22.220  0.00  0.00    +0.124 A 
ATOM     21  C   UNL     1       2.784   4.772  22.552  0.00  0.00    +0.091 A 
ATOM     22  O   UNL     1       6.722   5.725  23.531  0.00  0.00    -0.451 OA
ATOM     23  C   UNL     1       3.561   3.838  23.230  0.00  0.00    +0.135 A 
ATOM     24  C   UNL     1       7.561   4.807  24.170  0.00  0.00    +0.181 A 
BRANCH  24  25
ATOM     25  C   UNL     1       8.961   5.327  24.343  0.00  0.00    +0.025 A 
ATOM     26  C   UNL     1       9.277   6.177  25.429  0.00  0.00    +0.015 A 
ATOM     27  C   UNL     1      10.573   6.681  25.615  0.00  0.00    +0.050 A 
ATOM     28  C   UNL     1      11.570   6.347  24.712  0.00  0.00    +0.158 A 
ATOM     29  C   UNL     1      11.291   5.513  23.640  0.00  0.00    +0.159 A 
ATOM     30  C   UNL     1      10.008   4.992  23.463  0.00  0.00    +0.060 A 
BRANCH  29  31
ATOM     31  O   UNL     1      12.311   5.226  22.774  0.00  0.00    -0.503 OA
ATOM     32  H   UNL     1      11.938   5.176  21.876  0.00  0.00    +0.292 HD
ENDBRANCH  29  31
BRANCH  28  33
ATOM     33  O   UNL     1      12.833   6.841  24.884  0.00  0.00    -0.503 OA
ATOM     34  H   UNL     1      13.356   6.424  24.174  0.00  0.00    +0.292 HD
ENDBRANCH  28  33
ENDBRANCH  24  25
BRANCH  23  35
ATOM     35  O   UNL     1       3.004   2.630  23.535  0.00  0.00    -0.506 OA
ATOM     36  H   UNL     1       2.039   2.705  23.587  0.00  0.00    +0.292 HD
ENDBRANCH  23  35
BRANCH  20  37
ATOM     37  O   UNL     1       2.531   6.881  21.559  0.00  0.00    -0.507 OA
ATOM     38  H   UNL     1       2.796   7.788  21.780  0.00  0.00    +0.292 HD
ENDBRANCH  20  37
ENDBRANCH  13  14
ENDBRANCH   3  13
BRANCH   1  39
ATOM     39  C   UNL     1       7.373  -1.533  25.452  0.00  0.00    +0.197 C 
BRANCH  39  40
ATOM     40  O   UNL     1       6.937  -1.525  24.089  0.00  0.00    -0.346 OA
BRANCH  40  43
ATOM     41  C   UNL     1       6.738  -5.183  24.067  0.00  0.00    +0.178 C 
ATOM     42  O   UNL     1       7.200  -3.847  24.350  0.00  0.00    -0.341 OA
ATOM     43  C   UNL     1       6.441  -2.814  23.704  0.00  0.00    +0.282 C 
ATOM     44  C   UNL     1       6.572  -2.981  22.176  0.00  0.00    +0.201 C 
ATOM     45  C   UNL     1       5.994  -4.353  21.803  0.00  0.00    +0.179 C 
ATOM     46  C   UNL     1       6.751  -5.461  22.545  0.00  0.00    +0.177 C 
BRANCH  46  47
ATOM     47  O   UNL     1       6.193  -6.721  22.164  0.00  0.00    -0.386 OA
ATOM     48  H   UNL     1       5.822  -6.615  21.267  0.00  0.00    +0.210 HD
ENDBRANCH  46  47
BRANCH  45  49
ATOM     49  O   UNL     1       6.039  -4.586  20.392  0.00  0.00    -0.386 OA
ATOM     50  H   UNL     1       5.353  -5.261  20.220  0.00  0.00    +0.210 HD
ENDBRANCH  45  49
BRANCH  44  51
ATOM     51  O   UNL     1       7.963  -2.916  21.796  0.00  0.00    -0.384 OA
ATOM     52  H   UNL     1       8.428  -3.596  22.321  0.00  0.00    +0.210 HD
ENDBRANCH  44  51
BRANCH  41  53
ATOM     53  C   UNL     1       5.396  -5.431  24.772  0.00  0.00    +0.197 C 
BRANCH  53  54
ATOM     54  O   UNL     1       4.962  -6.774  24.609  0.00  0.00    -0.346 OA
BRANCH  54  58
ATOM     55  C   UNL     1       1.100  -8.178  25.971  0.00  0.00    +0.041 C 
ATOM     56  C   UNL     1       1.726  -8.484  24.612  0.00  0.00    +0.149 C 
ATOM     57  O   UNL     1       3.139  -8.243  24.629  0.00  0.00    -0.343 OA
ATOM     58  C   UNL     1       3.534  -6.870  24.655  0.00  0.00    +0.282 C 
ATOM     59  C   UNL     1       2.954  -6.079  23.466  0.00  0.00    +0.201 C 
ATOM     60  C   UNL     1       1.433  -6.252  23.439  0.00  0.00    +0.179 C 
ATOM     61  C   UNL     1       1.054  -7.741  23.450  0.00  0.00    +0.174 C 
BRANCH  61  62
ATOM     62  O   UNL     1       1.474  -8.320  22.199  0.00  0.00    -0.387 OA
ATOM     63  H   UNL     1       1.780  -9.235  22.406  0.00  0.00    +0.210 HD
ENDBRANCH  61  62
BRANCH  60  64
ATOM     64  O   UNL     1       0.912  -5.632  22.255  0.00  0.00    -0.386 OA
ATOM     65  H   UNL     1       0.300  -4.934  22.573  0.00  0.00    +0.210 HD
ENDBRANCH  60  64
BRANCH  59  66
ATOM     66  O   UNL     1       3.498  -6.558  22.215  0.00  0.00    -0.384 OA
ATOM     67  H   UNL     1       2.769  -7.052  21.792  0.00  0.00    +0.210 HD
ENDBRANCH  59  66
ENDBRANCH  54  58
ENDBRANCH  53  54
ENDBRANCH  41  53
ENDBRANCH  40  43
ENDBRANCH  39  40
ENDBRANCH   1  39
TORSDOF 22
ENDMDL
MODEL 2
REMARK VINA RESULT:      -8.1      2.730      4.441
REMARK  Name = 
REMARK  23 active torsions:
REMARK  status: ('A' for Active; 'I' for Inactive)
REMARK    1  A    between atoms: C_1  and  C_2
REMARK    2  A    between atoms: C_3  and  O_63
REMARK    3  A    between atoms: C_5  and  O_62
REMARK    4  A    between atoms: C_6  and  O_61
REMARK    5  A    between atoms: C_8  and  O_11
REMARK    6  A    between atoms: O_11  and  C_12
REMARK    7  A    between atoms: C_12  and  C_13
REMARK    8  A    between atoms: C_14  and  O_60
REMARK    9  A    between atoms: C_16  and  O_59
REMARK   10  A    between atoms: C_18  and  O_58
REMARK   11  A    between atoms: C_19  and  O_22
REMARK   12  A    between atoms: O_22  and  C_23
REMARK   13  A    between atoms: C_23  and  C_24
REMARK   14  A    between atoms: C_25  and  O_57
REMARK   15  A    between atoms: C_27  and  O_56
REMARK   16  A    between atoms: C_29  and  O_55
REMARK   17  A    between atoms: C_30  and  O_33
REMARK   18  A    between atoms: O_33  and  C_34
REMARK   19  A    between atoms: C_35  and  C_47
REMARK   20  A    between atoms: C_39  and  O_46
REMARK   21  A    between atoms: C_41  and  O_45
REMARK   22  A    between atoms: C_49  and  O_54
REMARK   23  A    between atoms: C_50  and  O_53
REMARK                            x       y       z     vdW  Elec       q    Type
REMARK                         _______ _______ _______ _____ _____    ______ ____
ROOT
ATOM      1  C   UNL     1       9.898   0.129  24.329  0.00  0.00    +0.179 C 
ATOM      2  O   UNL     1       9.554   1.512  24.116  0.00  0.00    -0.331 OA
ATOM      3  C   UNL     1       8.384   1.680  23.284  0.00  0.00    +0.340 C 
ATOM      4  C   UNL     1       8.687   1.107  21.874  0.00  0.00    +0.214 C 
ATOM      5  C   UNL     1       9.084  -0.371  22.001  0.00  0.00    +0.180 C 
ATOM      6  C   UNL     1      10.260  -0.518  22.980  0.00  0.00    +0.177 C 
ENDROOT
BRANCH   6   7
ATOM      7  O   UNL     1      10.594  -1.902  23.125  0.00  0.00    -0.386 OA
ATOM      8  H   UNL     1       9.781  -2.361  23.405  0.00  0.00    +0.210 HD
ENDBRANCH   6   7
BRANCH   5   9
ATOM      9  O   UNL     1       9.443  -0.939  20.735  0.00  0.00    -0.386 OA
ATOM     10  H   UNL     1       8.603  -1.049  20.250  0.00  0.00    +0.210 HD
ENDBRANCH   5   9
BRANCH   4  11
ATOM     11  O   UNL     1       9.774   1.847  21.267  0.00  0.00    -0.383 OA
ATOM     12  H   UNL     1       9.991   1.403  20.426  0.00  0.00    +0.210 HD
ENDBRANCH   4  11
BRANCH   3  13
ATOM     13  O   UNL     1       8.107   3.081  23.185  0.00  0.00    -0.453 OA
BRANCH  13  14
ATOM     14  C   UNL     1       7.224   3.688  24.074  0.00  0.00    +0.214 A 
ATOM     15  C   UNL     1       5.804   3.215  24.228  0.00  0.00    +0.238 A 
ATOM     16  O   UNL     1       5.381   2.240  23.619  0.00  0.00    -0.283 OA
ATOM     17  C   UNL     1       4.920   3.964  25.129  0.00  0.00    +0.109 A 
ATOM     18  C   UNL     1       5.465   5.021  25.849  0.00  0.00    +0.147 A 
ATOM     19  C   UNL     1       4.658   5.764  26.723  0.00  0.00    +0.092 A 
ATOM     20  C   UNL     1       3.316   5.426  26.865  0.00  0.00    +0.124 A 
ATOM     21  C   UNL     1       2.759   4.375  26.144  0.00  0.00    +0.091 A 
ATOM     22  O   UNL     1       6.777   5.406  25.731  0.00  0.00    -0.451 OA
ATOM     23  C   UNL     1       3.561   3.648  25.270  0.00  0.00    +0.135 A 
ATOM     24  C   UNL     1       7.616   4.740  24.833  0.00  0.00    +0.181 A 
BRANCH  24  25
ATOM     25  C   UNL     1       8.996   5.334  24.782  0.00  0.00    +0.025 A 
ATOM     26  C   UNL     1       9.422   6.238  25.783  0.00  0.00    +0.015 A 
ATOM     27  C   UNL     1      10.701   6.811  25.761  0.00  0.00    +0.050 A 
ATOM     28  C   UNL     1      11.571   6.494  24.729  0.00  0.00    +0.158 A 
ATOM     29  C   UNL     1      11.184   5.608  23.735  0.00  0.00    +0.159 A 
ATOM     30  C   UNL     1       9.919   5.019  23.766  0.00  0.00    +0.060 A 
BRANCH  29  31
ATOM     31  O   UNL     1      12.080   5.340  22.736  0.00  0.00    -0.503 OA
ATOM     32  H   UNL     1      11.749   5.751  21.918  0.00  0.00    +0.292 HD
ENDBRANCH  29  31
BRANCH  28  33
ATOM     33  O   UNL     1      12.818   7.055  24.697  0.00  0.00    -0.503 OA
ATOM     34  H   UNL     1      12.664   8.001  24.876  0.00  0.00    +0.292 HD
ENDBRANCH  28  33
ENDBRANCH  24  25
BRANCH  23  35
ATOM     35  O   UNL     1       2.992   2.629  24.563  0.00  0.00    -0.506 OA
ATOM     36  H   UNL     1       2.193   2.310  25.012  0.00  0.00    +0.292 HD
ENDBRANCH  23  35
BRANCH  20  37
ATOM     37  O   UNL     1       2.487   6.103  27.707  0.00  0.00    -0.507 OA
ATOM     38  H   UNL     1       1.575   5.802  27.568  0.00  0.00    +0.292 HD
ENDBRANCH  20  37
ENDBRANCH  13  14
ENDBRANCH   3  13
BRANCH   1  39
ATOM     39  C   UNL     1       8.829  -0.707  25.082  0.00  0.00    +0.197 C 
BRANCH  39  40
ATOM     40  O   UNL     1       8.743  -0.338  26.463  0.00  0.00    -0.346 OA
BRANCH  40  43
ATOM     41  C   UNL     1       5.103  -0.076  26.150  0.00  0.00    +0.178 C 
ATOM     42  O   UNL     1       6.503  -0.043  25.811  0.00  0.00    -0.341 OA
ATOM     43  C   UNL     1       7.380  -0.341  26.908  0.00  0.00    +0.282 C 
ATOM     44  C   UNL     1       7.193   0.733  28.000  0.00  0.00    +0.201 C 
ATOM     45  C   UNL     1       5.735   0.670  28.475  0.00  0.00    +0.179 C 
ATOM     46  C   UNL     1       4.787   0.914  27.295  0.00  0.00    +0.177 C 
BRANCH  46  47
ATOM     47  O   UNL     1       3.442   0.859  27.779  0.00  0.00    -0.386 OA
ATOM     48  H   UNL     1       3.361   0.046  28.315  0.00  0.00    +0.210 HD
ENDBRANCH  46  47
BRANCH  45  49
ATOM     49  O   UNL     1       5.473   1.611  29.521  0.00  0.00    -0.386 OA
ATOM     50  H   UNL     1       5.649   2.489  29.127  0.00  0.00    +0.210 HD
ENDBRANCH  45  49
BRANCH  44  51
ATOM     51  O   UNL     1       7.473   2.039  27.453  0.00  0.00    -0.384 OA
ATOM     52  H   UNL     1       6.787   2.641  27.801  0.00  0.00    +0.210 HD
ENDBRANCH  44  51
BRANCH  41  53
ATOM     53  C   UNL     1       4.658  -1.528  26.390  0.00  0.00    +0.197 C 
BRANCH  53  54
ATOM     54  O   UNL     1       4.203  -2.138  25.191  0.00  0.00    -0.346 OA
BRANCH  54  58
ATOM     55  C   UNL     1       6.611  -5.642  26.007  0.00  0.00    +0.041 C 
ATOM     56  C   UNL     1       7.092  -4.384  25.288  0.00  0.00    +0.149 C 
ATOM     57  O   UNL     1       6.218  -3.277  25.545  0.00  0.00    -0.343 OA
ATOM     58  C   UNL     1       4.946  -3.327  24.897  0.00  0.00    +0.282 C 
ATOM     59  C   UNL     1       5.081  -3.451  23.367  0.00  0.00    +0.201 C 
ATOM     60  C   UNL     1       5.957  -4.661  23.034  0.00  0.00    +0.179 C 
ATOM     61  C   UNL     1       7.298  -4.584  23.780  0.00  0.00    +0.174 C 
BRANCH  61  62
ATOM     62  O   UNL     1       8.048  -3.478  23.244  0.00  0.00    -0.387 OA
ATOM     63  H   UNL     1       7.391  -2.879  22.817  0.00  0.00    +0.210 HD
ENDBRANCH  61  62
BRANCH  60  64
ATOM     64  O   UNL     1       6.195  -4.693  21.620  0.00  0.00    -0.386 OA
ATOM     65  H   UNL     1       6.456  -3.778  21.378  0.00  0.00    +0.210 HD
ENDBRANCH  60  64
BRANCH  59  66
ATOM     66  O   UNL     1       5.693  -2.267  22.806  0.00  0.00    -0.384 OA
ATOM     67  H   UNL     1       6.072  -2.554  21.954  0.00  0.00    +0.210 HD
ENDBRANCH  59  66
ENDBRANCH  54  58
ENDBRANCH  53  54
ENDBRANCH  41  53
ENDBRANCH  40  43
ENDBRANCH  39  40
ENDBRANCH   1  39
TORSDOF 22
ENDMDL
MODEL 3
REMARK VINA RESULT:      -8.1      1.651      3.632
REMARK  Name = 
REMARK  23 active torsions:
REMARK  status: ('A' for Active; 'I' for Inactive)
REMARK    1  A    between atoms: C_1  and  C_2
REMARK    2  A    between atoms: C_3  and  O_63
REMARK    3  A    between atoms: C_5  and  O_62
REMARK    4  A    between atoms: C_6  and  O_61
REMARK    5  A    between atoms: C_8  and  O_11
REMARK    6  A    between atoms: O_11  and  C_12
REMARK    7  A    between atoms: C_12  and  C_13
REMARK    8  A    between atoms: C_14  and  O_60
REMARK    9  A    between atoms: C_16  and  O_59
REMARK   10  A    between atoms: C_18  and  O_58
REMARK   11  A    between atoms: C_19  and  O_22
REMARK   12  A    between atoms: O_22  and  C_23
REMARK   13  A    between atoms: C_23  and  C_24
REMARK   14  A    between atoms: C_25  and  O_57
REMARK   15  A    between atoms: C_27  and  O_56
REMARK   16  A    between atoms: C_29  and  O_55
REMARK   17  A    between atoms: C_30  and  O_33
REMARK   18  A    between atoms: O_33  and  C_34
REMARK   19  A    between atoms: C_35  and  C_47
REMARK   20  A    between atoms: C_39  and  O_46
REMARK   21  A    between atoms: C_41  and  O_45
REMARK   22  A    between atoms: C_49  and  O_54
REMARK   23  A    between atoms: C_50  and  O_53
REMARK                            x       y       z     vdW  Elec       q    Type
REMARK                         _______ _______ _______ _____ _____    ______ ____
ROOT
ATOM      1  C   UNL     1       9.930  -0.790  24.585  0.00  0.00    +0.179 C 
ATOM      2  O   UNL     1       9.832   0.598  24.958  0.00  0.00    -0.331 OA
ATOM      3  C   UNL     1       8.735   1.280  24.310  0.00  0.00    +0.340 C 
ATOM      4  C   UNL     1       8.982   1.279  22.777  0.00  0.00    +0.214 C 
ATOM      5  C   UNL     1       9.119  -0.168  22.285  0.00  0.00    +0.180 C 
ATOM      6  C   UNL     1      10.221  -0.891  23.077  0.00  0.00    +0.177 C 
ENDROOT
BRANCH   6   7
ATOM      7  O   UNL     1      10.312  -2.252  22.641  0.00  0.00    -0.386 OA
ATOM      8  H   UNL     1      10.880  -2.717  23.283  0.00  0.00    +0.210 HD
ENDBRANCH   6   7
BRANCH   5   9
ATOM      9  O   UNL     1       9.417  -0.232  20.885  0.00  0.00    -0.386 OA
ATOM     10  H   UNL     1       9.467   0.696  20.586  0.00  0.00    +0.210 HD
ENDBRANCH   5   9
BRANCH   4  11
ATOM     11  O   UNL     1      10.197   2.007  22.476  0.00  0.00    -0.383 OA
ATOM     12  H   UNL     1      10.335   2.648  23.197  0.00  0.00    +0.210 HD
ENDBRANCH   4  11
BRANCH   3  13
ATOM     13  O   UNL     1       8.702   2.627  24.792  0.00  0.00    -0.453 OA
BRANCH  13  14
ATOM     14  C   UNL     1       7.769   3.531  24.289  0.00  0.00    +0.214 A 
ATOM     15  C   UNL     1       6.389   3.098  23.879  0.00  0.00    +0.238 A 
ATOM     16  O   UNL     1       6.007   1.943  24.023  0.00  0.00    -0.283 OA
ATOM     17  C   UNL     1       5.498   4.101  23.283  0.00  0.00    +0.109 A 
ATOM     18  C   UNL     1       5.953   5.413  23.203  0.00  0.00    +0.147 A 
ATOM     19  C   UNL     1       5.136   6.406  22.644  0.00  0.00    +0.092 A 
ATOM     20  C   UNL     1       3.869   6.065  22.180  0.00  0.00    +0.124 A 
ATOM     21  C   UNL     1       3.407   4.755  22.248  0.00  0.00    +0.091 A 
ATOM     22  O   UNL     1       7.200   5.797  23.629  0.00  0.00    -0.451 OA
ATOM     23  C   UNL     1       4.226   3.771  22.795  0.00  0.00    +0.135 A 
ATOM     24  C   UNL     1       8.081   4.842  24.143  0.00  0.00    +0.181 A 
BRANCH  24  25
ATOM     25  C   UNL     1       9.422   5.422  24.495  0.00  0.00    +0.025 A 
ATOM     26  C   UNL     1       9.546   6.334  25.569  0.00  0.00    +0.015 A 
ATOM     27  C   UNL     1      10.782   6.895  25.919  0.00  0.00    +0.050 A 
ATOM     28  C   UNL     1      11.913   6.556  25.193  0.00  0.00    +0.158 A 
ATOM     29  C   UNL     1      11.825   5.662  24.137  0.00  0.00    +0.159 A 
ATOM     30  C   UNL     1      10.599   5.085  23.799  0.00  0.00    +0.060 A 
BRANCH  29  31
ATOM     31  O   UNL     1      12.971   5.373  23.449  0.00  0.00    -0.503 OA
ATOM     32  H   UNL     1      13.432   6.211  23.267  0.00  0.00    +0.292 HD
ENDBRANCH  29  31
BRANCH  28  33
ATOM     33  O   UNL     1      13.121   7.105  25.524  0.00  0.00    -0.503 OA
ATOM     34  H   UNL     1      13.746   6.357  25.492  0.00  0.00    +0.292 HD
ENDBRANCH  28  33
ENDBRANCH  24  25
BRANCH  23  35
ATOM     35  O   UNL     1       3.758   2.490  22.841  0.00  0.00    -0.506 OA
ATOM     36  H   UNL     1       4.424   1.899  23.226  0.00  0.00    +0.292 HD
ENDBRANCH  23  35
BRANCH  20  37
ATOM     37  O   UNL     1       3.027   6.987  21.638  0.00  0.00    -0.507 OA
ATOM     38  H   UNL     1       3.116   6.973  20.672  0.00  0.00    +0.292 HD
ENDBRANCH  20  37
ENDBRANCH  13  14
ENDBRANCH   3  13
BRANCH   1  39
ATOM     39  C   UNL     1       8.712  -1.666  24.981  0.00  0.00    +0.197 C 
BRANCH  39  40
ATOM     40  O   UNL     1       8.506  -1.680  26.397  0.00  0.00    -0.346 OA
BRANCH  40  43
ATOM     41  C   UNL     1       5.003  -0.836  25.738  0.00  0.00    +0.178 C 
ATOM     42  O   UNL     1       6.410  -1.068  25.526  0.00  0.00    -0.341 OA
ATOM     43  C   UNL     1       7.134  -1.415  26.716  0.00  0.00    +0.282 C 
ATOM     44  C   UNL     1       7.053  -0.237  27.708  0.00  0.00    +0.201 C 
ATOM     45  C   UNL     1       5.575  -0.014  28.053  0.00  0.00    +0.179 C 
ATOM     46  C   UNL     1       4.778   0.286  26.778  0.00  0.00    +0.177 C 
BRANCH  46  47
ATOM     47  O   UNL     1       3.411   0.499  27.140  0.00  0.00    -0.386 OA
ATOM     48  H   UNL     1       3.142  -0.248  27.708  0.00  0.00    +0.210 HD
ENDBRANCH  46  47
BRANCH  45  49
ATOM     49  O   UNL     1       5.401   1.044  29.002  0.00  0.00    -0.386 OA
ATOM     50  H   UNL     1       5.465   0.616  29.879  0.00  0.00    +0.210 HD
ENDBRANCH  45  49
BRANCH  44  51
ATOM     51  O   UNL     1       7.599   0.952  27.099  0.00  0.00    -0.384 OA
ATOM     52  H   UNL     1       7.573   1.653  27.780  0.00  0.00    +0.210 HD
ENDBRANCH  44  51
BRANCH  41  53
ATOM     53  C   UNL     1       4.294  -2.167  26.038  0.00  0.00    +0.197 C 
BRANCH  53  54
ATOM     54  O   UNL     1       3.961  -2.860  24.844  0.00  0.00    -0.346 OA
BRANCH  54  58
ATOM     55  C   UNL     1       7.722  -4.812  23.955  0.00  0.00    +0.041 C 
ATOM     56  C   UNL     1       6.510  -4.756  23.027  0.00  0.00    +0.149 C 
ATOM     57  O   UNL     1       5.610  -3.710  23.416  0.00  0.00    -0.343 OA
ATOM     58  C   UNL     1       4.858  -3.951  24.607  0.00  0.00    +0.282 C 
ATOM     59  C   UNL     1       4.033  -5.249  24.517  0.00  0.00    +0.201 C 
ATOM     60  C   UNL     1       4.961  -6.414  24.165  0.00  0.00    +0.179 C 
ATOM     61  C   UNL     1       5.776  -6.097  22.901  0.00  0.00    +0.174 C 
BRANCH  61  62
ATOM     62  O   UNL     1       4.869  -6.049  21.783  0.00  0.00    -0.387 OA
ATOM     63  H   UNL     1       4.129  -5.455  22.052  0.00  0.00    +0.210 HD
ENDBRANCH  61  62
BRANCH  60  64
ATOM     64  O   UNL     1       4.173  -7.593  23.945  0.00  0.00    -0.386 OA
ATOM     65  H   UNL     1       4.097  -7.678  22.971  0.00  0.00    +0.210 HD
ENDBRANCH  60  64
BRANCH  59  66
ATOM     66  O   UNL     1       3.014  -5.143  23.497  0.00  0.00    -0.384 OA
ATOM     67  H   UNL     1       3.351  -5.665  22.744  0.00  0.00    +0.210 HD
ENDBRANCH  59  66
ENDBRANCH  54  58
ENDBRANCH  53  54
ENDBRANCH  41  53
ENDBRANCH  40  43
ENDBRANCH  39  40
ENDBRANCH   1  39
TORSDOF 22
ENDMDL
MODEL 4
REMARK VINA RESULT:      -8.1      1.626      2.701
REMARK  Name = 
REMARK  23 active torsions:
REMARK  status: ('A' for Active; 'I' for Inactive)
REMARK    1  A    between atoms: C_1  and  C_2
REMARK    2  A    between atoms: C_3  and  O_63
REMARK    3  A    between atoms: C_5  and  O_62
REMARK    4  A    between atoms: C_6  and  O_61
REMARK    5  A    between atoms: C_8  and  O_11
REMARK    6  A    between atoms: O_11  and  C_12
REMARK    7  A    between atoms: C_12  and  C_13
REMARK    8  A    between atoms: C_14  and  O_60
REMARK    9  A    between atoms: C_16  and  O_59
REMARK   10  A    between atoms: C_18  and  O_58
REMARK   11  A    between atoms: C_19  and  O_22
REMARK   12  A    between atoms: O_22  and  C_23
REMARK   13  A    between atoms: C_23  and  C_24
REMARK   14  A    between atoms: C_25  and  O_57
REMARK   15  A    between atoms: C_27  and  O_56
REMARK   16  A    between atoms: C_29  and  O_55
REMARK   17  A    between atoms: C_30  and  O_33
REMARK   18  A    between atoms: O_33  and  C_34
REMARK   19  A    between atoms: C_35  and  C_47
REMARK   20  A    between atoms: C_39  and  O_46
REMARK   21  A    between atoms: C_41  and  O_45
REMARK   22  A    between atoms: C_49  and  O_54
REMARK   23  A    between atoms: C_50  and  O_53
REMARK                            x       y       z     vdW  Elec       q    Type
REMARK                         _______ _______ _______ _____ _____    ______ ____
ROOT
ATOM      1  C   UNL     1       8.719  -0.919  25.321  0.00  0.00    +0.179 C 
ATOM      2  O   UNL     1       8.575   0.466  25.689  0.00  0.00    -0.331 OA
ATOM      3  C   UNL     1       8.162   1.302  24.585  0.00  0.00    +0.340 C 
ATOM      4  C   UNL     1       9.268   1.275  23.495  0.00  0.00    +0.214 C 
ATOM      5  C   UNL     1       9.507  -0.174  23.049  0.00  0.00    +0.180 C 
ATOM      6  C   UNL     1       9.834  -1.053  24.268  0.00  0.00    +0.177 C 
ENDROOT
BRANCH   6   7
ATOM      7  O   UNL     1      10.013  -2.409  23.848  0.00  0.00    -0.386 OA
ATOM      8  H   UNL     1      10.599  -2.388  23.069  0.00  0.00    +0.210 HD
ENDBRANCH   6   7
BRANCH   5   9
ATOM      9  O   UNL     1      10.568  -0.272  22.092  0.00  0.00    -0.386 OA
ATOM     10  H   UNL     1      10.386  -1.083  21.581  0.00  0.00    +0.210 HD
ENDBRANCH   5   9
BRANCH   4  11
ATOM     11  O   UNL     1      10.497   1.823  24.031  0.00  0.00    -0.383 OA
ATOM     12  H   UNL     1      10.948   2.288  23.302  0.00  0.00    +0.210 HD
ENDBRANCH   4  11
BRANCH   3  13
ATOM     13  O   UNL     1       8.002   2.638  25.074  0.00  0.00    -0.453 OA
BRANCH  13  14
ATOM     14  C   UNL     1       7.127   3.517  24.442  0.00  0.00    +0.214 A 
ATOM     15  C   UNL     1       5.697   3.147  24.160  0.00  0.00    +0.238 A 
ATOM     16  O   UNL     1       5.225   2.078  24.525  0.00  0.00    -0.283 OA
ATOM     17  C   UNL     1       4.869   4.105  23.416  0.00  0.00    +0.109 A 
ATOM     18  C   UNL     1       5.430   5.332  23.083  0.00  0.00    +0.147 A 
ATOM     19  C   UNL     1       4.676   6.279  22.375  0.00  0.00    +0.092 A 
ATOM     20  C   UNL     1       3.364   5.978  22.019  0.00  0.00    +0.124 A 
ATOM     21  C   UNL     1       2.795   4.751  22.342  0.00  0.00    +0.091 A 
ATOM     22  O   UNL     1       6.723   5.670  23.393  0.00  0.00    -0.451 OA
ATOM     23  C   UNL     1       3.552   3.811  23.035  0.00  0.00    +0.135 A 
ATOM     24  C   UNL     1       7.542   4.746  24.048  0.00  0.00    +0.181 A 
BRANCH  24  25
ATOM     25  C   UNL     1       8.943   5.254  24.247  0.00  0.00    +0.025 A 
ATOM     26  C   UNL     1       9.252   6.082  25.352  0.00  0.00    +0.015 A 
ATOM     27  C   UNL     1      10.548   6.574  25.563  0.00  0.00    +0.050 A 
ATOM     28  C   UNL     1      11.553   6.250  24.665  0.00  0.00    +0.158 A 
ATOM     29  C   UNL     1      11.282   5.438  23.574  0.00  0.00    +0.159 A 
ATOM     30  C   UNL     1       9.998   4.929  23.373  0.00  0.00    +0.060 A 
BRANCH  29  31
ATOM     31  O   UNL     1      12.310   5.161  22.715  0.00  0.00    -0.503 OA
ATOM     32  H   UNL     1      12.370   4.194  22.620  0.00  0.00    +0.292 HD
ENDBRANCH  29  31
BRANCH  28  33
ATOM     33  O   UNL     1      12.818   6.733  24.860  0.00  0.00    -0.503 OA
ATOM     34  H   UNL     1      13.372   6.222  24.241  0.00  0.00    +0.292 HD
ENDBRANCH  28  33
ENDBRANCH  24  25
BRANCH  23  35
ATOM     35  O   UNL     1       2.979   2.608  23.331  0.00  0.00    -0.506 OA
ATOM     36  H   UNL     1       2.765   2.557  24.275  0.00  0.00    +0.292 HD
ENDBRANCH  23  35
BRANCH  20  37
ATOM     37  O   UNL     1       2.580   6.861  21.342  0.00  0.00    -0.507 OA
ATOM     38  H   UNL     1       1.659   6.558  21.370  0.00  0.00    +0.292 HD
ENDBRANCH  20  37
ENDBRANCH  13  14
ENDBRANCH   3  13
BRANCH   1  39
ATOM     39  C   UNL     1       7.415  -1.614  24.846  0.00  0.00    +0.197 C 
BRANCH  39  40
ATOM     40  O   UNL     1       7.424  -3.015  25.137  0.00  0.00    -0.346 OA
BRANCH  40  43
ATOM     41  C   UNL     1       6.011  -5.927  23.422  0.00  0.00    +0.178 C 
ATOM     42  O   UNL     1       6.882  -5.119  24.237  0.00  0.00    -0.341 OA
ATOM     43  C   UNL     1       6.539  -3.725  24.260  0.00  0.00    +0.282 C 
ATOM     44  C   UNL     1       6.665  -3.157  22.832  0.00  0.00    +0.201 C 
ATOM     45  C   UNL     1       5.674  -3.915  21.937  0.00  0.00    +0.179 C 
ATOM     46  C   UNL     1       5.988  -5.416  21.962  0.00  0.00    +0.177 C 
BRANCH  46  47
ATOM     47  O   UNL     1       5.053  -6.085  21.110  0.00  0.00    -0.386 OA
ATOM     48  H   UNL     1       4.159  -5.801  21.381  0.00  0.00    +0.210 HD
ENDBRANCH  46  47
BRANCH  45  49
ATOM     49  O   UNL     1       5.693  -3.431  20.590  0.00  0.00    -0.386 OA
ATOM     50  H   UNL     1       5.942  -4.202  20.043  0.00  0.00    +0.210 HD
ENDBRANCH  45  49
BRANCH  44  51
ATOM     51  O   UNL     1       8.010  -3.351  22.346  0.00  0.00    -0.384 OA
ATOM     52  H   UNL     1       8.581  -2.741  22.852  0.00  0.00    +0.210 HD
ENDBRANCH  44  51
BRANCH  41  53
ATOM     53  C   UNL     1       4.636  -6.057  24.098  0.00  0.00    +0.197 C 
BRANCH  53  54
ATOM     54  O   UNL     1       4.675  -6.971  25.185  0.00  0.00    -0.346 OA
BRANCH  54  58
ATOM     55  C   UNL     1       2.432  -4.491  27.934  0.00  0.00    +0.041 C 
ATOM     56  C   UNL     1       3.805  -4.156  27.356  0.00  0.00    +0.149 C 
ATOM     57  O   UNL     1       4.079  -4.941  26.189  0.00  0.00    -0.343 OA
ATOM     58  C   UNL     1       4.363  -6.322  26.423  0.00  0.00    +0.282 C 
ATOM     59  C   UNL     1       5.550  -6.513  27.386  0.00  0.00    +0.201 C 
ATOM     60  C   UNL     1       5.279  -5.743  28.681  0.00  0.00    +0.179 C 
ATOM     61  C   UNL     1       4.942  -4.273  28.379  0.00  0.00    +0.174 C 
BRANCH  61  62
ATOM     62  O   UNL     1       6.127  -3.639  27.860  0.00  0.00    -0.387 OA
ATOM     63  H   UNL     1       6.881  -4.230  28.091  0.00  0.00    +0.210 HD
ENDBRANCH  61  62
BRANCH  60  64
ATOM     64  O   UNL     1       6.443  -5.807  29.517  0.00  0.00    -0.386 OA
ATOM     65  H   UNL     1       7.092  -6.349  29.020  0.00  0.00    +0.210 HD
ENDBRANCH  60  64
BRANCH  59  66
ATOM     66  O   UNL     1       6.775  -6.017  26.799  0.00  0.00    -0.384 OA
ATOM     67  H   UNL     1       7.246  -6.810  26.481  0.00  0.00    +0.210 HD
ENDBRANCH  59  66
ENDBRANCH  54  58
ENDBRANCH  53  54
ENDBRANCH  41  53
ENDBRANCH  40  43
ENDBRANCH  39  40
ENDBRANCH   1  39
TORSDOF 22
ENDMDL
MODEL 5
REMARK VINA RESULT:      -7.9      3.072      9.282
REMARK  Name = 
REMARK  23 active torsions:
REMARK  status: ('A' for Active; 'I' for Inactive)
REMARK    1  A    between atoms: C_1  and  C_2
REMARK    2  A    between atoms: C_3  and  O_63
REMARK    3  A    between atoms: C_5  and  O_62
REMARK    4  A    between atoms: C_6  and  O_61
REMARK    5  A    between atoms: C_8  and  O_11
REMARK    6  A    between atoms: O_11  and  C_12
REMARK    7  A    between atoms: C_12  and  C_13
REMARK    8  A    between atoms: C_14  and  O_60
REMARK    9  A    between atoms: C_16  and  O_59
REMARK   10  A    between atoms: C_18  and  O_58
REMARK   11  A    between atoms: C_19  and  O_22
REMARK   12  A    between atoms: O_22  and  C_23
REMARK   13  A    between atoms: C_23  and  C_24
REMARK   14  A    between atoms: C_25  and  O_57
REMARK   15  A    between atoms: C_27  and  O_56
REMARK   16  A    between atoms: C_29  and  O_55
REMARK   17  A    between atoms: C_30  and  O_33
REMARK   18  A    between atoms: O_33  and  C_34
REMARK   19  A    between atoms: C_35  and  C_47
REMARK   20  A    between atoms: C_39  and  O_46
REMARK   21  A    between atoms: C_41  and  O_45
REMARK   22  A    between atoms: C_49  and  O_54
REMARK   23  A    between atoms: C_50  and  O_53
REMARK                            x       y       z     vdW  Elec       q    Type
REMARK                         _______ _______ _______ _____ _____    ______ ____
ROOT
ATOM      1  C   UNL     1       3.537  -4.654  23.672  0.00  0.00    +0.179 C 
ATOM      2  O   UNL     1       2.979  -3.892  24.761  0.00  0.00    -0.331 OA
ATOM      3  C   UNL     1       2.822  -4.668  25.970  0.00  0.00    +0.340 C 
ATOM      4  C   UNL     1       1.807  -5.812  25.701  0.00  0.00    +0.214 C 
ATOM      5  C   UNL     1       2.310  -6.675  24.536  0.00  0.00    +0.180 C 
ATOM      6  C   UNL     1       2.571  -5.794  23.303  0.00  0.00    +0.177 C 
ENDROOT
BRANCH   6   7
ATOM      7  O   UNL     1       3.080  -6.601  22.236  0.00  0.00    -0.386 OA
ATOM      8  H   UNL     1       3.571  -6.004  21.641  0.00  0.00    +0.210 HD
ENDBRANCH   6   7
BRANCH   5   9
ATOM      9  O   UNL     1       1.379  -7.709  24.195  0.00  0.00    -0.386 OA
ATOM     10  H   UNL     1       1.923  -8.458  23.884  0.00  0.00    +0.210 HD
ENDBRANCH   5   9
BRANCH   4  11
ATOM     11  O   UNL     1       0.516  -5.251  25.363  0.00  0.00    -0.383 OA
ATOM     12  H   UNL     1       0.237  -4.694  26.113  0.00  0.00    +0.210 HD
ENDBRANCH   4  11
BRANCH   3  13
ATOM     13  O   UNL     1       2.314  -3.802  26.990  0.00  0.00    -0.453 OA
BRANCH  13  14
ATOM     14  C   UNL     1       2.992  -2.632  27.321  0.00  0.00    +0.214 A 
ATOM     15  C   UNL     1       2.424  -1.274  27.014  0.00  0.00    +0.238 A 
ATOM     16  O   UNL     1       1.316  -1.138  26.512  0.00  0.00    -0.283 OA
ATOM     17  C   UNL     1       3.244  -0.096  27.324  0.00  0.00    +0.109 A 
ATOM     18  C   UNL     1       4.466  -0.299  27.955  0.00  0.00    +0.147 A 
ATOM     19  C   UNL     1       5.282   0.797  28.272  0.00  0.00    +0.092 A 
ATOM     20  C   UNL     1       4.851   2.082  27.956  0.00  0.00    +0.124 A 
ATOM     21  C   UNL     1       3.634   2.296  27.319  0.00  0.00    +0.091 A 
ATOM     22  O   UNL     1       4.945  -1.545  28.271  0.00  0.00    -0.451 OA
ATOM     23  C   UNL     1       2.833   1.204  26.997  0.00  0.00    +0.135 A 
ATOM     24  C   UNL     1       4.203  -2.679  27.928  0.00  0.00    +0.181 A 
BRANCH  24  25
ATOM     25  C   UNL     1       4.905  -3.959  28.286  0.00  0.00    +0.025 A 
ATOM     26  C   UNL     1       4.410  -4.779  29.327  0.00  0.00    +0.015 A 
ATOM     27  C   UNL     1       5.045  -5.976  29.685  0.00  0.00    +0.050 A 
ATOM     28  C   UNL     1       6.191  -6.368  29.011  0.00  0.00    +0.158 A 
ATOM     29  C   UNL     1       6.698  -5.587  27.983  0.00  0.00    +0.159 A 
ATOM     30  C   UNL     1       6.057  -4.405  27.609  0.00  0.00    +0.060 A 
BRANCH  29  31
ATOM     31  O   UNL     1       7.838  -6.017  27.360  0.00  0.00    -0.503 OA
ATOM     32  H   UNL     1       8.274  -6.662  27.944  0.00  0.00    +0.292 HD
ENDBRANCH  29  31
BRANCH  28  33
ATOM     33  O   UNL     1       6.819  -7.531  29.361  0.00  0.00    -0.503 OA
ATOM     34  H   UNL     1       6.408  -7.785  30.207  0.00  0.00    +0.292 HD
ENDBRANCH  28  33
ENDBRANCH  24  25
BRANCH  23  35
ATOM     35  O   UNL     1       1.648   1.435  26.360  0.00  0.00    -0.506 OA
ATOM     36  H   UNL     1       1.800   1.866  25.505  0.00  0.00    +0.292 HD
ENDBRANCH  23  35
BRANCH  20  37
ATOM     37  O   UNL     1       5.594   3.184  28.250  0.00  0.00    -0.507 OA
ATOM     38  H   UNL     1       6.336   2.928  28.819  0.00  0.00    +0.292 HD
ENDBRANCH  20  37
ENDBRANCH  13  14
ENDBRANCH   3  13
BRANCH   1  39
ATOM     39  C   UNL     1       4.972  -5.192  23.912  0.00  0.00    +0.197 C 
BRANCH  39  40
ATOM     40  O   UNL     1       5.866  -4.806  22.862  0.00  0.00    -0.346 OA
BRANCH  40  43
ATOM     41  C   UNL     1       8.569  -2.351  22.582  0.00  0.00    +0.178 C 
ATOM     42  O   UNL     1       7.689  -3.448  22.266  0.00  0.00    -0.341 OA
ATOM     43  C   UNL     1       6.728  -3.743  23.289  0.00  0.00    +0.282 C 
ATOM     44  C   UNL     1       7.477  -4.170  24.568  0.00  0.00    +0.201 C 
ATOM     45  C   UNL     1       8.355  -2.993  25.013  0.00  0.00    +0.179 C 
ATOM     46  C   UNL     1       9.339  -2.621  23.896  0.00  0.00    +0.177 C 
BRANCH  46  47
ATOM     47  O   UNL     1      10.145  -1.530  24.351  0.00  0.00    -0.386 OA
ATOM     48  H   UNL     1      10.122  -0.844  23.656  0.00  0.00    +0.210 HD
ENDBRANCH  46  47
BRANCH  45  49
ATOM     49  O   UNL     1       9.068  -3.283  26.219  0.00  0.00    -0.386 OA
ATOM     50  H   UNL     1       8.984  -4.250  26.342  0.00  0.00    +0.210 HD
ENDBRANCH  45  49
BRANCH  44  51
ATOM     51  O   UNL     1       8.305  -5.319  24.288  0.00  0.00    -0.384 OA
ATOM     52  H   UNL     1       8.036  -5.651  23.409  0.00  0.00    +0.210 HD
ENDBRANCH  44  51
BRANCH  41  53
ATOM     53  C   UNL     1       7.791  -1.026  22.532  0.00  0.00    +0.197 C 
BRANCH  53  54
ATOM     54  O   UNL     1       8.661   0.093  22.617  0.00  0.00    -0.346 OA
BRANCH  54  58
ATOM     55  C   UNL     1       6.359   3.745  22.306  0.00  0.00    +0.041 C 
ATOM     56  C   UNL     1       7.822   3.653  22.730  0.00  0.00    +0.149 C 
ATOM     57  O   UNL     1       8.397   2.402  22.333  0.00  0.00    -0.343 OA
ATOM     58  C   UNL     1       7.968   1.259  23.076  0.00  0.00    +0.282 C 
ATOM     59  C   UNL     1       8.230   1.418  24.586  0.00  0.00    +0.201 C 
ATOM     60  C   UNL     1       7.580   2.715  25.077  0.00  0.00    +0.179 C 
ATOM     61  C   UNL     1       8.041   3.910  24.227  0.00  0.00    +0.174 C 
BRANCH  61  62
ATOM     62  O   UNL     1       9.442   4.128  24.481  0.00  0.00    -0.387 OA
ATOM     63  H   UNL     1       9.918   3.845  23.665  0.00  0.00    +0.210 HD
ENDBRANCH  61  62
BRANCH  60  64
ATOM     64  O   UNL     1       7.943   2.932  26.448  0.00  0.00    -0.386 OA
ATOM     65  H   UNL     1       8.717   2.350  26.608  0.00  0.00    +0.210 HD
ENDBRANCH  60  64
BRANCH  59  66
ATOM     66  O   UNL     1       9.649   1.479  24.858  0.00  0.00    -0.384 OA
ATOM     67  H   UNL     1       9.718   1.628  25.821  0.00  0.00    +0.210 HD
ENDBRANCH  59  66
ENDBRANCH  54  58
ENDBRANCH  53  54
ENDBRANCH  41  53
ENDBRANCH  40  43
ENDBRANCH  39  40
ENDBRANCH   1  39
TORSDOF 22
ENDMDL
MODEL 6
REMARK VINA RESULT:      -7.8      2.827      4.995
REMARK  Name = 
REMARK  23 active torsions:
REMARK  status: ('A' for Active; 'I' for Inactive)
REMARK    1  A    between atoms: C_1  and  C_2
REMARK    2  A    between atoms: C_3  and  O_63
REMARK    3  A    between atoms: C_5  and  O_62
REMARK    4  A    between atoms: C_6  and  O_61
REMARK    5  A    between atoms: C_8  and  O_11
REMARK    6  A    between atoms: O_11  and  C_12
REMARK    7  A    between atoms: C_12  and  C_13
REMARK    8  A    between atoms: C_14  and  O_60
REMARK    9  A    between atoms: C_16  and  O_59
REMARK   10  A    between atoms: C_18  and  O_58
REMARK   11  A    between atoms: C_19  and  O_22
REMARK   12  A    between atoms: O_22  and  C_23
REMARK   13  A    between atoms: C_23  and  C_24
REMARK   14  A    between atoms: C_25  and  O_57
REMARK   15  A    between atoms: C_27  and  O_56
REMARK   16  A    between atoms: C_29  and  O_55
REMARK   17  A    between atoms: C_30  and  O_33
REMARK   18  A    between atoms: O_33  and  C_34
REMARK   19  A    between atoms: C_35  and  C_47
REMARK   20  A    between atoms: C_39  and  O_46
REMARK   21  A    between atoms: C_41  and  O_45
REMARK   22  A    between atoms: C_49  and  O_54
REMARK   23  A    between atoms: C_50  and  O_53
REMARK                            x       y       z     vdW  Elec       q    Type
REMARK                         _______ _______ _______ _____ _____    ______ ____
ROOT
ATOM      1  C   UNL     1       8.982  -3.589  26.557  0.00  0.00    +0.179 C 
ATOM      2  O   UNL     1       8.821  -2.213  26.954  0.00  0.00    -0.331 OA
ATOM      3  C   UNL     1       8.089  -1.429  25.986  0.00  0.00    +0.340 C 
ATOM      4  C   UNL     1       8.900  -1.385  24.663  0.00  0.00    +0.214 C 
ATOM      5  C   UNL     1       9.139  -2.818  24.166  0.00  0.00    +0.180 C 
ATOM      6  C   UNL     1       9.819  -3.650  25.266  0.00  0.00    +0.177 C 
ENDROOT
BRANCH   6   7
ATOM      7  O   UNL     1       9.999  -4.994  24.809  0.00  0.00    -0.386 OA
ATOM      8  H   UNL     1      10.910  -5.056  24.467  0.00  0.00    +0.210 HD
ENDBRANCH   6   7
BRANCH   5   9
ATOM      9  O   UNL     1       9.944  -2.846  22.980  0.00  0.00    -0.386 OA
ATOM     10  H   UNL     1       9.338  -2.623  22.248  0.00  0.00    +0.210 HD
ENDBRANCH   5   9
BRANCH   4  11
ATOM     11  O   UNL     1      10.173  -0.735  24.889  0.00  0.00    -0.383 OA
ATOM     12  H   UNL     1      10.862  -1.422  24.835  0.00  0.00    +0.210 HD
ENDBRANCH   4  11
BRANCH   3  13
ATOM     13  O   UNL     1       7.945  -0.103  26.506  0.00  0.00    -0.453 OA
BRANCH  13  14
ATOM     14  C   UNL     1       6.759   0.602  26.314  0.00  0.00    +0.214 A 
ATOM     15  C   UNL     1       5.569   0.411  27.213  0.00  0.00    +0.238 A 
ATOM     16  O   UNL     1       5.611  -0.329  28.187  0.00  0.00    -0.283 OA
ATOM     17  C   UNL     1       4.334   1.135  26.888  0.00  0.00    +0.109 A 
ATOM     18  C   UNL     1       4.357   2.015  25.812  0.00  0.00    +0.147 A 
ATOM     19  C   UNL     1       3.201   2.730  25.466  0.00  0.00    +0.092 A 
ATOM     20  C   UNL     1       2.041   2.553  26.213  0.00  0.00    +0.124 A 
ATOM     21  C   UNL     1       2.004   1.670  27.286  0.00  0.00    +0.091 A 
ATOM     22  O   UNL     1       5.469   2.212  25.033  0.00  0.00    -0.451 OA
ATOM     23  C   UNL     1       3.151   0.955  27.619  0.00  0.00    +0.135 A 
ATOM     24  C   UNL     1       6.635   1.486  25.294  0.00  0.00    +0.181 A 
BRANCH  24  25
ATOM     25  C   UNL     1       7.729   1.773  24.304  0.00  0.00    +0.025 A 
ATOM     26  C   UNL     1       8.883   2.488  24.703  0.00  0.00    +0.015 A 
ATOM     27  C   UNL     1       9.919   2.774  23.803  0.00  0.00    +0.050 A 
ATOM     28  C   UNL     1       9.811   2.356  22.485  0.00  0.00    +0.158 A 
ATOM     29  C   UNL     1       8.693   1.651  22.065  0.00  0.00    +0.159 A 
ATOM     30  C   UNL     1       7.670   1.345  22.964  0.00  0.00    +0.060 A 
BRANCH  29  31
ATOM     31  O   UNL     1       8.635   1.273  20.751  0.00  0.00    -0.503 OA
ATOM     32  H   UNL     1       9.499   1.467  20.345  0.00  0.00    +0.292 HD
ENDBRANCH  29  31
BRANCH  28  33
ATOM     33  O   UNL     1      10.814   2.639  21.600  0.00  0.00    -0.503 OA
ATOM     34  H   UNL     1      10.901   1.829  21.063  0.00  0.00    +0.292 HD
ENDBRANCH  28  33
ENDBRANCH  24  25
BRANCH  23  35
ATOM     35  O   UNL     1       3.091   0.084  28.669  0.00  0.00    -0.506 OA
ATOM     36  H   UNL     1       2.905  -0.814  28.354  0.00  0.00    +0.292 HD
ENDBRANCH  23  35
BRANCH  20  37
ATOM     37  O   UNL     1       0.892   3.227  25.931  0.00  0.00    -0.507 OA
ATOM     38  H   UNL     1       0.686   3.828  26.664  0.00  0.00    +0.292 HD
ENDBRANCH  20  37
ENDBRANCH  13  14
ENDBRANCH   3  13
BRANCH   1  39
ATOM     39  C   UNL     1       7.662  -4.391  26.406  0.00  0.00    +0.197 C 
BRANCH  39  40
ATOM     40  O   UNL     1       7.451  -5.276  27.511  0.00  0.00    -0.346 OA
BRANCH  40  43
ATOM     41  C   UNL     1       3.852  -5.377  26.835  0.00  0.00    +0.178 C 
ATOM     42  O   UNL     1       5.197  -4.878  26.969  0.00  0.00    -0.341 OA
ATOM     43  C   UNL     1       6.136  -5.845  27.465  0.00  0.00    +0.282 C 
ATOM     44  C   UNL     1       5.709  -6.271  28.884  0.00  0.00    +0.201 C 
ATOM     45  C   UNL     1       4.317  -6.911  28.784  0.00  0.00    +0.179 C 
ATOM     46  C   UNL     1       3.321  -5.908  28.187  0.00  0.00    +0.177 C 
BRANCH  46  47
ATOM     47  O   UNL     1       2.037  -6.535  28.120  0.00  0.00    -0.386 OA
ATOM     48  H   UNL     1       1.883  -6.974  28.979  0.00  0.00    +0.210 HD
ENDBRANCH  46  47
BRANCH  45  49
ATOM     49  O   UNL     1       3.848  -7.373  30.055  0.00  0.00    -0.386 OA
ATOM     50  H   UNL     1       2.986  -7.798  29.872  0.00  0.00    +0.210 HD
ENDBRANCH  45  49
BRANCH  44  51
ATOM     51  O   UNL     1       5.654  -5.114  29.746  0.00  0.00    -0.384 OA
ATOM     52  H   UNL     1       4.905  -5.254  30.356  0.00  0.00    +0.210 HD
ENDBRANCH  44  51
BRANCH  41  53
ATOM     53  C   UNL     1       3.778  -6.367  25.661  0.00  0.00    +0.197 C 
BRANCH  53  54
ATOM     54  O   UNL     1       3.506  -5.703  24.436  0.00  0.00    -0.346 OA
BRANCH  54  58
ATOM     55  C   UNL     1       5.736  -2.192  23.233  0.00  0.00    +0.041 C 
ATOM     56  C   UNL     1       5.318  -3.336  22.312  0.00  0.00    +0.149 C 
ATOM     57  O   UNL     1       4.261  -4.109  22.895  0.00  0.00    -0.343 OA
ATOM     58  C   UNL     1       4.638  -4.946  23.990  0.00  0.00    +0.282 C 
ATOM     59  C   UNL     1       5.760  -5.931  23.607  0.00  0.00    +0.201 C 
ATOM     60  C   UNL     1       6.944  -5.147  23.033  0.00  0.00    +0.179 C 
ATOM     61  C   UNL     1       6.487  -4.234  21.885  0.00  0.00    +0.174 C 
BRANCH  61  62
ATOM     62  O   UNL     1       6.079  -5.067  20.783  0.00  0.00    -0.387 OA
ATOM     63  H   UNL     1       6.489  -4.679  19.975  0.00  0.00    +0.210 HD
ENDBRANCH  61  62
BRANCH  60  64
ATOM     64  O   UNL     1       7.928  -6.072  22.549  0.00  0.00    -0.386 OA
ATOM     65  H   UNL     1       8.107  -6.679  23.299  0.00  0.00    +0.210 HD
ENDBRANCH  60  64
BRANCH  59  66
ATOM     66  O   UNL     1       5.301  -6.872  22.610  0.00  0.00    -0.384 OA
ATOM     67  H   UNL     1       5.539  -6.473  21.752  0.00  0.00    +0.210 HD
ENDBRANCH  59  66
ENDBRANCH  54  58
ENDBRANCH  53  54
ENDBRANCH  41  53
ENDBRANCH  40  43
ENDBRANCH  39  40
ENDBRANCH   1  39
TORSDOF 22
ENDMDL
MODEL 7
REMARK VINA RESULT:      -7.8      2.680      5.855
REMARK  Name = 
REMARK  23 active torsions:
REMARK  status: ('A' for Active; 'I' for Inactive)
REMARK    1  A    between atoms: C_1  and  C_2
REMARK    2  A    between atoms: C_3  and  O_63
REMARK    3  A    between atoms: C_5  and  O_62
REMARK    4  A    between atoms: C_6  and  O_61
REMARK    5  A    between atoms: C_8  and  O_11
REMARK    6  A    between atoms: O_11  and  C_12
REMARK    7  A    between atoms: C_12  and  C_13
REMARK    8  A    between atoms: C_14  and  O_60
REMARK    9  A    between atoms: C_16  and  O_59
REMARK   10  A    between atoms: C_18  and  O_58
REMARK   11  A    between atoms: C_19  and  O_22
REMARK   12  A    between atoms: O_22  and  C_23
REMARK   13  A    between atoms: C_23  and  C_24
REMARK   14  A    between atoms: C_25  and  O_57
REMARK   15  A    between atoms: C_27  and  O_56
REMARK   16  A    between atoms: C_29  and  O_55
REMARK   17  A    between atoms: C_30  and  O_33
REMARK   18  A    between atoms: O_33  and  C_34
REMARK   19  A    between atoms: C_35  and  C_47
REMARK   20  A    between atoms: C_39  and  O_46
REMARK   21  A    between atoms: C_41  and  O_45
REMARK   22  A    between atoms: C_49  and  O_54
REMARK   23  A    between atoms: C_50  and  O_53
REMARK                            x       y       z     vdW  Elec       q    Type
REMARK                         _______ _______ _______ _____ _____    ______ ____
ROOT
ATOM      1  C   UNL     1       9.047  -3.218  26.383  0.00  0.00    +0.179 C 
ATOM      2  O   UNL     1       9.053  -1.814  26.710  0.00  0.00    -0.331 OA
ATOM      3  C   UNL     1       8.330  -1.009  25.753  0.00  0.00    +0.340 C 
ATOM      4  C   UNL     1       9.037  -1.117  24.374  0.00  0.00    +0.214 C 
ATOM      5  C   UNL     1       9.094  -2.589  23.946  0.00  0.00    +0.180 C 
ATOM      6  C   UNL     1       9.771  -3.430  25.041  0.00  0.00    +0.177 C 
ENDROOT
BRANCH   6   7
ATOM      7  O   UNL     1       9.781  -4.807  24.652  0.00  0.00    -0.386 OA
ATOM      8  H   UNL     1       8.872  -5.140  24.769  0.00  0.00    +0.210 HD
ENDBRANCH   6   7
BRANCH   5   9
ATOM      9  O   UNL     1       9.798  -2.760  22.710  0.00  0.00    -0.386 OA
ATOM     10  H   UNL     1      10.006  -1.858  22.401  0.00  0.00    +0.210 HD
ENDBRANCH   5   9
BRANCH   4  11
ATOM     11  O   UNL     1      10.382  -0.590  24.471  0.00  0.00    -0.383 OA
ATOM     12  H   UNL     1      10.506   0.022  23.722  0.00  0.00    +0.210 HD
ENDBRANCH   4  11
BRANCH   3  13
ATOM     13  O   UNL     1       8.358   0.349  26.204  0.00  0.00    -0.453 OA
BRANCH  13  14
ATOM     14  C   UNL     1       7.686   1.339  25.492  0.00  0.00    +0.214 A 
ATOM     15  C   UNL     1       8.418   2.341  24.643  0.00  0.00    +0.238 A 
ATOM     16  O   UNL     1       9.633   2.294  24.495  0.00  0.00    -0.283 OA
ATOM     17  C   UNL     1       7.636   3.400  23.993  0.00  0.00    +0.109 A 
ATOM     18  C   UNL     1       6.253   3.371  24.136  0.00  0.00    +0.147 A 
ATOM     19  C   UNL     1       5.465   4.361  23.531  0.00  0.00    +0.092 A 
ATOM     20  C   UNL     1       6.081   5.361  22.785  0.00  0.00    +0.124 A 
ATOM     21  C   UNL     1       7.463   5.404  22.641  0.00  0.00    +0.091 A 
ATOM     22  O   UNL     1       5.599   2.419  24.876  0.00  0.00    -0.451 OA
ATOM     23  C   UNL     1       8.241   4.425  23.252  0.00  0.00    +0.135 A 
ATOM     24  C   UNL     1       6.335   1.439  25.549  0.00  0.00    +0.181 A 
BRANCH  24  25
ATOM     25  C   UNL     1       5.467   0.522  26.364  0.00  0.00    +0.025 A 
ATOM     26  C   UNL     1       5.407   0.658  27.771  0.00  0.00    +0.015 A 
ATOM     27  C   UNL     1       4.609  -0.184  28.558  0.00  0.00    +0.050 A 
ATOM     28  C   UNL     1       3.864  -1.182  27.948  0.00  0.00    +0.158 A 
ATOM     29  C   UNL     1       3.900  -1.338  26.571  0.00  0.00    +0.159 A 
ATOM     30  C   UNL     1       4.676  -0.488  25.782  0.00  0.00    +0.060 A 
BRANCH  29  31
ATOM     31  O   UNL     1       3.153  -2.346  26.025  0.00  0.00    -0.503 OA
ATOM     32  H   UNL     1       2.582  -1.959  25.337  0.00  0.00    +0.292 HD
ENDBRANCH  29  31
BRANCH  28  33
ATOM     33  O   UNL     1       3.090  -2.012  28.711  0.00  0.00    -0.503 OA
ATOM     34  H   UNL     1       2.192  -1.637  28.644  0.00  0.00    +0.292 HD
ENDBRANCH  28  33
ENDBRANCH  24  25
BRANCH  23  35
ATOM     35  O   UNL     1       9.597   4.492  23.109  0.00  0.00    -0.506 OA
ATOM     36  H   UNL     1       9.830   4.812  22.224  0.00  0.00    +0.292 HD
ENDBRANCH  23  35
BRANCH  20  37
ATOM     37  O   UNL     1       5.368   6.342  22.165  0.00  0.00    -0.507 OA
ATOM     38  H   UNL     1       5.029   6.961  22.831  0.00  0.00    +0.292 HD
ENDBRANCH  20  37
ENDBRANCH  13  14
ENDBRANCH   3  13
BRANCH   1  39
ATOM     39  C   UNL     1       7.646  -3.886  26.375  0.00  0.00    +0.197 C 
BRANCH  39  40
ATOM     40  O   UNL     1       7.466  -4.754  27.498  0.00  0.00    -0.346 OA
BRANCH  40  43
ATOM     41  C   UNL     1       3.869  -5.133  26.921  0.00  0.00    +0.178 C 
ATOM     42  O   UNL     1       5.164  -4.521  27.081  0.00  0.00    -0.341 OA
ATOM     43  C   UNL     1       6.212  -5.444  27.415  0.00  0.00    +0.282 C 
ATOM     44  C   UNL     1       5.889  -6.092  28.777  0.00  0.00    +0.201 C 
ATOM     45  C   UNL     1       4.563  -6.851  28.633  0.00  0.00    +0.179 C 
ATOM     46  C   UNL     1       3.451  -5.886  28.205  0.00  0.00    +0.177 C 
BRANCH  46  47
ATOM     47  O   UNL     1       2.232  -6.627  28.093  0.00  0.00    -0.386 OA
ATOM     48  H   UNL     1       1.692  -6.418  28.880  0.00  0.00    +0.210 HD
ENDBRANCH  46  47
BRANCH  45  49
ATOM     49  O   UNL     1       4.196  -7.520  29.844  0.00  0.00    -0.386 OA
ATOM     50  H   UNL     1       3.223  -7.609  29.804  0.00  0.00    +0.210 HD
ENDBRANCH  45  49
BRANCH  44  51
ATOM     51  O   UNL     1       5.760  -5.068  29.786  0.00  0.00    -0.384 OA
ATOM     52  H   UNL     1       6.649  -4.684  29.910  0.00  0.00    +0.210 HD
ENDBRANCH  44  51
BRANCH  41  53
ATOM     53  C   UNL     1       3.841  -5.964  25.628  0.00  0.00    +0.197 C 
BRANCH  53  54
ATOM     54  O   UNL     1       3.530  -5.161  24.499  0.00  0.00    -0.346 OA
BRANCH  54  58
ATOM     55  C   UNL     1       6.056  -2.140  22.699  0.00  0.00    +0.041 C 
ATOM     56  C   UNL     1       5.482  -3.360  21.981  0.00  0.00    +0.149 C 
ATOM     57  O   UNL     1       4.378  -3.914  22.707  0.00  0.00    -0.343 OA
ATOM     58  C   UNL     1       4.714  -4.610  23.910  0.00  0.00    +0.282 C 
ATOM     59  C   UNL     1       5.710  -5.757  23.655  0.00  0.00    +0.201 C 
ATOM     60  C   UNL     1       6.942  -5.205  22.934  0.00  0.00    +0.179 C 
ATOM     61  C   UNL     1       6.532  -4.434  21.669  0.00  0.00    +0.174 C 
BRANCH  61  62
ATOM     62  O   UNL     1       5.992  -5.377  20.723  0.00  0.00    -0.387 OA
ATOM     63  H   UNL     1       6.031  -6.260  21.161  0.00  0.00    +0.210 HD
ENDBRANCH  61  62
BRANCH  60  64
ATOM     64  O   UNL     1       7.803  -6.295  22.574  0.00  0.00    -0.386 OA
ATOM     65  H   UNL     1       8.618  -6.170  23.105  0.00  0.00    +0.210 HD
ENDBRANCH  60  64
BRANCH  59  66
ATOM     66  O   UNL     1       5.112  -6.785  22.832  0.00  0.00    -0.384 OA
ATOM     67  H   UNL     1       4.915  -6.349  21.981  0.00  0.00    +0.210 HD
ENDBRANCH  59  66
ENDBRANCH  54  58
ENDBRANCH  53  54
ENDBRANCH  41  53
ENDBRANCH  40  43
ENDBRANCH  39  40
ENDBRANCH   1  39
TORSDOF 22
ENDMDL
MODEL 8
REMARK VINA RESULT:      -7.6      2.467     10.389
REMARK  Name = 
REMARK  23 active torsions:
REMARK  status: ('A' for Active; 'I' for Inactive)
REMARK    1  A    between atoms: C_1  and  C_2
REMARK    2  A    between atoms: C_3  and  O_63
REMARK    3  A    between atoms: C_5  and  O_62
REMARK    4  A    between atoms: C_6  and  O_61
REMARK    5  A    between atoms: C_8  and  O_11
REMARK    6  A    between atoms: O_11  and  C_12
REMARK    7  A    between atoms: C_12  and  C_13
REMARK    8  A    between atoms: C_14  and  O_60
REMARK    9  A    between atoms: C_16  and  O_59
REMARK   10  A    between atoms: C_18  and  O_58
REMARK   11  A    between atoms: C_19  and  O_22
REMARK   12  A    between atoms: O_22  and  C_23
REMARK   13  A    between atoms: C_23  and  C_24
REMARK   14  A    between atoms: C_25  and  O_57
REMARK   15  A    between atoms: C_27  and  O_56
REMARK   16  A    between atoms: C_29  and  O_55
REMARK   17  A    between atoms: C_30  and  O_33
REMARK   18  A    between atoms: O_33  and  C_34
REMARK   19  A    between atoms: C_35  and  C_47
REMARK   20  A    between atoms: C_39  and  O_46
REMARK   21  A    between atoms: C_41  and  O_45
REMARK   22  A    between atoms: C_49  and  O_54
REMARK   23  A    between atoms: C_50  and  O_53
REMARK                            x       y       z     vdW  Elec       q    Type
REMARK                         _______ _______ _______ _____ _____    ______ ____
ROOT
ATOM      1  C   UNL     1       7.896  -1.031  25.620  0.00  0.00    +0.179 C 
ATOM      2  O   UNL     1       7.548  -2.407  25.373  0.00  0.00    -0.331 OA
ATOM      3  C   UNL     1       8.703  -3.266  25.243  0.00  0.00    +0.340 C 
ATOM      4  C   UNL     1       9.522  -2.816  24.002  0.00  0.00    +0.214 C 
ATOM      5  C   UNL     1       9.926  -1.345  24.166  0.00  0.00    +0.180 C 
ATOM      6  C   UNL     1       8.679  -0.481  24.415  0.00  0.00    +0.177 C 
ENDROOT
BRANCH   6   7
ATOM      7  O   UNL     1       9.070   0.883  24.609  0.00  0.00    -0.386 OA
ATOM      8  H   UNL     1      10.004   0.949  24.336  0.00  0.00    +0.210 HD
ENDBRANCH   6   7
BRANCH   5   9
ATOM      9  O   UNL     1      10.628  -0.851  23.019  0.00  0.00    -0.386 OA
ATOM     10  H   UNL     1      11.304  -0.241  23.368  0.00  0.00    +0.210 HD
ENDBRANCH   5   9
BRANCH   4  11
ATOM     11  O   UNL     1       8.721  -2.965  22.805  0.00  0.00    -0.383 OA
ATOM     12  H   UNL     1       8.204  -2.146  22.700  0.00  0.00    +0.210 HD
ENDBRANCH   4  11
BRANCH   3  13
ATOM     13  O   UNL     1       8.240  -4.607  25.054  0.00  0.00    -0.453 OA
BRANCH  13  14
ATOM     14  C   UNL     1       7.033  -5.019  25.612  0.00  0.00    +0.214 A 
ATOM     15  C   UNL     1       6.926  -5.423  27.057  0.00  0.00    +0.238 A 
ATOM     16  O   UNL     1       7.882  -5.352  27.818  0.00  0.00    -0.283 OA
ATOM     17  C   UNL     1       5.633  -5.922  27.541  0.00  0.00    +0.109 A 
ATOM     18  C   UNL     1       4.560  -5.919  26.657  0.00  0.00    +0.147 A 
ATOM     19  C   UNL     1       3.305  -6.384  27.076  0.00  0.00    +0.092 A 
ATOM     20  C   UNL     1       3.147  -6.838  28.382  0.00  0.00    +0.124 A 
ATOM     21  C   UNL     1       4.215  -6.852  29.272  0.00  0.00    +0.091 A 
ATOM     22  O   UNL     1       4.667  -5.500  25.355  0.00  0.00    -0.451 OA
ATOM     23  C   UNL     1       5.461  -6.399  28.848  0.00  0.00    +0.135 A 
ATOM     24  C   UNL     1       5.906  -5.079  24.863  0.00  0.00    +0.181 A 
BRANCH  24  25
ATOM     25  C   UNL     1       5.857  -4.721  23.404  0.00  0.00    +0.025 A 
ATOM     26  C   UNL     1       5.552  -3.400  23.002  0.00  0.00    +0.015 A 
ATOM     27  C   UNL     1       5.496  -3.037  21.649  0.00  0.00    +0.050 A 
ATOM     28  C   UNL     1       5.737  -3.995  20.676  0.00  0.00    +0.158 A 
ATOM     29  C   UNL     1       6.043  -5.298  21.039  0.00  0.00    +0.159 A 
ATOM     30  C   UNL     1       6.121  -5.658  22.385  0.00  0.00    +0.060 A 
BRANCH  29  31
ATOM     31  O   UNL     1       6.261  -6.203  20.037  0.00  0.00    -0.503 OA
ATOM     32  H   UNL     1       7.170  -6.539  20.128  0.00  0.00    +0.292 HD
ENDBRANCH  29  31
BRANCH  28  33
ATOM     33  O   UNL     1       5.676  -3.649  19.354  0.00  0.00    -0.503 OA
ATOM     34  H   UNL     1       6.351  -2.952  19.254  0.00  0.00    +0.292 HD
ENDBRANCH  28  33
ENDBRANCH  24  25
BRANCH  23  35
ATOM     35  O   UNL     1       6.499  -6.432  29.734  0.00  0.00    -0.506 OA
ATOM     36  H   UNL     1       6.307  -5.873  30.503  0.00  0.00    +0.292 HD
ENDBRANCH  23  35
BRANCH  20  37
ATOM     37  O   UNL     1       1.951  -7.290  28.849  0.00  0.00    -0.507 OA
ATOM     38  H   UNL     1       1.747  -6.849  29.688  0.00  0.00    +0.292 HD
ENDBRANCH  20  37
ENDBRANCH  13  14
ENDBRANCH   3  13
BRANCH   1  39
ATOM     39  C   UNL     1       8.656  -0.771  26.947  0.00  0.00    +0.197 C 
BRANCH  39  40
ATOM     40  O   UNL     1       7.842  -0.078  27.899  0.00  0.00    -0.346 OA
BRANCH  40  43
ATOM     41  C   UNL     1       5.976   2.476  26.052  0.00  0.00    +0.178 C 
ATOM     42  O   UNL     1       7.045   1.819  26.761  0.00  0.00    -0.341 OA
ATOM     43  C   UNL     1       6.704   0.517  27.260  0.00  0.00    +0.282 C 
ATOM     44  C   UNL     1       5.557   0.659  28.282  0.00  0.00    +0.201 C 
ATOM     45  C   UNL     1       4.349   1.261  27.550  0.00  0.00    +0.179 C 
ATOM     46  C   UNL     1       4.724   2.621  26.950  0.00  0.00    +0.177 C 
BRANCH  46  47
ATOM     47  O   UNL     1       3.573   3.153  26.287  0.00  0.00    -0.386 OA
ATOM     48  H   UNL     1       3.109   3.726  26.928  0.00  0.00    +0.210 HD
ENDBRANCH  46  47
BRANCH  45  49
ATOM     49  O   UNL     1       3.216   1.399  28.413  0.00  0.00    -0.386 OA
ATOM     50  H   UNL     1       3.124   2.361  28.565  0.00  0.00    +0.210 HD
ENDBRANCH  45  49
BRANCH  44  51
ATOM     51  O   UNL     1       5.965   1.535  29.354  0.00  0.00    -0.384 OA
ATOM     52  H   UNL     1       5.260   1.498  30.030  0.00  0.00    +0.210 HD
ENDBRANCH  44  51
BRANCH  41  53
ATOM     53  C   UNL     1       5.743   1.783  24.700  0.00  0.00    +0.197 C 
BRANCH  53  54
ATOM     54  O   UNL     1       6.571   2.331  23.685  0.00  0.00    -0.346 OA
BRANCH  54  58
ATOM     55  C   UNL     1       5.398   6.427  24.451  0.00  0.00    +0.041 C 
ATOM     56  C   UNL     1       5.870   5.876  23.107  0.00  0.00    +0.149 C 
ATOM     57  O   UNL     1       5.775   4.446  23.074  0.00  0.00    -0.343 OA
ATOM     58  C   UNL     1       6.742   3.743  23.856  0.00  0.00    +0.282 C 
ATOM     59  C   UNL     1       8.185   4.110  23.460  0.00  0.00    +0.201 C 
ATOM     60  C   UNL     1       8.359   5.629  23.540  0.00  0.00    +0.179 C 
ATOM     61  C   UNL     1       7.278   6.345  22.716  0.00  0.00    +0.174 C 
BRANCH  61  62
ATOM     62  O   UNL     1       7.513   6.060  21.323  0.00  0.00    -0.387 OA
ATOM     63  H   UNL     1       7.173   5.147  21.167  0.00  0.00    +0.210 HD
ENDBRANCH  61  62
BRANCH  60  64
ATOM     64  O   UNL     1       9.657   5.980  23.039  0.00  0.00    -0.386 OA
ATOM     65  H   UNL     1       9.500   6.341  22.140  0.00  0.00    +0.210 HD
ENDBRANCH  60  64
BRANCH  59  66
ATOM     66  O   UNL     1       8.474   3.681  22.110  0.00  0.00    -0.384 OA
ATOM     67  H   UNL     1       7.617   3.386  21.746  0.00  0.00    +0.210 HD
ENDBRANCH  59  66
ENDBRANCH  54  58
ENDBRANCH  53  54
ENDBRANCH  41  53
ENDBRANCH  40  43
ENDBRANCH  39  40
ENDBRANCH   1  39
TORSDOF 22
ENDMDL
MODEL 9
REMARK VINA RESULT:      -7.6      2.104      3.382
REMARK  Name = 
REMARK  23 active torsions:
REMARK  status: ('A' for Active; 'I' for Inactive)
REMARK    1  A    between atoms: C_1  and  C_2
REMARK    2  A    between atoms: C_3  and  O_63
REMARK    3  A    between atoms: C_5  and  O_62
REMARK    4  A    between atoms: C_6  and  O_61
REMARK    5  A    between atoms: C_8  and  O_11
REMARK    6  A    between atoms: O_11  and  C_12
REMARK    7  A    between atoms: C_12  and  C_13
REMARK    8  A    between atoms: C_14  and  O_60
REMARK    9  A    between atoms: C_16  and  O_59
REMARK   10  A    between atoms: C_18  and  O_58
REMARK   11  A    between atoms: C_19  and  O_22
REMARK   12  A    between atoms: O_22  and  C_23
REMARK   13  A    between atoms: C_23  and  C_24
REMARK   14  A    between atoms: C_25  and  O_57
REMARK   15  A    between atoms: C_27  and  O_56
REMARK   16  A    between atoms: C_29  and  O_55
REMARK   17  A    between atoms: C_30  and  O_33
REMARK   18  A    between atoms: O_33  and  C_34
REMARK   19  A    between atoms: C_35  and  C_47
REMARK   20  A    between atoms: C_39  and  O_46
REMARK   21  A    between atoms: C_41  and  O_45
REMARK   22  A    between atoms: C_49  and  O_54
REMARK   23  A    between atoms: C_50  and  O_53
REMARK                            x       y       z     vdW  Elec       q    Type
REMARK                         _______ _______ _______ _____ _____    ______ ____
ROOT
ATOM      1  C   UNL     1       9.178  -0.814  24.792  0.00  0.00    +0.179 C 
ATOM      2  O   UNL     1       9.098   0.572  25.175  0.00  0.00    -0.331 OA
ATOM      3  C   UNL     1       8.304   1.364  24.263  0.00  0.00    +0.340 C 
ATOM      4  C   UNL     1       8.989   1.358  22.870  0.00  0.00    +0.214 C 
ATOM      5  C   UNL     1       9.135  -0.089  22.382  0.00  0.00    +0.180 C 
ATOM      6  C   UNL     1       9.888  -0.925  23.431  0.00  0.00    +0.177 C 
ENDROOT
BRANCH   6   7
ATOM      7  O   UNL     1       9.982  -2.282  22.986  0.00  0.00    -0.386 OA
ATOM      8  H   UNL     1      10.776  -2.340  22.423  0.00  0.00    +0.210 HD
ENDBRANCH   6   7
BRANCH   5   9
ATOM      9  O   UNL     1       9.825  -0.164  21.128  0.00  0.00    -0.386 OA
ATOM     10  H   UNL     1      10.366  -0.975  21.175  0.00  0.00    +0.210 HD
ENDBRANCH   5   9
BRANCH   4  11
ATOM     11  O   UNL     1      10.298   1.970  22.964  0.00  0.00    -0.383 OA
ATOM     12  H   UNL     1      10.488   2.381  22.101  0.00  0.00    +0.210 HD
ENDBRANCH   4  11
BRANCH   3  13
ATOM     13  O   UNL     1       8.251   2.703  24.768  0.00  0.00    -0.453 OA
BRANCH  13  14
ATOM     14  C   UNL     1       7.335   3.614  24.248  0.00  0.00    +0.214 A 
ATOM     15  C   UNL     1       5.933   3.208  23.885  0.00  0.00    +0.238 A 
ATOM     16  O   UNL     1       5.519   2.074  24.085  0.00  0.00    -0.283 OA
ATOM     17  C   UNL     1       5.061   4.215  23.267  0.00  0.00    +0.109 A 
ATOM     18  C   UNL     1       5.554   5.507  23.123  0.00  0.00    +0.147 A 
ATOM     19  C   UNL     1       4.755   6.501  22.540  0.00  0.00    +0.092 A 
ATOM     20  C   UNL     1       3.469   6.182  22.118  0.00  0.00    +0.124 A 
ATOM     21  C   UNL     1       2.968   4.891  22.251  0.00  0.00    +0.091 A 
ATOM     22  O   UNL     1       6.821   5.868  23.506  0.00  0.00    -0.451 OA
ATOM     23  C   UNL     1       3.768   3.906  22.820  0.00  0.00    +0.135 A 
ATOM     24  C   UNL     1       7.684   4.907  24.041  0.00  0.00    +0.181 A 
BRANCH  24  25
ATOM     25  C   UNL     1       9.050   5.459  24.340  0.00  0.00    +0.025 A 
ATOM     26  C   UNL     1       9.247   6.315  25.449  0.00  0.00    +0.015 A 
ATOM     27  C   UNL     1      10.508   6.847  25.751  0.00  0.00    +0.050 A 
ATOM     28  C   UNL     1      11.590   6.537  24.942  0.00  0.00    +0.158 A 
ATOM     29  C   UNL     1      11.429   5.698  23.850  0.00  0.00    +0.159 A 
ATOM     30  C   UNL     1      10.180   5.148  23.558  0.00  0.00    +0.060 A 
BRANCH  29  31
ATOM     31  O   UNL     1      12.529   5.435  23.081  0.00  0.00    -0.503 OA
ATOM     32  H   UNL     1      12.939   4.616  23.412  0.00  0.00    +0.292 HD
ENDBRANCH  29  31
BRANCH  28  33
ATOM     33  O   UNL     1      12.822   7.059  25.227  0.00  0.00    -0.503 OA
ATOM     34  H   UNL     1      13.352   6.882  24.428  0.00  0.00    +0.292 HD
ENDBRANCH  28  33
ENDBRANCH  24  25
BRANCH  23  35
ATOM     35  O   UNL     1       3.262   2.643  22.930  0.00  0.00    -0.506 OA
ATOM     36  H   UNL     1       3.661   2.181  23.683  0.00  0.00    +0.292 HD
ENDBRANCH  23  35
BRANCH  20  37
ATOM     37  O   UNL     1       2.644   7.107  21.556  0.00  0.00    -0.507 OA
ATOM     38  H   UNL     1       3.107   7.957  21.500  0.00  0.00    +0.292 HD
ENDBRANCH  20  37
ENDBRANCH  13  14
ENDBRANCH   3  13
BRANCH   1  39
ATOM     39  C   UNL     1       7.825  -1.574  24.780  0.00  0.00    +0.197 C 
BRANCH  39  40
ATOM     40  O   UNL     1       8.013  -2.993  24.776  0.00  0.00    -0.346 OA
BRANCH  40  43
ATOM     41  C   UNL     1       5.045  -5.133  24.607  0.00  0.00    +0.178 C 
ATOM     42  O   UNL     1       6.215  -4.468  25.122  0.00  0.00    -0.341 OA
ATOM     43  C   UNL     1       6.900  -3.654  24.159  0.00  0.00    +0.282 C 
ATOM     44  C   UNL     1       7.407  -4.556  23.015  0.00  0.00    +0.201 C 
ATOM     45  C   UNL     1       6.185  -5.212  22.358  0.00  0.00    +0.179 C 
ATOM     46  C   UNL     1       5.405  -6.026  23.396  0.00  0.00    +0.177 C 
BRANCH  46  47
ATOM     47  O   UNL     1       4.282  -6.629  22.745  0.00  0.00    -0.386 OA
ATOM     48  H   UNL     1       3.532  -6.010  22.829  0.00  0.00    +0.210 HD
ENDBRANCH  46  47
BRANCH  45  49
ATOM     49  O   UNL     1       6.555  -6.046  21.255  0.00  0.00    -0.386 OA
ATOM     50  H   UNL     1       6.828  -6.896  21.655  0.00  0.00    +0.210 HD
ENDBRANCH  45  49
BRANCH  44  51
ATOM     51  O   UNL     1       8.281  -5.574  23.547  0.00  0.00    -0.384 OA
ATOM     52  H   UNL     1       8.512  -5.298  24.456  0.00  0.00    +0.210 HD
ENDBRANCH  44  51
BRANCH  41  53
ATOM     53  C   UNL     1       3.927  -4.106  24.362  0.00  0.00    +0.197 C 
BRANCH  53  54
ATOM     54  O   UNL     1       4.324  -2.801  24.757  0.00  0.00    -0.346 OA
BRANCH  54  58
ATOM     55  C   UNL     1       1.400  -2.835  27.950  0.00  0.00    +0.041 C 
ATOM     56  C   UNL     1       1.644  -1.678  26.983  0.00  0.00    +0.149 C 
ATOM     57  O   UNL     1       2.349  -2.121  25.816  0.00  0.00    -0.343 OA
ATOM     58  C   UNL     1       3.730  -2.432  26.008  0.00  0.00    +0.282 C 
ATOM     59  C   UNL     1       4.517  -1.241  26.587  0.00  0.00    +0.201 C 
ATOM     60  C   UNL     1       3.839  -0.767  27.875  0.00  0.00    +0.179 C 
ATOM     61  C   UNL     1       2.349  -0.479  27.632  0.00  0.00    +0.174 C 
BRANCH  61  62
ATOM     62  O   UNL     1       2.248   0.667  26.765  0.00  0.00    -0.387 OA
ATOM     63  H   UNL     1       3.168   0.997  26.635  0.00  0.00    +0.210 HD
ENDBRANCH  61  62
BRANCH  60  64
ATOM     64  O   UNL     1       4.489   0.426  28.336  0.00  0.00    -0.386 OA
ATOM     65  H   UNL     1       4.267   1.117  27.675  0.00  0.00    +0.210 HD
ENDBRANCH  60  64
BRANCH  59  66
ATOM     66  O   UNL     1       4.551  -0.141  25.649  0.00  0.00    -0.384 OA
ATOM     67  H   UNL     1       5.045  -0.478  24.877  0.00  0.00    +0.210 HD
ENDBRANCH  59  66
ENDBRANCH  54  58
ENDBRANCH  53  54
ENDBRANCH  41  53
ENDBRANCH  40  43
ENDBRANCH  39  40
ENDBRANCH   1  39
TORSDOF 22
ENDMDL
