MODEL 1
REMARK VINA RESULT:      -8.1      0.000      0.000
REMARK  Name = 
REMARK  11 active torsions:
REMARK  status: ('A' for Active; 'I' for Inactive)
REMARK    1  A    between atoms: C_1  and  C_2
REMARK    2  A    between atoms: C_4  and  O_37
REMARK    3  A    between atoms: C_6  and  O_36
REMARK    4  A    between atoms: C_8  and  O_35
REMARK    5  A    between atoms: C_10  and  O_13
REMARK    6  A    between atoms: O_13  and  C_14
REMARK    7  A    between atoms: C_15  and  C_27
REMARK    8  A    between atoms: C_19  and  O_26
REMARK    9  A    between atoms: C_21  and  O_25
REMARK   10  A    between atoms: C_29  and  O_34
REMARK   11  A    between atoms: C_30  and  O_33
REMARK                            x       y       z     vdW  Elec       q    Type
REMARK                         _______ _______ _______ _____ _____    ______ ____
ROOT
ATOM      1  C   UNL     1       8.112  -2.646  25.087  0.00  0.00    +0.214 A 
ATOM      2  C   UNL     1       8.935  -1.429  25.405  0.00  0.00    +0.238 A 
ATOM      3  O   UNL     1       9.277  -1.144  26.546  0.00  0.00    -0.283 OA
ATOM      4  C   UNL     1       9.212  -0.492  24.312  0.00  0.00    +0.109 A 
ATOM      5  C   UNL     1       8.458  -0.617  23.153  0.00  0.00    +0.147 A 
ATOM      6  C   UNL     1       8.564   0.344  22.142  0.00  0.00    +0.092 A 
ATOM      7  C   UNL     1       9.437   1.418  22.310  0.00  0.00    +0.124 A 
ATOM      8  C   UNL     1      10.225   1.532  23.448  0.00  0.00    +0.091 A 
ATOM      9  O   UNL     1       7.567  -1.639  22.952  0.00  0.00    -0.451 OA
ATOM     10  C   UNL     1      10.118   0.571  24.447  0.00  0.00    +0.135 A 
ATOM     11  C   UNL     1       7.458  -2.658  23.900  0.00  0.00    +0.181 A 
ENDROOT
BRANCH  11  12
ATOM     12  C   UNL     1       6.475  -3.719  23.482  0.00  0.00    +0.025 A 
ATOM     13  C   UNL     1       5.094  -3.503  23.692  0.00  0.00    +0.015 A 
ATOM     14  C   UNL     1       4.131  -4.453  23.322  0.00  0.00    +0.050 A 
ATOM     15  C   UNL     1       4.541  -5.638  22.741  0.00  0.00    +0.158 A 
ATOM     16  C   UNL     1       5.889  -5.884  22.525  0.00  0.00    +0.159 A 
ATOM     17  C   UNL     1       6.852  -4.933  22.873  0.00  0.00    +0.060 A 
BRANCH  15  18
ATOM     18  O   UNL     1       3.607  -6.568  22.382  0.00  0.00    -0.503 OA
ATOM     19  H   UNL     1       4.043  -7.430  22.543  0.00  0.00    +0.292 HD
ENDBRANCH  15  18
BRANCH  16  20
ATOM     20  O   UNL     1       6.234  -7.086  21.965  0.00  0.00    -0.503 OA
ATOM     21  H   UNL     1       6.976  -7.453  22.480  0.00  0.00    +0.292 HD
ENDBRANCH  16  20
ENDBRANCH  11  12
BRANCH   7  22
ATOM     22  O   UNL     1       9.554   2.403  21.374  0.00  0.00    -0.507 OA
ATOM     23  H   UNL     1      10.335   2.942  21.577  0.00  0.00    +0.292 HD
ENDBRANCH   7  22
BRANCH  10  24
ATOM     24  O   UNL     1      10.919   0.674  25.548  0.00  0.00    -0.506 OA
ATOM     25  H   UNL     1      10.495   1.235  26.215  0.00  0.00    +0.292 HD
ENDBRANCH  10  24
BRANCH   1  26
ATOM     26  O   UNL     1       7.937  -3.669  26.009  0.00  0.00    -0.453 OA
BRANCH  26  30
ATOM     27  C   UNL     1       4.174  -2.650  28.769  0.00  0.00    +0.041 C 
ATOM     28  C   UNL     1       4.695  -3.591  27.688  0.00  0.00    +0.150 C 
ATOM     29  O   UNL     1       6.082  -3.297  27.464  0.00  0.00    -0.334 OA
ATOM     30  C   UNL     1       6.605  -4.056  26.360  0.00  0.00    +0.339 C 
ATOM     31  C   UNL     1       6.603  -5.555  26.712  0.00  0.00    +0.214 C 
ATOM     32  C   UNL     1       5.159  -5.964  27.008  0.00  0.00    +0.180 C 
ATOM     33  C   UNL     1       4.533  -5.069  28.088  0.00  0.00    +0.174 C 
BRANCH  31  34
ATOM     34  O   UNL     1       7.429  -5.854  27.854  0.00  0.00    -0.383 OA
ATOM     35  H   UNL     1       8.279  -5.408  27.660  0.00  0.00    +0.210 HD
ENDBRANCH  31  34
BRANCH  32  36
ATOM     36  O   UNL     1       5.132  -7.332  27.448  0.00  0.00    -0.386 OA
ATOM     37  H   UNL     1       5.759  -7.360  28.198  0.00  0.00    +0.210 HD
ENDBRANCH  32  36
BRANCH  33  38
ATOM     38  O   UNL     1       3.160  -5.456  28.227  0.00  0.00    -0.387 OA
ATOM     39  H   UNL     1       2.711  -4.752  28.731  0.00  0.00    +0.210 HD
ENDBRANCH  33  38
ENDBRANCH  26  30
ENDBRANCH   1  26
TORSDOF 10
ENDMDL
MODEL 2
REMARK VINA RESULT:      -7.9      2.043      4.389
REMARK  Name = 
REMARK  11 active torsions:
REMARK  status: ('A' for Active; 'I' for Inactive)
REMARK    1  A    between atoms: C_1  and  C_2
REMARK    2  A    between atoms: C_4  and  O_37
REMARK    3  A    between atoms: C_6  and  O_36
REMARK    4  A    between atoms: C_8  and  O_35
REMARK    5  A    between atoms: C_10  and  O_13
REMARK    6  A    between atoms: O_13  and  C_14
REMARK    7  A    between atoms: C_15  and  C_27
REMARK    8  A    between atoms: C_19  and  O_26
REMARK    9  A    between atoms: C_21  and  O_25
REMARK   10  A    between atoms: C_29  and  O_34
REMARK   11  A    between atoms: C_30  and  O_33
REMARK                            x       y       z     vdW  Elec       q    Type
REMARK                         _______ _______ _______ _____ _____    ______ ____
ROOT
ATOM      1  C   UNL     1       8.317  -1.396  22.979  0.00  0.00    +0.214 A 
ATOM      2  C   UNL     1       8.518  -0.077  22.288  0.00  0.00    +0.238 A 
ATOM      3  O   UNL     1       8.873   0.008  21.118  0.00  0.00    -0.283 OA
ATOM      4  C   UNL     1       8.412   1.139  23.101  0.00  0.00    +0.109 A 
ATOM      5  C   UNL     1       8.441   0.994  24.481  0.00  0.00    +0.147 A 
ATOM      6  C   UNL     1       8.505   2.124  25.303  0.00  0.00    +0.092 A 
ATOM      7  C   UNL     1       8.531   3.390  24.720  0.00  0.00    +0.124 A 
ATOM      8  C   UNL     1       8.462   3.549  23.342  0.00  0.00    +0.091 A 
ATOM      9  O   UNL     1       8.444  -0.230  25.099  0.00  0.00    -0.451 OA
ATOM     10  C   UNL     1       8.395   2.422  22.531  0.00  0.00    +0.135 A 
ATOM     11  C   UNL     1       8.325  -1.392  24.335  0.00  0.00    +0.181 A 
ENDROOT
BRANCH  11  12
ATOM     12  C   UNL     1       8.290  -2.631  25.189  0.00  0.00    +0.025 A 
ATOM     13  C   UNL     1       7.263  -2.782  26.149  0.00  0.00    +0.015 A 
ATOM     14  C   UNL     1       7.178  -3.913  26.971  0.00  0.00    +0.050 A 
ATOM     15  C   UNL     1       8.127  -4.911  26.847  0.00  0.00    +0.158 A 
ATOM     16  C   UNL     1       9.150  -4.793  25.918  0.00  0.00    +0.159 A 
ATOM     17  C   UNL     1       9.229  -3.677  25.081  0.00  0.00    +0.060 A 
BRANCH  15  18
ATOM     18  O   UNL     1       8.050  -6.014  27.648  0.00  0.00    -0.503 OA
ATOM     19  H   UNL     1       7.365  -5.790  28.310  0.00  0.00    +0.292 HD
ENDBRANCH  15  18
BRANCH  16  20
ATOM     20  O   UNL     1      10.072  -5.804  25.857  0.00  0.00    -0.503 OA
ATOM     21  H   UNL     1       9.592  -6.650  25.917  0.00  0.00    +0.292 HD
ENDBRANCH  16  20
ENDBRANCH  11  12
BRANCH   7  22
ATOM     22  O   UNL     1       8.629   4.525  25.470  0.00  0.00    -0.507 OA
ATOM     23  H   UNL     1       8.318   5.280  24.946  0.00  0.00    +0.292 HD
ENDBRANCH   7  22
BRANCH  10  24
ATOM     24  O   UNL     1       8.296   2.588  21.180  0.00  0.00    -0.506 OA
ATOM     25  H   UNL     1       8.285   1.725  20.740  0.00  0.00    +0.292 HD
ENDBRANCH  10  24
BRANCH   1  26
ATOM     26  O   UNL     1       8.234  -2.586  22.270  0.00  0.00    -0.453 OA
BRANCH  26  30
ATOM     27  C   UNL     1       4.076  -3.416  24.470  0.00  0.00    +0.041 C 
ATOM     28  C   UNL     1       4.870  -3.666  23.193  0.00  0.00    +0.150 C 
ATOM     29  O   UNL     1       6.198  -3.153  23.378  0.00  0.00    -0.334 OA
ATOM     30  C   UNL     1       6.964  -3.235  22.164  0.00  0.00    +0.339 C 
ATOM     31  C   UNL     1       7.193  -4.710  21.790  0.00  0.00    +0.214 C 
ATOM     32  C   UNL     1       5.822  -5.365  21.605  0.00  0.00    +0.180 C 
ATOM     33  C   UNL     1       4.933  -5.164  22.842  0.00  0.00    +0.174 C 
BRANCH  31  34
ATOM     34  O   UNL     1       7.932  -5.426  22.799  0.00  0.00    -0.383 OA
ATOM     35  H   UNL     1       7.273  -6.030  23.197  0.00  0.00    +0.210 HD
ENDBRANCH  31  34
BRANCH  32  36
ATOM     36  O   UNL     1       5.993  -6.770  21.363  0.00  0.00    -0.386 OA
ATOM     37  H   UNL     1       6.547  -6.814  20.557  0.00  0.00    +0.210 HD
ENDBRANCH  32  36
BRANCH  33  38
ATOM     38  O   UNL     1       3.646  -5.716  22.542  0.00  0.00    -0.387 OA
ATOM     39  H   UNL     1       3.158  -5.048  22.026  0.00  0.00    +0.210 HD
ENDBRANCH  33  38
ENDBRANCH  26  30
ENDBRANCH   1  26
TORSDOF 10
ENDMDL
MODEL 3
REMARK VINA RESULT:      -7.6      1.839      4.564
REMARK  Name = 
REMARK  11 active torsions:
REMARK  status: ('A' for Active; 'I' for Inactive)
REMARK    1  A    between atoms: C_1  and  C_2
REMARK    2  A    between atoms: C_4  and  O_37
REMARK    3  A    between atoms: C_6  and  O_36
REMARK    4  A    between atoms: C_8  and  O_35
REMARK    5  A    between atoms: C_10  and  O_13
REMARK    6  A    between atoms: O_13  and  C_14
REMARK    7  A    between atoms: C_15  and  C_27
REMARK    8  A    between atoms: C_19  and  O_26
REMARK    9  A    between atoms: C_21  and  O_25
REMARK   10  A    between atoms: C_29  and  O_34
REMARK   11  A    between atoms: C_30  and  O_33
REMARK                            x       y       z     vdW  Elec       q    Type
REMARK                         _______ _______ _______ _____ _____    ______ ____
ROOT
ATOM      1  C   UNL     1       6.851  -4.297  24.691  0.00  0.00    +0.214 A 
ATOM      2  C   UNL     1       7.674  -3.598  23.646  0.00  0.00    +0.238 A 
ATOM      3  O   UNL     1       7.902  -4.091  22.548  0.00  0.00    -0.283 OA
ATOM      4  C   UNL     1       8.332  -2.344  24.026  0.00  0.00    +0.109 A 
ATOM      5  C   UNL     1       8.410  -2.044  25.379  0.00  0.00    +0.147 A 
ATOM      6  C   UNL     1       9.163  -0.947  25.811  0.00  0.00    +0.092 A 
ATOM      7  C   UNL     1       9.824  -0.160  24.869  0.00  0.00    +0.124 A 
ATOM      8  C   UNL     1       9.720  -0.427  23.510  0.00  0.00    +0.091 A 
ATOM      9  O   UNL     1       7.801  -2.803  26.345  0.00  0.00    -0.451 OA
ATOM     10  C   UNL     1       8.967  -1.517  23.088  0.00  0.00    +0.135 A 
ATOM     11  C   UNL     1       6.990  -3.877  25.972  0.00  0.00    +0.181 A 
ENDROOT
BRANCH  11  12
ATOM     12  C   UNL     1       6.363  -4.554  27.162  0.00  0.00    +0.025 A 
ATOM     13  C   UNL     1       5.251  -3.953  27.794  0.00  0.00    +0.015 A 
ATOM     14  C   UNL     1       4.625  -4.537  28.904  0.00  0.00    +0.050 A 
ATOM     15  C   UNL     1       5.110  -5.731  29.402  0.00  0.00    +0.158 A 
ATOM     16  C   UNL     1       6.203  -6.346  28.807  0.00  0.00    +0.159 A 
ATOM     17  C   UNL     1       6.819  -5.780  27.689  0.00  0.00    +0.060 A 
BRANCH  15  18
ATOM     18  O   UNL     1       4.506  -6.303  30.485  0.00  0.00    -0.503 OA
ATOM     19  H   UNL     1       3.879  -6.951  30.103  0.00  0.00    +0.292 HD
ENDBRANCH  15  18
BRANCH  16  20
ATOM     20  O   UNL     1       6.651  -7.517  29.360  0.00  0.00    -0.503 OA
ATOM     21  H   UNL     1       5.872  -8.035  29.635  0.00  0.00    +0.292 HD
ENDBRANCH  16  20
ENDBRANCH  11  12
BRANCH   7  22
ATOM     22  O   UNL     1      10.600   0.900  25.235  0.00  0.00    -0.507 OA
ATOM     23  H   UNL     1      11.182   1.137  24.496  0.00  0.00    +0.292 HD
ENDBRANCH   7  22
BRANCH  10  24
ATOM     24  O   UNL     1       8.845  -1.752  21.748  0.00  0.00    -0.506 OA
ATOM     25  H   UNL     1       9.546  -2.354  21.453  0.00  0.00    +0.292 HD
ENDBRANCH  10  24
BRANCH   1  26
ATOM     26  O   UNL     1       6.060  -5.395  24.383  0.00  0.00    -0.453 OA
BRANCH  26  30
ATOM     27  C   UNL     1       1.757  -3.734  25.626  0.00  0.00    +0.041 C 
ATOM     28  C   UNL     1       2.564  -4.344  24.485  0.00  0.00    +0.150 C 
ATOM     29  O   UNL     1       3.855  -4.713  24.992  0.00  0.00    -0.334 OA
ATOM     30  C   UNL     1       4.719  -5.172  23.938  0.00  0.00    +0.339 C 
ATOM     31  C   UNL     1       4.170  -6.484  23.348  0.00  0.00    +0.214 C 
ATOM     32  C   UNL     1       2.766  -6.204  22.808  0.00  0.00    +0.180 C 
ATOM     33  C   UNL     1       1.866  -5.578  23.884  0.00  0.00    +0.174 C 
BRANCH  31  34
ATOM     34  O   UNL     1       4.104  -7.541  24.324  0.00  0.00    -0.383 OA
ATOM     35  H   UNL     1       4.875  -8.108  24.117  0.00  0.00    +0.210 HD
ENDBRANCH  31  34
BRANCH  32  36
ATOM     36  O   UNL     1       2.178  -7.431  22.349  0.00  0.00    -0.386 OA
ATOM     37  H   UNL     1       1.464  -7.147  21.742  0.00  0.00    +0.210 HD
ENDBRANCH  32  36
BRANCH  33  38
ATOM     38  O   UNL     1       0.613  -5.257  23.266  0.00  0.00    -0.387 OA
ATOM     39  H   UNL     1       0.775  -5.183  22.308  0.00  0.00    +0.210 HD
ENDBRANCH  33  38
ENDBRANCH  26  30
ENDBRANCH   1  26
TORSDOF 10
ENDMDL
MODEL 4
REMARK VINA RESULT:      -7.4      2.527      6.913
REMARK  Name = 
REMARK  11 active torsions:
REMARK  status: ('A' for Active; 'I' for Inactive)
REMARK    1  A    between atoms: C_1  and  C_2
REMARK    2  A    between atoms: C_4  and  O_37
REMARK    3  A    between atoms: C_6  and  O_36
REMARK    4  A    between atoms: C_8  and  O_35
REMARK    5  A    between atoms: C_10  and  O_13
REMARK    6  A    between atoms: O_13  and  C_14
REMARK    7  A    between atoms: C_15  and  C_27
REMARK    8  A    between atoms: C_19  and  O_26
REMARK    9  A    between atoms: C_21  and  O_25
REMARK   10  A    between atoms: C_29  and  O_34
REMARK   11  A    between atoms: C_30  and  O_33
REMARK                            x       y       z     vdW  Elec       q    Type
REMARK                         _______ _______ _______ _____ _____    ______ ____
ROOT
ATOM      1  C   UNL     1       7.802  -1.925  25.227  0.00  0.00    +0.214 A 
ATOM      2  C   UNL     1       7.223  -3.281  25.517  0.00  0.00    +0.238 A 
ATOM      3  O   UNL     1       7.289  -3.803  26.624  0.00  0.00    -0.283 OA
ATOM      4  C   UNL     1       6.687  -4.047  24.387  0.00  0.00    +0.109 A 
ATOM      5  C   UNL     1       7.017  -3.621  23.108  0.00  0.00    +0.147 A 
ATOM      6  C   UNL     1       6.670  -4.399  21.999  0.00  0.00    +0.092 A 
ATOM      7  C   UNL     1       5.985  -5.598  22.195  0.00  0.00    +0.124 A 
ATOM      8  C   UNL     1       5.615  -6.015  23.466  0.00  0.00    +0.091 A 
ATOM      9  O   UNL     1       7.712  -2.464  22.867  0.00  0.00    -0.451 OA
ATOM     10  C   UNL     1       5.960  -5.234  24.564  0.00  0.00    +0.135 A 
ATOM     11  C   UNL     1       8.037  -1.617  23.929  0.00  0.00    +0.181 A 
ENDROOT
BRANCH  11  12
ATOM     12  C   UNL     1       8.747  -0.374  23.465  0.00  0.00    +0.025 A 
ATOM     13  C   UNL     1      10.088  -0.154  23.856  0.00  0.00    +0.015 A 
ATOM     14  C   UNL     1      10.800   0.984  23.454  0.00  0.00    +0.050 A 
ATOM     15  C   UNL     1      10.176   1.925  22.657  0.00  0.00    +0.158 A 
ATOM     16  C   UNL     1       8.859   1.743  22.258  0.00  0.00    +0.159 A 
ATOM     17  C   UNL     1       8.150   0.601  22.639  0.00  0.00    +0.060 A 
BRANCH  15  18
ATOM     18  O   UNL     1      10.865   3.037  22.265  0.00  0.00    -0.503 OA
ATOM     19  H   UNL     1      10.607   3.726  22.910  0.00  0.00    +0.292 HD
ENDBRANCH  15  18
BRANCH  16  20
ATOM     20  O   UNL     1       8.289   2.721  21.487  0.00  0.00    -0.503 OA
ATOM     21  H   UNL     1       8.623   2.616  20.577  0.00  0.00    +0.292 HD
ENDBRANCH  16  20
ENDBRANCH  11  12
BRANCH   7  22
ATOM     22  O   UNL     1       5.653  -6.414  21.154  0.00  0.00    -0.507 OA
ATOM     23  H   UNL     1       6.170  -7.233  21.215  0.00  0.00    +0.292 HD
ENDBRANCH   7  22
BRANCH  10  24
ATOM     24  O   UNL     1       5.564  -5.636  25.808  0.00  0.00    -0.506 OA
ATOM     25  H   UNL     1       5.289  -4.868  26.332  0.00  0.00    +0.292 HD
ENDBRANCH  10  24
BRANCH   1  26
ATOM     26  O   UNL     1       8.181  -1.061  26.245  0.00  0.00    -0.453 OA
BRANCH  26  30
ATOM     27  C   UNL     1       7.773   3.622  25.394  0.00  0.00    +0.041 C 
ATOM     28  C   UNL     1       7.118   2.430  26.081  0.00  0.00    +0.150 C 
ATOM     29  O   UNL     1       8.003   1.304  25.974  0.00  0.00    -0.334 OA
ATOM     30  C   UNL     1       7.390   0.107  26.484  0.00  0.00    +0.339 C 
ATOM     31  C   UNL     1       7.159   0.245  28.000  0.00  0.00    +0.214 C 
ATOM     32  C   UNL     1       6.248   1.453  28.227  0.00  0.00    +0.180 C 
ATOM     33  C   UNL     1       6.817   2.717  27.564  0.00  0.00    +0.174 C 
BRANCH  31  34
ATOM     34  O   UNL     1       8.388   0.429  28.729  0.00  0.00    -0.383 OA
ATOM     35  H   UNL     1       9.088   0.269  28.065  0.00  0.00    +0.210 HD
ENDBRANCH  31  34
BRANCH  32  36
ATOM     36  O   UNL     1       6.099   1.680  29.637  0.00  0.00    -0.386 OA
ATOM     37  H   UNL     1       6.761   2.370  29.845  0.00  0.00    +0.210 HD
ENDBRANCH  32  36
BRANCH  33  38
ATOM     38  O   UNL     1       5.856   3.766  27.739  0.00  0.00    -0.387 OA
ATOM     39  H   UNL     1       5.127   3.403  28.273  0.00  0.00    +0.210 HD
ENDBRANCH  33  38
ENDBRANCH  26  30
ENDBRANCH   1  26
TORSDOF 10
ENDMDL
MODEL 5
REMARK VINA RESULT:      -7.3      2.237      4.301
REMARK  Name = 
REMARK  11 active torsions:
REMARK  status: ('A' for Active; 'I' for Inactive)
REMARK    1  A    between atoms: C_1  and  C_2
REMARK    2  A    between atoms: C_4  and  O_37
REMARK    3  A    between atoms: C_6  and  O_36
REMARK    4  A    between atoms: C_8  and  O_35
REMARK    5  A    between atoms: C_10  and  O_13
REMARK    6  A    between atoms: O_13  and  C_14
REMARK    7  A    between atoms: C_15  and  C_27
REMARK    8  A    between atoms: C_19  and  O_26
REMARK    9  A    between atoms: C_21  and  O_25
REMARK   10  A    between atoms: C_29  and  O_34
REMARK   11  A    between atoms: C_30  and  O_33
REMARK                            x       y       z     vdW  Elec       q    Type
REMARK                         _______ _______ _______ _____ _____    ______ ____
ROOT
ATOM      1  C   UNL     1       7.439  -2.191  25.583  0.00  0.00    +0.214 A 
ATOM      2  C   UNL     1       8.660  -2.220  24.707  0.00  0.00    +0.238 A 
ATOM      3  O   UNL     1       9.552  -3.049  24.846  0.00  0.00    -0.283 OA
ATOM      4  C   UNL     1       8.835  -1.124  23.749  0.00  0.00    +0.109 A 
ATOM      5  C   UNL     1       8.048   0.007  23.916  0.00  0.00    +0.147 A 
ATOM      6  C   UNL     1       8.280   1.144  23.135  0.00  0.00    +0.092 A 
ATOM      7  C   UNL     1       9.302   1.122  22.187  0.00  0.00    +0.124 A 
ATOM      8  C   UNL     1      10.070  -0.017  21.983  0.00  0.00    +0.091 A 
ATOM      9  O   UNL     1       7.050   0.086  24.853  0.00  0.00    -0.451 OA
ATOM     10  C   UNL     1       9.831  -1.145  22.761  0.00  0.00    +0.135 A 
ATOM     11  C   UNL     1       6.734  -1.035  25.623  0.00  0.00    +0.181 A 
ENDROOT
BRANCH  11  12
ATOM     12  C   UNL     1       5.578  -0.776  26.553  0.00  0.00    +0.025 A 
ATOM     13  C   UNL     1       5.816  -0.145  27.795  0.00  0.00    +0.015 A 
ATOM     14  C   UNL     1       4.781   0.123  28.701  0.00  0.00    +0.050 A 
ATOM     15  C   UNL     1       3.488  -0.244  28.376  0.00  0.00    +0.158 A 
ATOM     16  C   UNL     1       3.220  -0.868  27.166  0.00  0.00    +0.159 A 
ATOM     17  C   UNL     1       4.245  -1.120  26.251  0.00  0.00    +0.060 A 
BRANCH  15  18
ATOM     18  O   UNL     1       2.476   0.013  29.256  0.00  0.00    -0.503 OA
ATOM     19  H   UNL     1       2.048   0.822  28.909  0.00  0.00    +0.292 HD
ENDBRANCH  15  18
BRANCH  16  20
ATOM     20  O   UNL     1       1.923  -1.226  26.911  0.00  0.00    -0.503 OA
ATOM     21  H   UNL     1       1.512  -1.486  27.757  0.00  0.00    +0.292 HD
ENDBRANCH  16  20
ENDBRANCH  11  12
BRANCH   7  22
ATOM     22  O   UNL     1       9.597   2.213  21.423  0.00  0.00    -0.507 OA
ATOM     23  H   UNL     1      10.527   2.452  21.556  0.00  0.00    +0.292 HD
ENDBRANCH   7  22
BRANCH  10  24
ATOM     24  O   UNL     1      10.569  -2.270  22.532  0.00  0.00    -0.506 OA
ATOM     25  H   UNL     1      10.139  -2.817  21.857  0.00  0.00    +0.292 HD
ENDBRANCH  10  24
BRANCH   1  26
ATOM     26  O   UNL     1       7.102  -3.261  26.400  0.00  0.00    -0.453 OA
BRANCH  26  30
ATOM     27  C   UNL     1       4.948  -5.117  22.561  0.00  0.00    +0.041 C 
ATOM     28  C   UNL     1       5.585  -5.454  23.905  0.00  0.00    +0.150 C 
ATOM     29  O   UNL     1       5.903  -4.226  24.576  0.00  0.00    -0.334 OA
ATOM     30  C   UNL     1       6.631  -4.467  25.792  0.00  0.00    +0.339 C 
ATOM     31  C   UNL     1       5.732  -5.208  26.798  0.00  0.00    +0.214 C 
ATOM     32  C   UNL     1       5.302  -6.530  26.158  0.00  0.00    +0.180 C 
ATOM     33  C   UNL     1       4.649  -6.302  24.786  0.00  0.00    +0.174 C 
BRANCH  31  34
ATOM     34  O   UNL     1       4.561  -4.448  27.156  0.00  0.00    -0.383 OA
ATOM     35  H   UNL     1       3.825  -4.917  26.714  0.00  0.00    +0.210 HD
ENDBRANCH  31  34
BRANCH  32  36
ATOM     36  O   UNL     1       4.372  -7.200  27.024  0.00  0.00    -0.386 OA
ATOM     37  H   UNL     1       3.852  -7.774  26.426  0.00  0.00    +0.210 HD
ENDBRANCH  32  36
BRANCH  33  38
ATOM     38  O   UNL     1       4.375  -7.590  24.220  0.00  0.00    -0.387 OA
ATOM     39  H   UNL     1       3.424  -7.764  24.347  0.00  0.00    +0.210 HD
ENDBRANCH  33  38
ENDBRANCH  26  30
ENDBRANCH   1  26
TORSDOF 10
ENDMDL
MODEL 6
REMARK VINA RESULT:      -7.2      3.728      6.036
REMARK  Name = 
REMARK  11 active torsions:
REMARK  status: ('A' for Active; 'I' for Inactive)
REMARK    1  A    between atoms: C_1  and  C_2
REMARK    2  A    between atoms: C_4  and  O_37
REMARK    3  A    between atoms: C_6  and  O_36
REMARK    4  A    between atoms: C_8  and  O_35
REMARK    5  A    between atoms: C_10  and  O_13
REMARK    6  A    between atoms: O_13  and  C_14
REMARK    7  A    between atoms: C_15  and  C_27
REMARK    8  A    between atoms: C_19  and  O_26
REMARK    9  A    between atoms: C_21  and  O_25
REMARK   10  A    between atoms: C_29  and  O_34
REMARK   11  A    between atoms: C_30  and  O_33
REMARK                            x       y       z     vdW  Elec       q    Type
REMARK                         _______ _______ _______ _____ _____    ______ ____
ROOT
ATOM      1  C   UNL     1       8.219   2.561  23.712  0.00  0.00    +0.214 A 
ATOM      2  C   UNL     1       8.581   4.011  23.554  0.00  0.00    +0.238 A 
ATOM      3  O   UNL     1       7.753   4.870  23.272  0.00  0.00    -0.283 OA
ATOM      4  C   UNL     1      10.002   4.368  23.610  0.00  0.00    +0.109 A 
ATOM      5  C   UNL     1      10.927   3.339  23.496  0.00  0.00    +0.147 A 
ATOM      6  C   UNL     1      12.290   3.632  23.382  0.00  0.00    +0.092 A 
ATOM      7  C   UNL     1      12.704   4.963  23.391  0.00  0.00    +0.124 A 
ATOM      8  C   UNL     1      11.792   5.999  23.544  0.00  0.00    +0.091 A 
ATOM      9  O   UNL     1      10.566   2.017  23.456  0.00  0.00    -0.451 OA
ATOM     10  C   UNL     1      10.438   5.700  23.662  0.00  0.00    +0.135 A 
ATOM     11  C   UNL     1       9.227   1.659  23.621  0.00  0.00    +0.181 A 
ENDROOT
BRANCH  11  12
ATOM     12  C   UNL     1       9.033   0.166  23.604  0.00  0.00    +0.025 A 
ATOM     13  C   UNL     1       8.911  -0.502  22.365  0.00  0.00    +0.015 A 
ATOM     14  C   UNL     1       8.730  -1.890  22.287  0.00  0.00    +0.050 A 
ATOM     15  C   UNL     1       8.662  -2.629  23.453  0.00  0.00    +0.158 A 
ATOM     16  C   UNL     1       8.774  -2.004  24.686  0.00  0.00    +0.159 A 
ATOM     17  C   UNL     1       8.975  -0.624  24.771  0.00  0.00    +0.060 A 
BRANCH  15  18
ATOM     18  O   UNL     1       8.484  -3.981  23.382  0.00  0.00    -0.503 OA
ATOM     19  H   UNL     1       7.867  -4.187  24.114  0.00  0.00    +0.292 HD
ENDBRANCH  15  18
BRANCH  16  20
ATOM     20  O   UNL     1       8.678  -2.787  25.806  0.00  0.00    -0.503 OA
ATOM     21  H   UNL     1       8.617  -3.716  25.517  0.00  0.00    +0.292 HD
ENDBRANCH  16  20
ENDBRANCH  11  12
BRANCH   7  22
ATOM     22  O   UNL     1      14.015   5.309  23.248  0.00  0.00    -0.507 OA
ATOM     23  H   UNL     1      14.425   5.373  24.125  0.00  0.00    +0.292 HD
ENDBRANCH   7  22
BRANCH  10  24
ATOM     24  O   UNL     1       9.552   6.723  23.843  0.00  0.00    -0.506 OA
ATOM     25  H   UNL     1       8.792   6.611  23.252  0.00  0.00    +0.292 HD
ENDBRANCH  10  24
BRANCH   1  26
ATOM     26  O   UNL     1       6.901   2.147  23.838  0.00  0.00    -0.453 OA
BRANCH  26  30
ATOM     27  C   UNL     1       7.148   2.174  28.609  0.00  0.00    +0.041 C 
ATOM     28  C   UNL     1       6.263   2.515  27.415  0.00  0.00    +0.150 C 
ATOM     29  O   UNL     1       6.912   2.049  26.223  0.00  0.00    -0.334 OA
ATOM     30  C   UNL     1       6.197   2.457  25.044  0.00  0.00    +0.339 C 
ATOM     31  C   UNL     1       4.822   1.766  25.004  0.00  0.00    +0.214 C 
ATOM     32  C   UNL     1       4.056   2.173  26.264  0.00  0.00    +0.180 C 
ATOM     33  C   UNL     1       4.867   1.875  27.535  0.00  0.00    +0.174 C 
BRANCH  31  34
ATOM     34  O   UNL     1       4.928   0.330  24.952  0.00  0.00    -0.383 OA
ATOM     35  H   UNL     1       5.885   0.163  24.835  0.00  0.00    +0.210 HD
ENDBRANCH  31  34
BRANCH  32  36
ATOM     36  O   UNL     1       2.810   1.461  26.317  0.00  0.00    -0.386 OA
ATOM     37  H   UNL     1       2.557   1.480  27.262  0.00  0.00    +0.210 HD
ENDBRANCH  32  36
BRANCH  33  38
ATOM     38  O   UNL     1       4.123   2.379  28.650  0.00  0.00    -0.387 OA
ATOM     39  H   UNL     1       3.524   3.069  28.311  0.00  0.00    +0.210 HD
ENDBRANCH  33  38
ENDBRANCH  26  30
ENDBRANCH   1  26
TORSDOF 10
ENDMDL
MODEL 7
REMARK VINA RESULT:      -7.2      2.328      3.313
REMARK  Name = 
REMARK  11 active torsions:
REMARK  status: ('A' for Active; 'I' for Inactive)
REMARK    1  A    between atoms: C_1  and  C_2
REMARK    2  A    between atoms: C_4  and  O_37
REMARK    3  A    between atoms: C_6  and  O_36
REMARK    4  A    between atoms: C_8  and  O_35
REMARK    5  A    between atoms: C_10  and  O_13
REMARK    6  A    between atoms: O_13  and  C_14
REMARK    7  A    between atoms: C_15  and  C_27
REMARK    8  A    between atoms: C_19  and  O_26
REMARK    9  A    between atoms: C_21  and  O_25
REMARK   10  A    between atoms: C_29  and  O_34
REMARK   11  A    between atoms: C_30  and  O_33
REMARK                            x       y       z     vdW  Elec       q    Type
REMARK                         _______ _______ _______ _____ _____    ______ ____
ROOT
ATOM      1  C   UNL     1       6.385  -0.290  24.426  0.00  0.00    +0.214 A 
ATOM      2  C   UNL     1       6.535   1.189  24.648  0.00  0.00    +0.238 A 
ATOM      3  O   UNL     1       5.596   1.905  24.976  0.00  0.00    -0.283 OA
ATOM      4  C   UNL     1       7.828   1.797  24.322  0.00  0.00    +0.109 A 
ATOM      5  C   UNL     1       8.714   1.052  23.556  0.00  0.00    +0.147 A 
ATOM      6  C   UNL     1       9.892   1.636  23.079  0.00  0.00    +0.092 A 
ATOM      7  C   UNL     1      10.166   2.967  23.389  0.00  0.00    +0.124 A 
ATOM      8  C   UNL     1       9.308   3.711  24.187  0.00  0.00    +0.091 A 
ATOM      9  O   UNL     1       8.476  -0.252  23.203  0.00  0.00    -0.451 OA
ATOM     10  C   UNL     1       8.140   3.123  24.661  0.00  0.00    +0.135 A 
ATOM     11  C   UNL     1       7.345  -0.906  23.695  0.00  0.00    +0.181 A 
ENDROOT
BRANCH  11  12
ATOM     12  C   UNL     1       7.282  -2.342  23.248  0.00  0.00    +0.025 A 
ATOM     13  C   UNL     1       8.045  -3.315  23.933  0.00  0.00    +0.015 A 
ATOM     14  C   UNL     1       8.026  -4.667  23.563  0.00  0.00    +0.050 A 
ATOM     15  C   UNL     1       7.245  -5.064  22.495  0.00  0.00    +0.158 A 
ATOM     16  C   UNL     1       6.486  -4.134  21.798  0.00  0.00    +0.159 A 
ATOM     17  C   UNL     1       6.485  -2.789  22.173  0.00  0.00    +0.060 A 
BRANCH  15  18
ATOM     18  O   UNL     1       7.225  -6.380  22.129  0.00  0.00    -0.503 OA
ATOM     19  H   UNL     1       6.537  -6.783  22.697  0.00  0.00    +0.292 HD
ENDBRANCH  15  18
BRANCH  16  20
ATOM     20  O   UNL     1       5.749  -4.586  20.735  0.00  0.00    -0.503 OA
ATOM     21  H   UNL     1       4.851  -4.784  21.057  0.00  0.00    +0.292 HD
ENDBRANCH  16  20
ENDBRANCH  11  12
BRANCH   7  22
ATOM     22  O   UNL     1      11.281   3.599  22.923  0.00  0.00    -0.507 OA
ATOM     23  H   UNL     1      11.750   3.007  22.313  0.00  0.00    +0.292 HD
ENDBRANCH   7  22
BRANCH  10  24
ATOM     24  O   UNL     1       7.317   3.852  25.471  0.00  0.00    -0.506 OA
ATOM     25  H   UNL     1       7.223   3.411  26.329  0.00  0.00    +0.292 HD
ENDBRANCH  10  24
BRANCH   1  26
ATOM     26  O   UNL     1       5.262  -0.982  24.858  0.00  0.00    -0.453 OA
BRANCH  26  30
ATOM     27  C   UNL     1       5.756  -5.309  26.823  0.00  0.00    +0.041 C 
ATOM     28  C   UNL     1       5.595  -3.823  27.128  0.00  0.00    +0.150 C 
ATOM     29  O   UNL     1       5.360  -3.131  25.893  0.00  0.00    -0.334 OA
ATOM     30  C   UNL     1       5.333  -1.707  26.089  0.00  0.00    +0.339 C 
ATOM     31  C   UNL     1       4.120  -1.323  26.957  0.00  0.00    +0.214 C 
ATOM     32  C   UNL     1       4.257  -2.047  28.298  0.00  0.00    +0.180 C 
ATOM     33  C   UNL     1       4.432  -3.561  28.103  0.00  0.00    +0.174 C 
BRANCH  31  34
ATOM     34  O   UNL     1       2.868  -1.685  26.344  0.00  0.00    -0.383 OA
ATOM     35  H   UNL     1       2.716  -0.985  25.677  0.00  0.00    +0.210 HD
ENDBRANCH  31  34
BRANCH  32  36
ATOM     36  O   UNL     1       3.087  -1.802  29.094  0.00  0.00    -0.386 OA
ATOM     37  H   UNL     1       2.382  -2.324  28.661  0.00  0.00    +0.210 HD
ENDBRANCH  32  36
BRANCH  33  38
ATOM     38  O   UNL     1       4.653  -4.141  29.394  0.00  0.00    -0.387 OA
ATOM     39  H   UNL     1       3.829  -4.592  29.653  0.00  0.00    +0.210 HD
ENDBRANCH  33  38
ENDBRANCH  26  30
ENDBRANCH   1  26
TORSDOF 10
ENDMDL
MODEL 8
REMARK VINA RESULT:      -7.1      2.630      6.904
REMARK  Name = 
REMARK  11 active torsions:
REMARK  status: ('A' for Active; 'I' for Inactive)
REMARK    1  A    between atoms: C_1  and  C_2
REMARK    2  A    between atoms: C_4  and  O_37
REMARK    3  A    between atoms: C_6  and  O_36
REMARK    4  A    between atoms: C_8  and  O_35
REMARK    5  A    between atoms: C_10  and  O_13
REMARK    6  A    between atoms: O_13  and  C_14
REMARK    7  A    between atoms: C_15  and  C_27
REMARK    8  A    between atoms: C_19  and  O_26
REMARK    9  A    between atoms: C_21  and  O_25
REMARK   10  A    between atoms: C_29  and  O_34
REMARK   11  A    between atoms: C_30  and  O_33
REMARK                            x       y       z     vdW  Elec       q    Type
REMARK                         _______ _______ _______ _____ _____    ______ ____
ROOT
ATOM      1  C   UNL     1       6.021  -1.144  24.406  0.00  0.00    +0.214 A 
ATOM      2  C   UNL     1       5.087  -2.317  24.510  0.00  0.00    +0.238 A 
ATOM      3  O   UNL     1       4.180  -2.366  25.333  0.00  0.00    -0.283 OA
ATOM      4  C   UNL     1       5.374  -3.490  23.680  0.00  0.00    +0.109 A 
ATOM      5  C   UNL     1       6.630  -3.571  23.094  0.00  0.00    +0.147 A 
ATOM      6  C   UNL     1       7.018  -4.737  22.426  0.00  0.00    +0.092 A 
ATOM      7  C   UNL     1       6.128  -5.807  22.350  0.00  0.00    +0.124 A 
ATOM      8  C   UNL     1       4.855  -5.723  22.897  0.00  0.00    +0.091 A 
ATOM      9  O   UNL     1       7.549  -2.556  23.165  0.00  0.00    -0.451 OA
ATOM     10  C   UNL     1       4.474  -4.560  23.557  0.00  0.00    +0.135 A 
ATOM     11  C   UNL     1       7.200  -1.347  23.770  0.00  0.00    +0.181 A 
ENDROOT
BRANCH  11  12
ATOM     12  C   UNL     1       8.314  -0.337  23.702  0.00  0.00    +0.025 A 
ATOM     13  C   UNL     1       9.233  -0.245  24.772  0.00  0.00    +0.015 A 
ATOM     14  C   UNL     1      10.291   0.674  24.764  0.00  0.00    +0.050 A 
ATOM     15  C   UNL     1      10.440   1.522  23.684  0.00  0.00    +0.158 A 
ATOM     16  C   UNL     1       9.553   1.462  22.618  0.00  0.00    +0.159 A 
ATOM     17  C   UNL     1       8.509   0.534  22.610  0.00  0.00    +0.060 A 
BRANCH  15  18
ATOM     18  O   UNL     1      11.468   2.422  23.672  0.00  0.00    -0.503 OA
ATOM     19  H   UNL     1      12.033   2.160  24.427  0.00  0.00    +0.292 HD
ENDBRANCH  15  18
BRANCH  16  20
ATOM     20  O   UNL     1       9.741   2.343  21.586  0.00  0.00    -0.503 OA
ATOM     21  H   UNL     1      10.003   1.831  20.799  0.00  0.00    +0.292 HD
ENDBRANCH  16  20
ENDBRANCH  11  12
BRANCH   7  22
ATOM     22  O   UNL     1       6.465  -6.980  21.742  0.00  0.00    -0.507 OA
ATOM     23  H   UNL     1       7.081  -7.468  22.312  0.00  0.00    +0.292 HD
ENDBRANCH   7  22
BRANCH  10  24
ATOM     24  O   UNL     1       3.210  -4.475  24.064  0.00  0.00    -0.506 OA
ATOM     25  H   UNL     1       3.229  -4.042  24.931  0.00  0.00    +0.292 HD
ENDBRANCH  10  24
BRANCH   1  26
ATOM     26  O   UNL     1       5.742   0.068  25.023  0.00  0.00    -0.453 OA
BRANCH  26  30
ATOM     27  C   UNL     1       3.567  -0.130  29.271  0.00  0.00    +0.041 C 
ATOM     28  C   UNL     1       4.910   0.070  28.579  0.00  0.00    +0.150 C 
ATOM     29  O   UNL     1       4.685   0.124  27.162  0.00  0.00    -0.334 OA
ATOM     30  C   UNL     1       5.926   0.177  26.437  0.00  0.00    +0.339 C 
ATOM     31  C   UNL     1       6.651   1.501  26.740  0.00  0.00    +0.214 C 
ATOM     32  C   UNL     1       6.907   1.560  28.247  0.00  0.00    +0.180 C 
ATOM     33  C   UNL     1       5.608   1.361  29.045  0.00  0.00    +0.174 C 
BRANCH  31  34
ATOM     34  O   UNL     1       5.884   2.652  26.340  0.00  0.00    -0.383 OA
ATOM     35  H   UNL     1       5.668   2.483  25.400  0.00  0.00    +0.210 HD
ENDBRANCH  31  34
BRANCH  32  36
ATOM     36  O   UNL     1       7.483   2.832  28.584  0.00  0.00    -0.386 OA
ATOM     37  H   UNL     1       7.393   3.364  27.768  0.00  0.00    +0.210 HD
ENDBRANCH  32  36
BRANCH  33  38
ATOM     38  O   UNL     1       5.956   1.329  30.434  0.00  0.00    -0.387 OA
ATOM     39  H   UNL     1       6.929   1.291  30.488  0.00  0.00    +0.210 HD
ENDBRANCH  33  38
ENDBRANCH  26  30
ENDBRANCH   1  26
TORSDOF 10
ENDMDL
MODEL 9
REMARK VINA RESULT:      -7.0      3.104      8.166
REMARK  Name = 
REMARK  11 active torsions:
REMARK  status: ('A' for Active; 'I' for Inactive)
REMARK    1  A    between atoms: C_1  and  C_2
REMARK    2  A    between atoms: C_4  and  O_37
REMARK    3  A    between atoms: C_6  and  O_36
REMARK    4  A    between atoms: C_8  and  O_35
REMARK    5  A    between atoms: C_10  and  O_13
REMARK    6  A    between atoms: O_13  and  C_14
REMARK    7  A    between atoms: C_15  and  C_27
REMARK    8  A    between atoms: C_19  and  O_26
REMARK    9  A    between atoms: C_21  and  O_25
REMARK   10  A    between atoms: C_29  and  O_34
REMARK   11  A    between atoms: C_30  and  O_33
REMARK                            x       y       z     vdW  Elec       q    Type
REMARK                         _______ _______ _______ _____ _____    ______ ____
ROOT
ATOM      1  C   UNL     1       6.467  -0.898  24.515  0.00  0.00    +0.214 A 
ATOM      2  C   UNL     1       6.662  -2.308  24.033  0.00  0.00    +0.238 A 
ATOM      3  O   UNL     1       6.446  -2.645  22.875  0.00  0.00    -0.283 OA
ATOM      4  C   UNL     1       6.993  -3.328  25.033  0.00  0.00    +0.109 A 
ATOM      5  C   UNL     1       6.804  -3.003  26.369  0.00  0.00    +0.147 A 
ATOM      6  C   UNL     1       6.948  -3.984  27.356  0.00  0.00    +0.092 A 
ATOM      7  C   UNL     1       7.289  -5.283  26.982  0.00  0.00    +0.124 A 
ATOM      8  C   UNL     1       7.519  -5.611  25.652  0.00  0.00    +0.091 A 
ATOM      9  O   UNL     1       6.443  -1.747  26.784  0.00  0.00    -0.451 OA
ATOM     10  C   UNL     1       7.378  -4.630  24.676  0.00  0.00    +0.135 A 
ATOM     11  C   UNL     1       6.339  -0.713  25.851  0.00  0.00    +0.181 A 
ENDROOT
BRANCH  11  12
ATOM     12  C   UNL     1       5.989   0.600  26.498  0.00  0.00    +0.025 A 
ATOM     13  C   UNL     1       4.665   1.086  26.409  0.00  0.00    +0.015 A 
ATOM     14  C   UNL     1       4.280   2.301  26.992  0.00  0.00    +0.050 A 
ATOM     15  C   UNL     1       5.221   3.052  27.670  0.00  0.00    +0.158 A 
ATOM     16  C   UNL     1       6.531   2.607  27.774  0.00  0.00    +0.159 A 
ATOM     17  C   UNL     1       6.916   1.387  27.212  0.00  0.00    +0.060 A 
BRANCH  15  18
ATOM     18  O   UNL     1       4.852   4.238  28.238  0.00  0.00    -0.503 OA
ATOM     19  H   UNL     1       4.522   4.777  27.490  0.00  0.00    +0.292 HD
ENDBRANCH  15  18
BRANCH  16  20
ATOM     20  O   UNL     1       7.422   3.406  28.440  0.00  0.00    -0.503 OA
ATOM     21  H   UNL     1       8.271   2.929  28.493  0.00  0.00    +0.292 HD
ENDBRANCH  16  20
ENDBRANCH  11  12
BRANCH   7  22
ATOM     22  O   UNL     1       7.408  -6.286  27.897  0.00  0.00    -0.507 OA
ATOM     23  H   UNL     1       6.528  -6.651  28.084  0.00  0.00    +0.292 HD
ENDBRANCH   7  22
BRANCH  10  24
ATOM     24  O   UNL     1       7.636  -4.954  23.376  0.00  0.00    -0.506 OA
ATOM     25  H   UNL     1       8.100  -4.223  22.939  0.00  0.00    +0.292 HD
ENDBRANCH  10  24
BRANCH   1  26
ATOM     26  O   UNL     1       6.316   0.161  23.631  0.00  0.00    -0.453 OA
BRANCH  26  30
ATOM     27  C   UNL     1      10.971   0.926  24.388  0.00  0.00    +0.041 C 
ATOM     28  C   UNL     1       9.807   1.221  23.448  0.00  0.00    +0.150 C 
ATOM     29  O   UNL     1       8.607   0.696  24.036  0.00  0.00    -0.334 OA
ATOM     30  C   UNL     1       7.489   0.819  23.141  0.00  0.00    +0.339 C 
ATOM     31  C   UNL     1       7.162   2.306  22.916  0.00  0.00    +0.214 C 
ATOM     32  C   UNL     1       8.403   2.973  22.320  0.00  0.00    +0.180 C 
ATOM     33  C   UNL     1       9.645   2.730  23.192  0.00  0.00    +0.174 C 
BRANCH  31  34
ATOM     34  O   UNL     1       6.797   2.980  24.136  0.00  0.00    -0.383 OA
ATOM     35  H   UNL     1       7.494   3.657  24.255  0.00  0.00    +0.210 HD
ENDBRANCH  31  34
BRANCH  32  36
ATOM     36  O   UNL     1       8.175   4.386  22.198  0.00  0.00    -0.386 OA
ATOM     37  H   UNL     1       7.644   4.616  22.987  0.00  0.00    +0.210 HD
ENDBRANCH  32  36
BRANCH  33  38
ATOM     38  O   UNL     1      10.769   3.298  22.510  0.00  0.00    -0.387 OA
ATOM     39  H   UNL     1      10.421   3.935  21.859  0.00  0.00    +0.210 HD
ENDBRANCH  33  38
ENDBRANCH  26  30
ENDBRANCH   1  26
TORSDOF 10
ENDMDL
