MODEL 1
REMARK VINA RESULT:      -7.3      0.000      0.000
REMARK  Name = 
REMARK  12 active torsions:
REMARK  status: ('A' for Active; 'I' for Inactive)
REMARK    1  A    between atoms: C_3  and  O_38
REMARK    2  A    between atoms: C_4  and  O_37
REMARK    3  A    between atoms: C_6  and  C_7
REMARK    4  A    between atoms: C_8  and  O_20
REMARK    5  A    between atoms: C_12  and  O_19
REMARK    6  A    between atoms: C_14  and  O_18
REMARK    7  A    between atoms: O_20  and  C_21
REMARK    8  A    between atoms: C_23  and  O_36
REMARK    9  A    between atoms: C_25  and  O_35
REMARK   10  A    between atoms: C_27  and  O_34
REMARK   11  A    between atoms: C_29  and  C_32
REMARK   12  A    between atoms: C_32  and  O_33
REMARK                            x       y       z     vdW  Elec       q    Type
REMARK                         _______ _______ _______ _____ _____    ______ ____
ROOT
ATOM      1  C   UNL     1       6.124  -1.656  25.264  0.00  0.00    +0.181 A 
ATOM      2  O   UNL     1       5.587  -2.700  26.018  0.00  0.00    -0.451 OA
ATOM      3  C   UNL     1       5.300  -3.891  25.425  0.00  0.00    +0.147 A 
ATOM      4  C   UNL     1       5.284  -4.060  24.052  0.00  0.00    +0.109 A 
ATOM      5  C   UNL     1       4.876  -5.282  23.507  0.00  0.00    +0.135 A 
ATOM      6  C   UNL     1       4.548  -6.353  24.343  0.00  0.00    +0.091 A 
ATOM      7  C   UNL     1       4.634  -6.194  25.715  0.00  0.00    +0.124 A 
ATOM      8  C   UNL     1       5.735  -2.931  23.225  0.00  0.00    +0.238 A 
ATOM      9  O   UNL     1       5.646  -3.001  22.002  0.00  0.00    -0.283 OA
ATOM     10  C   UNL     1       5.001  -4.966  26.265  0.00  0.00    +0.092 A 
ATOM     11  C   UNL     1       6.337  -1.749  23.927  0.00  0.00    +0.214 A 
ENDROOT
BRANCH   1  13
ATOM     12  C   UNL     1       5.753   0.759  25.874  0.00  0.00    +0.015 A 
ATOM     13  C   UNL     1       6.407  -0.467  26.131  0.00  0.00    +0.025 A 
ATOM     14  C   UNL     1       7.349  -0.487  27.175  0.00  0.00    +0.060 A 
ATOM     15  C   UNL     1       7.571   0.647  27.948  0.00  0.00    +0.159 A 
ATOM     16  C   UNL     1       6.952   1.850  27.645  0.00  0.00    +0.158 A 
ATOM     17  C   UNL     1       6.038   1.917  26.608  0.00  0.00    +0.050 A 
BRANCH  15  18
ATOM     18  O   UNL     1       8.420   0.563  29.015  0.00  0.00    -0.503 OA
ATOM     19  H   UNL     1       9.077  -0.117  28.761  0.00  0.00    +0.292 HD
ENDBRANCH  15  18
BRANCH  16  20
ATOM     20  O   UNL     1       7.292   2.947  28.383  0.00  0.00    -0.503 OA
ATOM     21  H   UNL     1       7.801   2.643  29.155  0.00  0.00    +0.292 HD
ENDBRANCH  16  20
ENDBRANCH   1  13
BRANCH   5  22
ATOM     22  O   UNL     1       4.778  -5.509  22.162  0.00  0.00    -0.506 OA
ATOM     23  H   UNL     1       5.578  -6.003  21.873  0.00  0.00    +0.292 HD
ENDBRANCH   5  22
BRANCH   7  24
ATOM     24  O   UNL     1       4.353  -7.211  26.580  0.00  0.00    -0.507 OA
ATOM     25  H   UNL     1       4.676  -8.045  26.199  0.00  0.00    +0.292 HD
ENDBRANCH   7  24
BRANCH  11  26
ATOM     26  O   UNL     1       7.020  -0.846  23.118  0.00  0.00    -0.453 OA
BRANCH  26  27
ATOM     27  C   UNL     1       8.451  -1.030  23.074  0.00  0.00    +0.340 C 
ATOM     28  O   UNL     1       9.070  -0.196  24.054  0.00  0.00    -0.331 OA
ATOM     29  C   UNL     1       9.884   0.935  23.697  0.00  0.00    +0.179 C 
ATOM     30  C   UNL     1      10.177   1.191  22.207  0.00  0.00    +0.177 C 
ATOM     31  C   UNL     1       9.140   0.565  21.284  0.00  0.00    +0.180 C 
ATOM     32  C   UNL     1       8.995  -0.905  21.646  0.00  0.00    +0.214 C 
BRANCH  30  33
ATOM     33  O   UNL     1      10.318   2.583  21.906  0.00  0.00    -0.386 OA
ATOM     34  H   UNL     1      10.762   2.635  21.035  0.00  0.00    +0.210 HD
ENDBRANCH  30  33
BRANCH  31  35
ATOM     35  O   UNL     1       7.924   1.318  21.346  0.00  0.00    -0.386 OA
ATOM     36  H   UNL     1       7.331   1.073  20.608  0.00  0.00    +0.210 HD
ENDBRANCH  31  35
BRANCH  32  37
ATOM     37  O   UNL     1      10.279  -1.546  21.529  0.00  0.00    -0.383 OA
ATOM     38  H   UNL     1      10.901  -0.950  21.072  0.00  0.00    +0.210 HD
ENDBRANCH  32  37
BRANCH  29  39
ATOM     39  C   UNL     1       9.335   2.167  24.437  0.00  0.00    +0.190 C 
BRANCH  39  40
ATOM     40  O   UNL     1       8.098   2.595  23.858  0.00  0.00    -0.392 OA
ATOM     41  H   UNL     1       8.320   3.258  23.178  0.00  0.00    +0.210 HD
ENDBRANCH  39  40
ENDBRANCH  29  39
ENDBRANCH  26  27
ENDBRANCH  11  26
TORSDOF 12
ENDMDL
MODEL 2
REMARK VINA RESULT:      -6.6      1.702      5.025
REMARK  Name = 
REMARK  12 active torsions:
REMARK  status: ('A' for Active; 'I' for Inactive)
REMARK    1  A    between atoms: C_3  and  O_38
REMARK    2  A    between atoms: C_4  and  O_37
REMARK    3  A    between atoms: C_6  and  C_7
REMARK    4  A    between atoms: C_8  and  O_20
REMARK    5  A    between atoms: C_12  and  O_19
REMARK    6  A    between atoms: C_14  and  O_18
REMARK    7  A    between atoms: O_20  and  C_21
REMARK    8  A    between atoms: C_23  and  O_36
REMARK    9  A    between atoms: C_25  and  O_35
REMARK   10  A    between atoms: C_27  and  O_34
REMARK   11  A    between atoms: C_29  and  C_32
REMARK   12  A    between atoms: C_32  and  O_33
REMARK                            x       y       z     vdW  Elec       q    Type
REMARK                         _______ _______ _______ _____ _____    ______ ____
ROOT
ATOM      1  C   UNL     1       7.891  -1.591  24.098  0.00  0.00    +0.181 A 
ATOM      2  O   UNL     1       7.797  -2.487  23.032  0.00  0.00    -0.451 OA
ATOM      3  C   UNL     1       7.074  -3.633  23.167  0.00  0.00    +0.147 A 
ATOM      4  C   UNL     1       6.616  -4.090  24.390  0.00  0.00    +0.109 A 
ATOM      5  C   UNL     1       5.972  -5.330  24.470  0.00  0.00    +0.135 A 
ATOM      6  C   UNL     1       5.733  -6.076  23.314  0.00  0.00    +0.091 A 
ATOM      7  C   UNL     1       6.135  -5.577  22.088  0.00  0.00    +0.124 A 
ATOM      8  C   UNL     1       6.807  -3.215  25.555  0.00  0.00    +0.238 A 
ATOM      9  O   UNL     1       6.504  -3.621  26.674  0.00  0.00    -0.283 OA
ATOM     10  C   UNL     1       6.813  -4.362  22.004  0.00  0.00    +0.092 A 
ATOM     11  C   UNL     1       7.327  -1.830  25.309  0.00  0.00    +0.214 A 
ENDROOT
BRANCH   1  13
ATOM     12  C   UNL     1       9.933  -0.136  24.324  0.00  0.00    +0.015 A 
ATOM     13  C   UNL     1       8.687  -0.384  23.707  0.00  0.00    +0.025 A 
ATOM     14  C   UNL     1       8.228   0.569  22.780  0.00  0.00    +0.060 A 
ATOM     15  C   UNL     1       9.009   1.672  22.454  0.00  0.00    +0.159 A 
ATOM     16  C   UNL     1      10.207   1.917  23.109  0.00  0.00    +0.158 A 
ATOM     17  C   UNL     1      10.680   1.016  24.048  0.00  0.00    +0.050 A 
BRANCH  15  18
ATOM     18  O   UNL     1       8.576   2.523  21.478  0.00  0.00    -0.503 OA
ATOM     19  H   UNL     1       9.024   2.219  20.662  0.00  0.00    +0.292 HD
ENDBRANCH  15  18
BRANCH  16  20
ATOM     20  O   UNL     1      10.874   3.070  22.811  0.00  0.00    -0.503 OA
ATOM     21  H   UNL     1      11.439   3.295  23.572  0.00  0.00    +0.292 HD
ENDBRANCH  16  20
ENDBRANCH   1  13
BRANCH   5  22
ATOM     22  O   UNL     1       5.542  -5.876  25.647  0.00  0.00    -0.506 OA
ATOM     23  H   UNL     1       6.172  -5.617  26.357  0.00  0.00    +0.292 HD
ENDBRANCH   5  22
BRANCH   7  24
ATOM     24  O   UNL     1       5.904  -6.249  20.922  0.00  0.00    -0.507 OA
ATOM     25  H   UNL     1       6.051  -7.198  21.073  0.00  0.00    +0.292 HD
ENDBRANCH   7  24
BRANCH  11  26
ATOM     26  O   UNL     1       7.211  -0.940  26.374  0.00  0.00    -0.453 OA
BRANCH  26  27
ATOM     27  C   UNL     1       5.914  -0.321  26.511  0.00  0.00    +0.340 C 
ATOM     28  O   UNL     1       5.827   0.804  25.636  0.00  0.00    -0.331 OA
ATOM     29  C   UNL     1       5.774   2.155  26.124  0.00  0.00    +0.179 C 
ATOM     30  C   UNL     1       5.708   2.387  27.645  0.00  0.00    +0.177 C 
ATOM     31  C   UNL     1       6.257   1.215  28.446  0.00  0.00    +0.180 C 
ATOM     32  C   UNL     1       5.565  -0.057  27.981  0.00  0.00    +0.214 C 
BRANCH  30  33
ATOM     33  O   UNL     1       6.359   3.597  28.045  0.00  0.00    -0.386 OA
ATOM     34  H   UNL     1       7.286   3.357  28.254  0.00  0.00    +0.210 HD
ENDBRANCH  30  33
BRANCH  31  35
ATOM     35  O   UNL     1       7.685   1.189  28.344  0.00  0.00    -0.386 OA
ATOM     36  H   UNL     1       7.960   0.814  27.484  0.00  0.00    +0.210 HD
ENDBRANCH  31  35
BRANCH  32  37
ATOM     37  O   UNL     1       4.143   0.095  28.150  0.00  0.00    -0.383 OA
ATOM     38  H   UNL     1       3.958   0.478  29.027  0.00  0.00    +0.210 HD
ENDBRANCH  32  37
BRANCH  29  39
ATOM     39  C   UNL     1       6.888   2.956  25.427  0.00  0.00    +0.190 C 
BRANCH  39  40
ATOM     40  O   UNL     1       8.176   2.548  25.902  0.00  0.00    -0.392 OA
ATOM     41  H   UNL     1       8.050   2.223  26.813  0.00  0.00    +0.210 HD
ENDBRANCH  39  40
ENDBRANCH  29  39
ENDBRANCH  26  27
ENDBRANCH  11  26
TORSDOF 12
ENDMDL
MODEL 3
REMARK VINA RESULT:      -6.5      2.414      4.971
REMARK  Name = 
REMARK  12 active torsions:
REMARK  status: ('A' for Active; 'I' for Inactive)
REMARK    1  A    between atoms: C_3  and  O_38
REMARK    2  A    between atoms: C_4  and  O_37
REMARK    3  A    between atoms: C_6  and  C_7
REMARK    4  A    between atoms: C_8  and  O_20
REMARK    5  A    between atoms: C_12  and  O_19
REMARK    6  A    between atoms: C_14  and  O_18
REMARK    7  A    between atoms: O_20  and  C_21
REMARK    8  A    between atoms: C_23  and  O_36
REMARK    9  A    between atoms: C_25  and  O_35
REMARK   10  A    between atoms: C_27  and  O_34
REMARK   11  A    between atoms: C_29  and  C_32
REMARK   12  A    between atoms: C_32  and  O_33
REMARK                            x       y       z     vdW  Elec       q    Type
REMARK                         _______ _______ _______ _____ _____    ______ ____
ROOT
ATOM      1  C   UNL     1       6.458  -1.624  25.451  0.00  0.00    +0.181 A 
ATOM      2  O   UNL     1       5.696  -1.600  26.620  0.00  0.00    -0.451 OA
ATOM      3  C   UNL     1       4.843  -0.566  26.857  0.00  0.00    +0.147 A 
ATOM      4  C   UNL     1       4.857   0.601  26.114  0.00  0.00    +0.109 A 
ATOM      5  C   UNL     1       4.025   1.666  26.479  0.00  0.00    +0.135 A 
ATOM      6  C   UNL     1       3.135   1.532  27.548  0.00  0.00    +0.091 A 
ATOM      7  C   UNL     1       3.082   0.335  28.241  0.00  0.00    +0.124 A 
ATOM      8  C   UNL     1       5.739   0.648  24.940  0.00  0.00    +0.238 A 
ATOM      9  O   UNL     1       5.856   1.695  24.310  0.00  0.00    -0.283 OA
ATOM     10  C   UNL     1       3.936  -0.716  27.909  0.00  0.00    +0.092 A 
ATOM     11  C   UNL     1       6.429  -0.622  24.535  0.00  0.00    +0.214 A 
ENDROOT
BRANCH   1  13
ATOM     12  C   UNL     1       8.168  -3.190  26.432  0.00  0.00    +0.015 A 
ATOM     13  C   UNL     1       7.280  -2.874  25.379  0.00  0.00    +0.025 A 
ATOM     14  C   UNL     1       7.260  -3.742  24.274  0.00  0.00    +0.060 A 
ATOM     15  C   UNL     1       8.044  -4.890  24.261  0.00  0.00    +0.159 A 
ATOM     16  C   UNL     1       8.941  -5.153  25.285  0.00  0.00    +0.158 A 
ATOM     17  C   UNL     1       9.011  -4.307  26.379  0.00  0.00    +0.050 A 
BRANCH  15  18
ATOM     18  O   UNL     1       7.925  -5.760  23.215  0.00  0.00    -0.503 OA
ATOM     19  H   UNL     1       7.844  -6.643  23.631  0.00  0.00    +0.292 HD
ENDBRANCH  15  18
BRANCH  16  20
ATOM     20  O   UNL     1       9.751  -6.244  25.160  0.00  0.00    -0.503 OA
ATOM     21  H   UNL     1      10.619  -5.939  24.840  0.00  0.00    +0.292 HD
ENDBRANCH  16  20
ENDBRANCH   1  13
BRANCH   5  22
ATOM     22  O   UNL     1       4.021   2.870  25.832  0.00  0.00    -0.506 OA
ATOM     23  H   UNL     1       3.264   2.882  25.203  0.00  0.00    +0.292 HD
ENDBRANCH   5  22
BRANCH   7  24
ATOM     24  O   UNL     1       2.215   0.136  29.276  0.00  0.00    -0.507 OA
ATOM     25  H   UNL     1       2.093   0.978  29.749  0.00  0.00    +0.292 HD
ENDBRANCH   7  24
BRANCH  11  26
ATOM     26  O   UNL     1       7.006  -0.623  23.268  0.00  0.00    -0.453 OA
BRANCH  26  27
ATOM     27  C   UNL     1       8.429  -0.864  23.248  0.00  0.00    +0.340 C 
ATOM     28  O   UNL     1       9.076   0.024  24.161  0.00  0.00    -0.331 OA
ATOM     29  C   UNL     1       9.933   1.090  23.718  0.00  0.00    +0.179 C 
ATOM     30  C   UNL     1      10.240   1.213  22.214  0.00  0.00    +0.177 C 
ATOM     31  C   UNL     1       9.183   0.553  21.339  0.00  0.00    +0.180 C 
ATOM     32  C   UNL     1       8.981  -0.876  21.818  0.00  0.00    +0.214 C 
BRANCH  30  33
ATOM     33  O   UNL     1      10.435   2.570  21.802  0.00  0.00    -0.386 OA
ATOM     34  H   UNL     1      11.403   2.701  21.731  0.00  0.00    +0.210 HD
ENDBRANCH  30  33
BRANCH  31  35
ATOM     35  O   UNL     1       7.996   1.354  21.333  0.00  0.00    -0.386 OA
ATOM     36  H   UNL     1       8.133   2.166  20.805  0.00  0.00    +0.210 HD
ENDBRANCH  31  35
BRANCH  32  37
ATOM     37  O   UNL     1      10.240  -1.572  21.761  0.00  0.00    -0.383 OA
ATOM     38  H   UNL     1      10.606  -1.511  20.859  0.00  0.00    +0.210 HD
ENDBRANCH  32  37
BRANCH  29  39
ATOM     39  C   UNL     1       9.430   2.398  24.353  0.00  0.00    +0.190 C 
BRANCH  39  40
ATOM     40  O   UNL     1       8.258   2.868  23.678  0.00  0.00    -0.392 OA
ATOM     41  H   UNL     1       7.537   2.251  23.902  0.00  0.00    +0.210 HD
ENDBRANCH  39  40
ENDBRANCH  29  39
ENDBRANCH  26  27
ENDBRANCH  11  26
TORSDOF 12
ENDMDL
MODEL 4
REMARK VINA RESULT:      -6.4      2.802      8.423
REMARK  Name = 
REMARK  12 active torsions:
REMARK  status: ('A' for Active; 'I' for Inactive)
REMARK    1  A    between atoms: C_3  and  O_38
REMARK    2  A    between atoms: C_4  and  O_37
REMARK    3  A    between atoms: C_6  and  C_7
REMARK    4  A    between atoms: C_8  and  O_20
REMARK    5  A    between atoms: C_12  and  O_19
REMARK    6  A    between atoms: C_14  and  O_18
REMARK    7  A    between atoms: O_20  and  C_21
REMARK    8  A    between atoms: C_23  and  O_36
REMARK    9  A    between atoms: C_25  and  O_35
REMARK   10  A    between atoms: C_27  and  O_34
REMARK   11  A    between atoms: C_29  and  C_32
REMARK   12  A    between atoms: C_32  and  O_33
REMARK                            x       y       z     vdW  Elec       q    Type
REMARK                         _______ _______ _______ _____ _____    ______ ____
ROOT
ATOM      1  C   UNL     1       9.035   1.814  23.922  0.00  0.00    +0.181 A 
ATOM      2  O   UNL     1      10.288   2.164  23.419  0.00  0.00    -0.451 OA
ATOM      3  C   UNL     1      10.757   3.432  23.579  0.00  0.00    +0.147 A 
ATOM      4  C   UNL     1       9.959   4.477  24.009  0.00  0.00    +0.109 A 
ATOM      5  C   UNL     1      10.478   5.776  24.050  0.00  0.00    +0.135 A 
ATOM      6  C   UNL     1      11.815   6.012  23.722  0.00  0.00    +0.091 A 
ATOM      7  C   UNL     1      12.623   4.948  23.360  0.00  0.00    +0.124 A 
ATOM      8  C   UNL     1       8.591   4.153  24.437  0.00  0.00    +0.238 A 
ATOM      9  O   UNL     1       7.817   5.060  24.733  0.00  0.00    -0.283 OA
ATOM     10  C   UNL     1      12.102   3.657  23.278  0.00  0.00    +0.092 A 
ATOM     11  C   UNL     1       8.216   2.704  24.538  0.00  0.00    +0.214 A 
ENDROOT
BRANCH   1  13
ATOM     12  C   UNL     1       9.772  -0.593  23.877  0.00  0.00    +0.015 A 
ATOM     13  C   UNL     1       8.752   0.363  23.677  0.00  0.00    +0.025 A 
ATOM     14  C   UNL     1       7.517  -0.106  23.194  0.00  0.00    +0.060 A 
ATOM     15  C   UNL     1       7.309  -1.464  22.985  0.00  0.00    +0.159 A 
ATOM     16  C   UNL     1       8.341  -2.377  23.143  0.00  0.00    +0.158 A 
ATOM     17  C   UNL     1       9.580  -1.951  23.592  0.00  0.00    +0.050 A 
BRANCH  15  18
ATOM     18  O   UNL     1       6.068  -1.893  22.610  0.00  0.00    -0.503 OA
ATOM     19  H   UNL     1       6.226  -2.731  22.129  0.00  0.00    +0.292 HD
ENDBRANCH  15  18
BRANCH  16  20
ATOM     20  O   UNL     1       8.096  -3.681  22.825  0.00  0.00    -0.503 OA
ATOM     21  H   UNL     1       7.665  -3.700  21.952  0.00  0.00    +0.292 HD
ENDBRANCH  16  20
ENDBRANCH   1  13
BRANCH   5  22
ATOM     22  O   UNL     1       9.738   6.868  24.408  0.00  0.00    -0.506 OA
ATOM     23  H   UNL     1      10.133   7.663  23.983  0.00  0.00    +0.292 HD
ENDBRANCH   5  22
BRANCH   7  24
ATOM     24  O   UNL     1      13.943   5.113  23.055  0.00  0.00    -0.507 OA
ATOM     25  H   UNL     1      14.052   5.952  22.574  0.00  0.00    +0.292 HD
ENDBRANCH   7  24
BRANCH  11  26
ATOM     26  O   UNL     1       7.037   2.428  25.225  0.00  0.00    -0.453 OA
BRANCH  26  27
ATOM     27  C   UNL     1       7.211   2.061  26.610  0.00  0.00    +0.340 C 
ATOM     28  O   UNL     1       7.232   0.637  26.727  0.00  0.00    -0.331 OA
ATOM     29  C   UNL     1       6.174  -0.097  27.367  0.00  0.00    +0.179 C 
ATOM     30  C   UNL     1       5.031   0.690  28.035  0.00  0.00    +0.177 C 
ATOM     31  C   UNL     1       4.869   2.094  27.469  0.00  0.00    +0.180 C 
ATOM     32  C   UNL     1       6.218   2.794  27.520  0.00  0.00    +0.214 C 
BRANCH  30  33
ATOM     33  O   UNL     1       3.780  -0.004  27.979  0.00  0.00    -0.386 OA
ATOM     34  H   UNL     1       3.843  -0.740  28.621  0.00  0.00    +0.210 HD
ENDBRANCH  30  33
BRANCH  31  35
ATOM     35  O   UNL     1       4.282   2.023  26.166  0.00  0.00    -0.386 OA
ATOM     36  H   UNL     1       4.928   1.679  25.517  0.00  0.00    +0.210 HD
ENDBRANCH  31  35
BRANCH  32  37
ATOM     37  O   UNL     1       6.688   2.811  28.881  0.00  0.00    -0.383 OA
ATOM     38  H   UNL     1       6.260   3.542  29.364  0.00  0.00    +0.210 HD
ENDBRANCH  32  37
BRANCH  29  39
ATOM     39  C   UNL     1       5.687  -1.178  26.388  0.00  0.00    +0.190 C 
BRANCH  39  40
ATOM     40  O   UNL     1       4.943  -0.590  25.315  0.00  0.00    -0.392 OA
ATOM     41  H   UNL     1       5.018  -1.196  24.554  0.00  0.00    +0.210 HD
ENDBRANCH  39  40
ENDBRANCH  29  39
ENDBRANCH  26  27
ENDBRANCH  11  26
TORSDOF 12
ENDMDL
MODEL 5
REMARK VINA RESULT:      -6.3      1.824      5.310
REMARK  Name = 
REMARK  12 active torsions:
REMARK  status: ('A' for Active; 'I' for Inactive)
REMARK    1  A    between atoms: C_3  and  O_38
REMARK    2  A    between atoms: C_4  and  O_37
REMARK    3  A    between atoms: C_6  and  C_7
REMARK    4  A    between atoms: C_8  and  O_20
REMARK    5  A    between atoms: C_12  and  O_19
REMARK    6  A    between atoms: C_14  and  O_18
REMARK    7  A    between atoms: O_20  and  C_21
REMARK    8  A    between atoms: C_23  and  O_36
REMARK    9  A    between atoms: C_25  and  O_35
REMARK   10  A    between atoms: C_27  and  O_34
REMARK   11  A    between atoms: C_29  and  C_32
REMARK   12  A    between atoms: C_32  and  O_33
REMARK                            x       y       z     vdW  Elec       q    Type
REMARK                         _______ _______ _______ _____ _____    ______ ____
ROOT
ATOM      1  C   UNL     1       7.972  -1.600  24.101  0.00  0.00    +0.181 A 
ATOM      2  O   UNL     1       7.788  -2.464  23.020  0.00  0.00    -0.451 OA
ATOM      3  C   UNL     1       7.038  -3.591  23.168  0.00  0.00    +0.147 A 
ATOM      4  C   UNL     1       6.636  -4.066  24.404  0.00  0.00    +0.109 A 
ATOM      5  C   UNL     1       5.959  -5.287  24.491  0.00  0.00    +0.135 A 
ATOM      6  C   UNL     1       5.631  -5.996  23.333  0.00  0.00    +0.091 A 
ATOM      7  C   UNL     1       5.977  -5.477  22.099  0.00  0.00    +0.124 A 
ATOM      8  C   UNL     1       6.921  -3.229  25.578  0.00  0.00    +0.238 A 
ATOM      9  O   UNL     1       6.670  -3.654  26.702  0.00  0.00    -0.283 OA
ATOM     10  C   UNL     1       6.688  -4.281  22.006  0.00  0.00    +0.092 A 
ATOM     11  C   UNL     1       7.470  -1.853  25.337  0.00  0.00    +0.214 A 
ENDROOT
BRANCH   1  13
ATOM     12  C   UNL     1       9.963  -0.089  24.400  0.00  0.00    +0.015 A 
ATOM     13  C   UNL     1       8.781  -0.407  23.694  0.00  0.00    +0.025 A 
ATOM     14  C   UNL     1       8.394   0.466  22.662  0.00  0.00    +0.060 A 
ATOM     15  C   UNL     1       9.185   1.559  22.327  0.00  0.00    +0.159 A 
ATOM     16  C   UNL     1      10.315   1.876  23.065  0.00  0.00    +0.158 A 
ATOM     17  C   UNL     1      10.715   1.055  24.106  0.00  0.00    +0.050 A 
BRANCH  15  18
ATOM     18  O   UNL     1       8.829   2.328  21.256  0.00  0.00    -0.503 OA
ATOM     19  H   UNL     1       7.897   2.577  21.423  0.00  0.00    +0.292 HD
ENDBRANCH  15  18
BRANCH  16  20
ATOM     20  O   UNL     1      10.989   3.018  22.744  0.00  0.00    -0.503 OA
ATOM     21  H   UNL     1      11.858   2.987  23.182  0.00  0.00    +0.292 HD
ENDBRANCH  16  20
ENDBRANCH   1  13
BRANCH   5  22
ATOM     22  O   UNL     1       5.580  -5.851  25.678  0.00  0.00    -0.506 OA
ATOM     23  H   UNL     1       5.993  -6.742  25.744  0.00  0.00    +0.292 HD
ENDBRANCH   5  22
BRANCH   7  24
ATOM     24  O   UNL     1       5.660  -6.111  20.932  0.00  0.00    -0.507 OA
ATOM     25  H   UNL     1       6.155  -6.947  20.885  0.00  0.00    +0.292 HD
ENDBRANCH   7  24
BRANCH  11  26
ATOM     26  O   UNL     1       7.443  -0.989  26.427  0.00  0.00    -0.453 OA
BRANCH  26  27
ATOM     27  C   UNL     1       6.699   0.231  26.219  0.00  0.00    +0.340 C 
ATOM     28  O   UNL     1       7.090   1.201  27.192  0.00  0.00    -0.331 OA
ATOM     29  C   UNL     1       6.207   1.637  28.239  0.00  0.00    +0.179 C 
ATOM     30  C   UNL     1       4.758   1.114  28.248  0.00  0.00    +0.177 C 
ATOM     31  C   UNL     1       4.600  -0.200  27.496  0.00  0.00    +0.180 C 
ATOM     32  C   UNL     1       5.194  -0.037  26.105  0.00  0.00    +0.214 C 
BRANCH  30  33
ATOM     33  O   UNL     1       4.229   0.983  29.571  0.00  0.00    -0.386 OA
ATOM     34  H   UNL     1       3.301   0.689  29.471  0.00  0.00    +0.210 HD
ENDBRANCH  30  33
BRANCH  31  35
ATOM     35  O   UNL     1       5.167  -1.266  28.265  0.00  0.00    -0.386 OA
ATOM     36  H   UNL     1       5.661  -1.881  27.687  0.00  0.00    +0.210 HD
ENDBRANCH  31  35
BRANCH  32  37
ATOM     37  O   UNL     1       4.529   1.052  25.437  0.00  0.00    -0.383 OA
ATOM     38  H   UNL     1       4.074   1.609  26.094  0.00  0.00    +0.210 HD
ENDBRANCH  32  37
BRANCH  29  39
ATOM     39  C   UNL     1       6.935   1.455  29.582  0.00  0.00    +0.190 C 
BRANCH  39  40
ATOM     40  O   UNL     1       8.206   0.826  29.385  0.00  0.00    -0.392 OA
ATOM     41  H   UNL     1       8.273   0.617  28.434  0.00  0.00    +0.210 HD
ENDBRANCH  39  40
ENDBRANCH  29  39
ENDBRANCH  26  27
ENDBRANCH  11  26
TORSDOF 12
ENDMDL
MODEL 6
REMARK VINA RESULT:      -6.0      2.099      6.536
REMARK  Name = 
REMARK  12 active torsions:
REMARK  status: ('A' for Active; 'I' for Inactive)
REMARK    1  A    between atoms: C_3  and  O_38
REMARK    2  A    between atoms: C_4  and  O_37
REMARK    3  A    between atoms: C_6  and  C_7
REMARK    4  A    between atoms: C_8  and  O_20
REMARK    5  A    between atoms: C_12  and  O_19
REMARK    6  A    between atoms: C_14  and  O_18
REMARK    7  A    between atoms: O_20  and  C_21
REMARK    8  A    between atoms: C_23  and  O_36
REMARK    9  A    between atoms: C_25  and  O_35
REMARK   10  A    between atoms: C_27  and  O_34
REMARK   11  A    between atoms: C_29  and  C_32
REMARK   12  A    between atoms: C_32  and  O_33
REMARK                            x       y       z     vdW  Elec       q    Type
REMARK                         _______ _______ _______ _____ _____    ______ ____
ROOT
ATOM      1  C   UNL     1       6.467   0.075  25.063  0.00  0.00    +0.181 A 
ATOM      2  O   UNL     1       7.375   1.135  25.064  0.00  0.00    -0.451 OA
ATOM      3  C   UNL     1       8.277   1.261  24.052  0.00  0.00    +0.147 A 
ATOM      4  C   UNL     1       8.513   0.256  23.130  0.00  0.00    +0.109 A 
ATOM      5  C   UNL     1       9.530   0.410  22.182  0.00  0.00    +0.135 A 
ATOM      6  C   UNL     1      10.263   1.598  22.120  0.00  0.00    +0.091 A 
ATOM      7  C   UNL     1       9.971   2.623  23.002  0.00  0.00    +0.124 A 
ATOM      8  C   UNL     1       7.645  -0.928  23.181  0.00  0.00    +0.238 A 
ATOM      9  O   UNL     1       7.880  -1.884  22.447  0.00  0.00    -0.283 OA
ATOM     10  C   UNL     1       8.987   2.461  23.977  0.00  0.00    +0.092 A 
ATOM     11  C   UNL     1       6.465  -0.889  24.108  0.00  0.00    +0.214 A 
ENDROOT
BRANCH   1  13
ATOM     12  C   UNL     1       5.916  -0.409  27.471  0.00  0.00    +0.015 A 
ATOM     13  C   UNL     1       5.542   0.169  26.237  0.00  0.00    +0.025 A 
ATOM     14  C   UNL     1       4.269   0.763  26.166  0.00  0.00    +0.060 A 
ATOM     15  C   UNL     1       3.452   0.822  27.288  0.00  0.00    +0.159 A 
ATOM     16  C   UNL     1       3.822   0.206  28.474  0.00  0.00    +0.158 A 
ATOM     17  C   UNL     1       5.056  -0.414  28.577  0.00  0.00    +0.050 A 
BRANCH  15  18
ATOM     18  O   UNL     1       2.265   1.493  27.208  0.00  0.00    -0.503 OA
ATOM     19  H   UNL     1       1.583   0.824  27.418  0.00  0.00    +0.292 HD
ENDBRANCH  15  18
BRANCH  16  20
ATOM     20  O   UNL     1       2.929   0.216  29.506  0.00  0.00    -0.503 OA
ATOM     21  H   UNL     1       3.432   0.284  30.337  0.00  0.00    +0.292 HD
ENDBRANCH  16  20
ENDBRANCH   1  13
BRANCH   5  22
ATOM     22  O   UNL     1       9.863  -0.558  21.276  0.00  0.00    -0.506 OA
ATOM     23  H   UNL     1      10.150  -1.359  21.770  0.00  0.00    +0.292 HD
ENDBRANCH   5  22
BRANCH   7  24
ATOM     24  O   UNL     1      10.634   3.815  22.972  0.00  0.00    -0.507 OA
ATOM     25  H   UNL     1      10.441   4.302  23.791  0.00  0.00    +0.292 HD
ENDBRANCH   7  24
BRANCH  11  26
ATOM     26  O   UNL     1       5.508  -1.881  23.914  0.00  0.00    -0.453 OA
BRANCH  26  27
ATOM     27  C   UNL     1       5.461  -2.891  24.944  0.00  0.00    +0.340 C 
ATOM     28  O   UNL     1       6.640  -3.694  24.879  0.00  0.00    -0.331 OA
ATOM     29  C   UNL     1       6.610  -5.072  24.470  0.00  0.00    +0.179 C 
ATOM     30  C   UNL     1       5.245  -5.728  24.190  0.00  0.00    +0.177 C 
ATOM     31  C   UNL     1       4.162  -4.715  23.844  0.00  0.00    +0.180 C 
ATOM     32  C   UNL     1       4.129  -3.652  24.931  0.00  0.00    +0.214 C 
BRANCH  30  33
ATOM     33  O   UNL     1       5.316  -6.730  23.170  0.00  0.00    -0.386 OA
ATOM     34  H   UNL     1       6.198  -7.147  23.252  0.00  0.00    +0.210 HD
ENDBRANCH  30  33
BRANCH  31  35
ATOM     35  O   UNL     1       4.379  -4.210  22.523  0.00  0.00    -0.386 OA
ATOM     36  H   UNL     1       4.675  -4.927  21.926  0.00  0.00    +0.210 HD
ENDBRANCH  31  35
BRANCH  32  37
ATOM     37  O   UNL     1       3.890  -4.287  26.201  0.00  0.00    -0.383 OA
ATOM     38  H   UNL     1       2.982  -4.639  26.224  0.00  0.00    +0.210 HD
ENDBRANCH  32  37
BRANCH  29  39
ATOM     39  C   UNL     1       7.625  -5.250  23.328  0.00  0.00    +0.190 C 
BRANCH  39  40
ATOM     40  O   UNL     1       7.170  -4.591  22.141  0.00  0.00    -0.392 OA
ATOM     41  H   UNL     1       7.958  -4.427  21.589  0.00  0.00    +0.210 HD
ENDBRANCH  39  40
ENDBRANCH  29  39
ENDBRANCH  26  27
ENDBRANCH  11  26
TORSDOF 12
ENDMDL
MODEL 7
REMARK VINA RESULT:      -6.0      2.854      5.031
REMARK  Name = 
REMARK  12 active torsions:
REMARK  status: ('A' for Active; 'I' for Inactive)
REMARK    1  A    between atoms: C_3  and  O_38
REMARK    2  A    between atoms: C_4  and  O_37
REMARK    3  A    between atoms: C_6  and  C_7
REMARK    4  A    between atoms: C_8  and  O_20
REMARK    5  A    between atoms: C_12  and  O_19
REMARK    6  A    between atoms: C_14  and  O_18
REMARK    7  A    between atoms: O_20  and  C_21
REMARK    8  A    between atoms: C_23  and  O_36
REMARK    9  A    between atoms: C_25  and  O_35
REMARK   10  A    between atoms: C_27  and  O_34
REMARK   11  A    between atoms: C_29  and  C_32
REMARK   12  A    between atoms: C_32  and  O_33
REMARK                            x       y       z     vdW  Elec       q    Type
REMARK                         _______ _______ _______ _____ _____    ______ ____
ROOT
ATOM      1  C   UNL     1       6.107  -1.720  25.876  0.00  0.00    +0.181 A 
ATOM      2  O   UNL     1       4.962  -2.264  26.459  0.00  0.00    -0.451 OA
ATOM      3  C   UNL     1       3.938  -1.451  26.838  0.00  0.00    +0.147 A 
ATOM      4  C   UNL     1       4.059  -0.074  26.901  0.00  0.00    +0.109 A 
ATOM      5  C   UNL     1       3.001   0.693  27.402  0.00  0.00    +0.135 A 
ATOM      6  C   UNL     1       1.801   0.082  27.775  0.00  0.00    +0.091 A 
ATOM      7  C   UNL     1       1.668  -1.289  27.643  0.00  0.00    +0.124 A 
ATOM      8  C   UNL     1       5.305   0.521  26.400  0.00  0.00    +0.238 A 
ATOM      9  O   UNL     1       5.495   1.728  26.526  0.00  0.00    -0.283 OA
ATOM     10  C   UNL     1       2.732  -2.064  27.184  0.00  0.00    +0.092 A 
ATOM     11  C   UNL     1       6.280  -0.384  25.705  0.00  0.00    +0.214 A 
ENDROOT
BRANCH   1  13
ATOM     12  C   UNL     1       7.067  -3.309  24.176  0.00  0.00    +0.015 A 
ATOM     13  C   UNL     1       7.072  -2.800  25.494  0.00  0.00    +0.025 A 
ATOM     14  C   UNL     1       7.965  -3.388  26.406  0.00  0.00    +0.060 A 
ATOM     15  C   UNL     1       8.840  -4.387  25.996  0.00  0.00    +0.159 A 
ATOM     16  C   UNL     1       8.782  -4.903  24.710  0.00  0.00    +0.158 A 
ATOM     17  C   UNL     1       7.897  -4.368  23.789  0.00  0.00    +0.050 A 
BRANCH  15  18
ATOM     18  O   UNL     1       9.760  -4.866  26.884  0.00  0.00    -0.503 OA
ATOM     19  H   UNL     1       9.335  -4.773  27.761  0.00  0.00    +0.292 HD
ENDBRANCH  15  18
BRANCH  16  20
ATOM     20  O   UNL     1       9.601  -5.951  24.403  0.00  0.00    -0.503 OA
ATOM     21  H   UNL     1       9.169  -6.768  24.709  0.00  0.00    +0.292 HD
ENDBRANCH  16  20
ENDBRANCH   1  13
BRANCH   5  22
ATOM     22  O   UNL     1       3.064   2.051  27.549  0.00  0.00    -0.506 OA
ATOM     23  H   UNL     1       2.899   2.268  28.495  0.00  0.00    +0.292 HD
ENDBRANCH   5  22
BRANCH   7  24
ATOM     24  O   UNL     1       0.512  -1.937  27.967  0.00  0.00    -0.507 OA
ATOM     25  H   UNL     1       0.467  -2.768  27.463  0.00  0.00    +0.292 HD
ENDBRANCH   7  24
BRANCH  11  26
ATOM     26  O   UNL     1       7.290   0.249  24.986  0.00  0.00    -0.453 OA
BRANCH  26  27
ATOM     27  C   UNL     1       6.941   0.608  23.633  0.00  0.00    +0.340 C 
ATOM     28  O   UNL     1       7.699  -0.184  22.717  0.00  0.00    -0.331 OA
ATOM     29  C   UNL     1       8.726   0.378  21.883  0.00  0.00    +0.179 C 
ATOM     30  C   UNL     1       8.944   1.902  21.908  0.00  0.00    +0.177 C 
ATOM     31  C   UNL     1       8.441   2.551  23.191  0.00  0.00    +0.180 C 
ATOM     32  C   UNL     1       6.999   2.125  23.416  0.00  0.00    +0.214 C 
BRANCH  30  33
ATOM     33  O   UNL     1      10.310   2.266  21.682  0.00  0.00    -0.386 OA
ATOM     34  H   UNL     1      10.363   3.236  21.808  0.00  0.00    +0.210 HD
ENDBRANCH  30  33
BRANCH  31  35
ATOM     35  O   UNL     1       9.331   2.238  24.268  0.00  0.00    -0.386 OA
ATOM     36  H   UNL     1       9.338   1.275  24.438  0.00  0.00    +0.210 HD
ENDBRANCH  31  35
BRANCH  32  37
ATOM     37  O   UNL     1       6.213   2.509  22.272  0.00  0.00    -0.383 OA
ATOM     38  H   UNL     1       5.816   3.386  22.429  0.00  0.00    +0.210 HD
ENDBRANCH  32  37
BRANCH  29  39
ATOM     39  C   UNL     1      10.015  -0.432  22.107  0.00  0.00    +0.190 C 
BRANCH  39  40
ATOM     40  O   UNL     1      10.538  -0.196  23.419  0.00  0.00    -0.392 OA
ATOM     41  H   UNL     1      11.464   0.090  23.307  0.00  0.00    +0.210 HD
ENDBRANCH  39  40
ENDBRANCH  29  39
ENDBRANCH  26  27
ENDBRANCH  11  26
TORSDOF 12
ENDMDL
MODEL 8
REMARK VINA RESULT:      -6.0      2.076      4.962
REMARK  Name = 
REMARK  12 active torsions:
REMARK  status: ('A' for Active; 'I' for Inactive)
REMARK    1  A    between atoms: C_3  and  O_38
REMARK    2  A    between atoms: C_4  and  O_37
REMARK    3  A    between atoms: C_6  and  C_7
REMARK    4  A    between atoms: C_8  and  O_20
REMARK    5  A    between atoms: C_12  and  O_19
REMARK    6  A    between atoms: C_14  and  O_18
REMARK    7  A    between atoms: O_20  and  C_21
REMARK    8  A    between atoms: C_23  and  O_36
REMARK    9  A    between atoms: C_25  and  O_35
REMARK   10  A    between atoms: C_27  and  O_34
REMARK   11  A    between atoms: C_29  and  C_32
REMARK   12  A    between atoms: C_32  and  O_33
REMARK                            x       y       z     vdW  Elec       q    Type
REMARK                         _______ _______ _______ _____ _____    ______ ____
ROOT
ATOM      1  C   UNL     1       7.265  -1.338  23.855  0.00  0.00    +0.181 A 
ATOM      2  O   UNL     1       7.602  -2.554  23.259  0.00  0.00    -0.451 OA
ATOM      3  C   UNL     1       6.682  -3.554  23.181  0.00  0.00    +0.147 A 
ATOM      4  C   UNL     1       5.487  -3.527  23.879  0.00  0.00    +0.109 A 
ATOM      5  C   UNL     1       4.635  -4.636  23.838  0.00  0.00    +0.135 A 
ATOM      6  C   UNL     1       4.953  -5.742  23.045  0.00  0.00    +0.091 A 
ATOM      7  C   UNL     1       6.117  -5.728  22.298  0.00  0.00    +0.124 A 
ATOM      8  C   UNL     1       5.158  -2.298  24.614  0.00  0.00    +0.238 A 
ATOM      9  O   UNL     1       4.157  -2.266  25.325  0.00  0.00    -0.283 OA
ATOM     10  C   UNL     1       6.991  -4.644  22.365  0.00  0.00    +0.092 A 
ATOM     11  C   UNL     1       6.052  -1.109  24.419  0.00  0.00    +0.214 A 
ENDROOT
BRANCH   1  13
ATOM     12  C   UNL     1       9.359  -0.332  24.825  0.00  0.00    +0.015 A 
ATOM     13  C   UNL     1       8.410  -0.375  23.779  0.00  0.00    +0.025 A 
ATOM     14  C   UNL     1       8.567   0.548  22.730  0.00  0.00    +0.060 A 
ATOM     15  C   UNL     1       9.650   1.419  22.711  0.00  0.00    +0.159 A 
ATOM     16  C   UNL     1      10.541   1.474  23.773  0.00  0.00    +0.158 A 
ATOM     17  C   UNL     1      10.404   0.600  24.838  0.00  0.00    +0.050 A 
BRANCH  15  18
ATOM     18  O   UNL     1       9.825   2.233  21.629  0.00  0.00    -0.503 OA
ATOM     19  H   UNL     1       9.902   3.135  22.002  0.00  0.00    +0.292 HD
ENDBRANCH  15  18
BRANCH  16  20
ATOM     20  O   UNL     1      11.523   2.422  23.735  0.00  0.00    -0.503 OA
ATOM     21  H   UNL     1      11.413   2.999  24.511  0.00  0.00    +0.292 HD
ENDBRANCH  16  20
ENDBRANCH   1  13
BRANCH   5  22
ATOM     22  O   UNL     1       3.466  -4.710  24.544  0.00  0.00    -0.506 OA
ATOM     23  H   UNL     1       3.677  -4.992  25.463  0.00  0.00    +0.292 HD
ENDBRANCH   5  22
BRANCH   7  24
ATOM     24  O   UNL     1       6.467  -6.767  21.485  0.00  0.00    -0.507 OA
ATOM     25  H   UNL     1       6.801  -7.497  22.035  0.00  0.00    +0.292 HD
ENDBRANCH   7  24
BRANCH  11  26
ATOM     26  O   UNL     1       5.554   0.107  24.880  0.00  0.00    -0.453 OA
BRANCH  26  27
ATOM     27  C   UNL     1       5.959   0.463  26.219  0.00  0.00    +0.340 C 
ATOM     28  O   UNL     1       4.824   0.430  27.086  0.00  0.00    -0.331 OA
ATOM     29  C   UNL     1       4.265   1.622  27.664  0.00  0.00    +0.179 C 
ATOM     30  C   UNL     1       4.978   2.965  27.419  0.00  0.00    +0.177 C 
ATOM     31  C   UNL     1       5.845   2.954  26.167  0.00  0.00    +0.180 C 
ATOM     32  C   UNL     1       6.781   1.757  26.237  0.00  0.00    +0.214 C 
BRANCH  30  33
ATOM     33  O   UNL     1       4.068   4.069  27.370  0.00  0.00    -0.386 OA
ATOM     34  H   UNL     1       3.196   3.722  27.650  0.00  0.00    +0.210 HD
ENDBRANCH  30  33
BRANCH  31  35
ATOM     35  O   UNL     1       5.012   2.993  25.004  0.00  0.00    -0.386 OA
ATOM     36  H   UNL     1       4.150   3.402  25.214  0.00  0.00    +0.210 HD
ENDBRANCH  31  35
BRANCH  32  37
ATOM     37  O   UNL     1       7.568   1.847  27.440  0.00  0.00    -0.383 OA
ATOM     38  H   UNL     1       7.860   2.767  27.571  0.00  0.00    +0.210 HD
ENDBRANCH  32  37
BRANCH  29  39
ATOM     39  C   UNL     1       2.763   1.652  27.331  0.00  0.00    +0.190 C 
BRANCH  39  40
ATOM     40  O   UNL     1       2.562   1.858  25.928  0.00  0.00    -0.392 OA
ATOM     41  H   UNL     1       1.805   1.301  25.667  0.00  0.00    +0.210 HD
ENDBRANCH  39  40
ENDBRANCH  29  39
ENDBRANCH  26  27
ENDBRANCH  11  26
TORSDOF 12
ENDMDL
MODEL 9
REMARK VINA RESULT:      -6.0      2.311      5.104
REMARK  Name = 
REMARK  12 active torsions:
REMARK  status: ('A' for Active; 'I' for Inactive)
REMARK    1  A    between atoms: C_3  and  O_38
REMARK    2  A    between atoms: C_4  and  O_37
REMARK    3  A    between atoms: C_6  and  C_7
REMARK    4  A    between atoms: C_8  and  O_20
REMARK    5  A    between atoms: C_12  and  O_19
REMARK    6  A    between atoms: C_14  and  O_18
REMARK    7  A    between atoms: O_20  and  C_21
REMARK    8  A    between atoms: C_23  and  O_36
REMARK    9  A    between atoms: C_25  and  O_35
REMARK   10  A    between atoms: C_27  and  O_34
REMARK   11  A    between atoms: C_29  and  C_32
REMARK   12  A    between atoms: C_32  and  O_33
REMARK                            x       y       z     vdW  Elec       q    Type
REMARK                         _______ _______ _______ _____ _____    ______ ____
ROOT
ATOM      1  C   UNL     1       6.133  -1.933  25.621  0.00  0.00    +0.181 A 
ATOM      2  O   UNL     1       5.341  -2.474  26.635  0.00  0.00    -0.451 OA
ATOM      3  C   UNL     1       4.875  -1.676  27.635  0.00  0.00    +0.147 A 
ATOM      4  C   UNL     1       5.339  -0.390  27.845  0.00  0.00    +0.109 A 
ATOM      5  C   UNL     1       4.894   0.335  28.956  0.00  0.00    +0.135 A 
ATOM      6  C   UNL     1       3.936  -0.208  29.816  0.00  0.00    +0.091 A 
ATOM      7  C   UNL     1       3.428  -1.468  29.556  0.00  0.00    +0.124 A 
ATOM      8  C   UNL     1       6.269   0.166  26.852  0.00  0.00    +0.238 A 
ATOM      9  O   UNL     1       6.781   1.265  27.049  0.00  0.00    -0.283 OA
ATOM     10  C   UNL     1       3.896  -2.213  28.475  0.00  0.00    +0.092 A 
ATOM     11  C   UNL     1       6.513  -0.630  25.604  0.00  0.00    +0.214 A 
ENDROOT
BRANCH   1  13
ATOM     12  C   UNL     1       5.698  -3.113  23.441  0.00  0.00    +0.015 A 
ATOM     13  C   UNL     1       6.484  -2.978  24.607  0.00  0.00    +0.025 A 
ATOM     14  C   UNL     1       7.540  -3.889  24.780  0.00  0.00    +0.060 A 
ATOM     15  C   UNL     1       7.822  -4.839  23.804  0.00  0.00    +0.159 A 
ATOM     16  C   UNL     1       7.007  -4.982  22.691  0.00  0.00    +0.158 A 
ATOM     17  C   UNL     1       5.940  -4.121  22.499  0.00  0.00    +0.050 A 
BRANCH  15  18
ATOM     18  O   UNL     1       8.915  -5.642  23.960  0.00  0.00    -0.503 OA
ATOM     19  H   UNL     1       9.497  -5.158  24.581  0.00  0.00    +0.292 HD
ENDBRANCH  15  18
BRANCH  16  20
ATOM     20  O   UNL     1       7.282  -6.000  21.824  0.00  0.00    -0.503 OA
ATOM     21  H   UNL     1       7.832  -5.641  21.105  0.00  0.00    +0.292 HD
ENDBRANCH  16  20
ENDBRANCH   1  13
BRANCH   5  22
ATOM     22  O   UNL     1       5.348   1.588  29.264  0.00  0.00    -0.506 OA
ATOM     23  H   UNL     1       4.734   2.246  28.865  0.00  0.00    +0.292 HD
ENDBRANCH   5  22
BRANCH   7  24
ATOM     24  O   UNL     1       2.472  -2.039  30.345  0.00  0.00    -0.507 OA
ATOM     25  H   UNL     1       1.859  -1.347  30.647  0.00  0.00    +0.292 HD
ENDBRANCH   7  24
BRANCH  11  26
ATOM     26  O   UNL     1       7.147   0.049  24.566  0.00  0.00    -0.453 OA
BRANCH  26  27
ATOM     27  C   UNL     1       8.561  -0.215  24.441  0.00  0.00    +0.340 C 
ATOM     28  O   UNL     1       9.299   0.940  24.843  0.00  0.00    -0.331 OA
ATOM     29  C   UNL     1      10.052   1.734  23.910  0.00  0.00    +0.179 C 
ATOM     30  C   UNL     1      10.145   1.262  22.447  0.00  0.00    +0.177 C 
ATOM     31  C   UNL     1       8.999   0.341  22.050  0.00  0.00    +0.180 C 
ATOM     32  C   UNL     1       8.911  -0.789  23.064  0.00  0.00    +0.214 C 
BRANCH  30  33
ATOM     33  O   UNL     1      10.237   2.350  21.523  0.00  0.00    -0.386 OA
ATOM     34  H   UNL     1      11.119   2.754  21.658  0.00  0.00    +0.210 HD
ENDBRANCH  30  33
BRANCH  31  35
ATOM     35  O   UNL     1       7.797   1.104  21.902  0.00  0.00    -0.386 OA
ATOM     36  H   UNL     1       7.435   1.347  22.777  0.00  0.00    +0.210 HD
ENDBRANCH  31  35
BRANCH  32  37
ATOM     37  O   UNL     1      10.173  -1.482  23.104  0.00  0.00    -0.383 OA
ATOM     38  H   UNL     1      10.353  -1.883  22.233  0.00  0.00    +0.210 HD
ENDBRANCH  32  37
BRANCH  29  39
ATOM     39  C   UNL     1       9.598   3.197  24.057  0.00  0.00    +0.190 C 
BRANCH  39  40
ATOM     40  O   UNL     1       8.235   3.346  23.647  0.00  0.00    -0.392 OA
ATOM     41  H   UNL     1       7.706   2.738  24.198  0.00  0.00    +0.210 HD
ENDBRANCH  39  40
ENDBRANCH  29  39
ENDBRANCH  26  27
ENDBRANCH  11  26
TORSDOF 12
ENDMDL
