MODEL 1
REMARK VINA RESULT:      -7.6      0.000      0.000
REMARK  Name = 
REMARK  24 active torsions:
REMARK  status: ('A' for Active; 'I' for Inactive)
REMARK    1  A    between atoms: C_3  and  O_55
REMARK    2  A    between atoms: C_4  and  O_54
REMARK    3  A    between atoms: C_6  and  C_7
REMARK    4  A    between atoms: C_8  and  O_42
REMARK    5  A    between atoms: C_12  and  O_41
REMARK    6  A    between atoms: C_14  and  O_18
REMARK    7  A    between atoms: O_18  and  C_19
REMARK    8  A    between atoms: C_20  and  O_40
REMARK    9  A    between atoms: C_21  and  O_39
REMARK   10  A    between atoms: C_22  and  O_38
REMARK   11  A    between atoms: C_23  and  C_25
REMARK   12  A    between atoms: C_25  and  O_26
REMARK   13  A    between atoms: O_26  and  C_27
REMARK   14  A    between atoms: C_28  and  O_37
REMARK   15  A    between atoms: C_29  and  O_36
REMARK   16  A    between atoms: C_30  and  O_35
REMARK   17  A    between atoms: C_31  and  C_33
REMARK   18  A    between atoms: C_33  and  O_34
REMARK   19  A    between atoms: O_42  and  C_43
REMARK   20  A    between atoms: C_44  and  O_53
REMARK   21  A    between atoms: C_45  and  O_52
REMARK   22  A    between atoms: C_46  and  O_51
REMARK   23  A    between atoms: C_47  and  C_49
REMARK   24  A    between atoms: C_49  and  O_50
REMARK                            x       y       z     vdW  Elec       q    Type
REMARK                         _______ _______ _______ _____ _____    ______ ____
ROOT
ATOM      1  C   UNL     1       7.460   1.142  25.848  0.00  0.00    +0.181 A 
ATOM      2  O   UNL     1       6.997  -0.123  26.117  0.00  0.00    -0.451 OA
ATOM      3  C   UNL     1       6.045  -0.324  27.081  0.00  0.00    +0.147 A 
ATOM      4  C   UNL     1       5.577   0.681  27.913  0.00  0.00    +0.109 A 
ATOM      5  C   UNL     1       4.624   0.353  28.891  0.00  0.00    +0.135 A 
ATOM      6  C   UNL     1       4.066  -0.939  28.953  0.00  0.00    +0.092 A 
ATOM      7  C   UNL     1       4.467  -1.919  28.042  0.00  0.00    +0.131 A 
ATOM      8  C   UNL     1       6.099   2.041  27.672  0.00  0.00    +0.238 A 
ATOM      9  O   UNL     1       5.726   2.985  28.363  0.00  0.00    -0.283 OA
ATOM     10  C   UNL     1       5.517  -1.617  27.167  0.00  0.00    +0.093 A 
ATOM     11  C   UNL     1       7.054   2.249  26.525  0.00  0.00    +0.214 A 
ENDROOT
BRANCH   1  13
ATOM     12  C   UNL     1       9.733   1.074  24.728  0.00  0.00    +0.015 A 
ATOM     13  C   UNL     1       8.339   1.165  24.652  0.00  0.00    +0.025 A 
ATOM     14  C   UNL     1       7.782   1.416  23.387  0.00  0.00    +0.060 A 
ATOM     15  C   UNL     1       8.605   1.778  22.330  0.00  0.00    +0.159 A 
ATOM     16  C   UNL     1       9.976   1.907  22.505  0.00  0.00    +0.158 A 
ATOM     17  C   UNL     1      10.559   1.509  23.691  0.00  0.00    +0.050 A 
BRANCH  16  18
ATOM     18  O   UNL     1      10.711   2.451  21.493  0.00  0.00    -0.503 OA
ATOM     19  H   UNL     1      10.088   2.866  20.869  0.00  0.00    +0.292 HD
ENDBRANCH  16  18
BRANCH  15  20
ATOM     20  O   UNL     1       8.044   2.066  21.121  0.00  0.00    -0.503 OA
ATOM     21  H   UNL     1       8.110   3.040  21.050  0.00  0.00    +0.292 HD
ENDBRANCH  15  20
ENDBRANCH   1  13
BRANCH   5  22
ATOM     22  O   UNL     1       4.164   1.256  29.812  0.00  0.00    -0.506 OA
ATOM     23  H   UNL     1       4.863   1.920  29.987  0.00  0.00    +0.292 HD
ENDBRANCH   5  22
BRANCH  11  24
ATOM     24  O   UNL     1       7.665   3.475  26.345  0.00  0.00    -0.453 OA
BRANCH  24  25
ATOM     25  C   UNL     1       6.898   4.674  26.115  0.00  0.00    +0.340 C 
ATOM     26  O   UNL     1       6.439   4.771  24.745  0.00  0.00    -0.331 OA
ATOM     27  C   UNL     1       7.423   4.998  23.701  0.00  0.00    +0.179 C 
ATOM     28  C   UNL     1       8.761   5.670  24.087  0.00  0.00    +0.177 C 
ATOM     29  C   UNL     1       9.091   5.646  25.586  0.00  0.00    +0.180 C 
ATOM     30  C   UNL     1       7.791   5.897  26.371  0.00  0.00    +0.214 C 
BRANCH  30  31
ATOM     31  O   UNL     1       7.994   6.171  27.750  0.00  0.00    -0.383 OA
ATOM     32  H   UNL     1       7.493   5.532  28.298  0.00  0.00    +0.210 HD
ENDBRANCH  30  31
BRANCH  29  33
ATOM     33  O   UNL     1      10.073   6.649  25.863  0.00  0.00    -0.386 OA
ATOM     34  H   UNL     1       9.603   7.493  25.997  0.00  0.00    +0.210 HD
ENDBRANCH  29  33
BRANCH  28  35
ATOM     35  O   UNL     1       8.811   7.033  23.624  0.00  0.00    -0.386 OA
ATOM     36  H   UNL     1       7.970   7.230  23.164  0.00  0.00    +0.210 HD
ENDBRANCH  28  35
BRANCH  27  37
ATOM     37  C   UNL     1       6.709   5.774  22.569  0.00  0.00    +0.190 C 
BRANCH  37  38
ATOM     38  O   UNL     1       7.582   5.925  21.446  0.00  0.00    -0.392 OA
ATOM     39  H   UNL     1       8.477   6.021  21.824  0.00  0.00    +0.210 HD
ENDBRANCH  37  38
ENDBRANCH  27  37
ENDBRANCH  24  25
ENDBRANCH  11  24
BRANCH   7  40
ATOM     40  O   UNL     1       3.764  -3.113  28.022  0.00  0.00    -0.461 OA
BRANCH  40  41
ATOM     41  C   UNL     1       4.563  -4.261  28.393  0.00  0.00    +0.339 C 
ATOM     42  O   UNL     1       5.222  -4.827  27.235  0.00  0.00    -0.331 OA
ATOM     43  C   UNL     1       4.278  -5.525  26.399  0.00  0.00    +0.179 C 
ATOM     44  C   UNL     1       3.964  -6.818  27.140  0.00  0.00    +0.177 C 
ATOM     45  C   UNL     1       3.153  -6.456  28.380  0.00  0.00    +0.180 C 
ATOM     46  C   UNL     1       3.831  -5.359  29.220  0.00  0.00    +0.214 C 
BRANCH  46  47
ATOM     47  O   UNL     1       2.926  -4.793  30.175  0.00  0.00    -0.383 OA
ATOM     48  H   UNL     1       2.178  -5.411  30.272  0.00  0.00    +0.210 HD
ENDBRANCH  46  47
BRANCH  45  49
ATOM     49  O   UNL     1       3.005  -7.635  29.191  0.00  0.00    -0.386 OA
ATOM     50  H   UNL     1       3.366  -7.392  30.072  0.00  0.00    +0.210 HD
ENDBRANCH  45  49
BRANCH  44  51
ATOM     51  O   UNL     1       5.188  -7.452  27.576  0.00  0.00    -0.386 OA
ATOM     52  H   UNL     1       5.909  -6.796  27.460  0.00  0.00    +0.210 HD
ENDBRANCH  44  51
BRANCH  43  53
ATOM     53  C   UNL     1       4.875  -5.810  25.018  0.00  0.00    +0.197 C 
BRANCH  53  54
ATOM     54  O   UNL     1       5.626  -4.722  24.459  0.00  0.00    -0.346 OA
BRANCH  54  55
ATOM     55  C   UNL     1       6.823  -5.051  23.740  0.00  0.00    +0.282 C 
ATOM     56  O   UNL     1       7.890  -5.285  24.678  0.00  0.00    -0.341 OA
ATOM     57  C   UNL     1       8.210  -4.127  25.477  0.00  0.00    +0.178 C 
ATOM     58  C   UNL     1       8.673  -2.983  24.557  0.00  0.00    +0.177 C 
ATOM     59  C   UNL     1       7.594  -2.695  23.502  0.00  0.00    +0.179 C 
ATOM     60  C   UNL     1       7.260  -3.975  22.728  0.00  0.00    +0.201 C 
BRANCH  60  61
ATOM     61  O   UNL     1       6.268  -3.742  21.725  0.00  0.00    -0.384 OA
ATOM     62  H   UNL     1       6.132  -2.775  21.685  0.00  0.00    +0.210 HD
ENDBRANCH  60  61
BRANCH  59  63
ATOM     63  O   UNL     1       8.035  -1.692  22.579  0.00  0.00    -0.386 OA
ATOM     64  H   UNL     1       7.298  -1.050  22.501  0.00  0.00    +0.210 HD
ENDBRANCH  59  63
BRANCH  58  65
ATOM     65  O   UNL     1       9.887  -3.329  23.865  0.00  0.00    -0.386 OA
ATOM     66  H   UNL     1      10.638  -2.938  24.355  0.00  0.00    +0.210 HD
ENDBRANCH  58  65
BRANCH  57  67
ATOM     67  C   UNL     1       9.301  -4.514  26.491  0.00  0.00    +0.190 C 
BRANCH  67  68
ATOM     68  O   UNL     1      10.248  -5.428  25.936  0.00  0.00    -0.392 OA
ATOM     69  H   UNL     1      11.106  -4.979  25.864  0.00  0.00    +0.210 HD
ENDBRANCH  67  68
ENDBRANCH  57  67
ENDBRANCH  54  55
ENDBRANCH  53  54
ENDBRANCH  43  53
ENDBRANCH  40  41
ENDBRANCH   7  40
TORSDOF 24
ENDMDL
MODEL 2
REMARK VINA RESULT:      -7.2      2.235     10.405
REMARK  Name = 
REMARK  24 active torsions:
REMARK  status: ('A' for Active; 'I' for Inactive)
REMARK    1  A    between atoms: C_3  and  O_55
REMARK    2  A    between atoms: C_4  and  O_54
REMARK    3  A    between atoms: C_6  and  C_7
REMARK    4  A    between atoms: C_8  and  O_42
REMARK    5  A    between atoms: C_12  and  O_41
REMARK    6  A    between atoms: C_14  and  O_18
REMARK    7  A    between atoms: O_18  and  C_19
REMARK    8  A    between atoms: C_20  and  O_40
REMARK    9  A    between atoms: C_21  and  O_39
REMARK   10  A    between atoms: C_22  and  O_38
REMARK   11  A    between atoms: C_23  and  C_25
REMARK   12  A    between atoms: C_25  and  O_26
REMARK   13  A    between atoms: O_26  and  C_27
REMARK   14  A    between atoms: C_28  and  O_37
REMARK   15  A    between atoms: C_29  and  O_36
REMARK   16  A    between atoms: C_30  and  O_35
REMARK   17  A    between atoms: C_31  and  C_33
REMARK   18  A    between atoms: C_33  and  O_34
REMARK   19  A    between atoms: O_42  and  C_43
REMARK   20  A    between atoms: C_44  and  O_53
REMARK   21  A    between atoms: C_45  and  O_52
REMARK   22  A    between atoms: C_46  and  O_51
REMARK   23  A    between atoms: C_47  and  C_49
REMARK   24  A    between atoms: C_49  and  O_50
REMARK                            x       y       z     vdW  Elec       q    Type
REMARK                         _______ _______ _______ _____ _____    ______ ____
ROOT
ATOM      1  C   UNL     1       6.604  -1.307  25.151  0.00  0.00    +0.181 A 
ATOM      2  O   UNL     1       7.328  -0.140  25.142  0.00  0.00    -0.451 OA
ATOM      3  C   UNL     1       8.174   0.144  24.103  0.00  0.00    +0.147 A 
ATOM      4  C   UNL     1       8.447  -0.745  23.075  0.00  0.00    +0.109 A 
ATOM      5  C   UNL     1       9.360  -0.360  22.080  0.00  0.00    +0.135 A 
ATOM      6  C   UNL     1       9.899   0.941  22.056  0.00  0.00    +0.092 A 
ATOM      7  C   UNL     1       9.536   1.867  23.038  0.00  0.00    +0.131 A 
ATOM      8  C   UNL     1       7.715  -2.027  23.093  0.00  0.00    +0.238 A 
ATOM      9  O   UNL     1       7.897  -2.863  22.212  0.00  0.00    -0.283 OA
ATOM     10  C   UNL     1       8.739   1.425  24.100  0.00  0.00    +0.093 A 
ATOM     11  C   UNL     1       6.701  -2.258  24.184  0.00  0.00    +0.214 A 
ENDROOT
BRANCH   1  13
ATOM     12  C   UNL     1       5.591  -2.336  27.234  0.00  0.00    +0.015 A 
ATOM     13  C   UNL     1       5.615  -1.335  26.259  0.00  0.00    +0.025 A 
ATOM     14  C   UNL     1       4.570  -0.396  26.277  0.00  0.00    +0.060 A 
ATOM     15  C   UNL     1       3.464  -0.612  27.088  0.00  0.00    +0.159 A 
ATOM     16  C   UNL     1       3.369  -1.751  27.876  0.00  0.00    +0.158 A 
ATOM     17  C   UNL     1       4.451  -2.598  27.996  0.00  0.00    +0.050 A 
BRANCH  16  18
ATOM     18  O   UNL     1       2.184  -2.010  28.501  0.00  0.00    -0.503 OA
ATOM     19  H   UNL     1       1.468  -1.760  27.888  0.00  0.00    +0.292 HD
ENDBRANCH  16  18
BRANCH  15  20
ATOM     20  O   UNL     1       2.435   0.283  27.059  0.00  0.00    -0.503 OA
ATOM     21  H   UNL     1       2.300   0.464  26.107  0.00  0.00    +0.292 HD
ENDBRANCH  15  20
ENDBRANCH   1  13
BRANCH   5  22
ATOM     22  O   UNL     1       9.757  -1.198  21.072  0.00  0.00    -0.506 OA
ATOM     23  H   UNL     1      10.206  -1.977  21.462  0.00  0.00    +0.292 HD
ENDBRANCH   5  22
BRANCH  11  24
ATOM     24  O   UNL     1       6.090  -3.490  24.313  0.00  0.00    -0.453 OA
BRANCH  24  25
ATOM     25  C   UNL     1       4.769  -3.736  23.790  0.00  0.00    +0.340 C 
ATOM     26  O   UNL     1       3.885  -4.300  24.790  0.00  0.00    -0.331 OA
ATOM     27  C   UNL     1       4.139  -5.654  25.252  0.00  0.00    +0.179 C 
ATOM     28  C   UNL     1       4.919  -6.612  24.322  0.00  0.00    +0.177 C 
ATOM     29  C   UNL     1       5.710  -5.927  23.199  0.00  0.00    +0.180 C 
ATOM     30  C   UNL     1       4.862  -4.763  22.653  0.00  0.00    +0.214 C 
BRANCH  30  31
ATOM     31  O   UNL     1       5.351  -4.217  21.435  0.00  0.00    -0.383 OA
ATOM     32  H   UNL     1       5.168  -4.830  20.694  0.00  0.00    +0.210 HD
ENDBRANCH  30  31
BRANCH  29  33
ATOM     33  O   UNL     1       5.999  -6.889  22.180  0.00  0.00    -0.386 OA
ATOM     34  H   UNL     1       6.444  -7.645  22.606  0.00  0.00    +0.210 HD
ENDBRANCH  29  33
BRANCH  28  35
ATOM     35  O   UNL     1       4.045  -7.597  23.739  0.00  0.00    -0.386 OA
ATOM     36  H   UNL     1       3.244  -7.139  23.412  0.00  0.00    +0.210 HD
ENDBRANCH  28  35
BRANCH  27  37
ATOM     37  C   UNL     1       2.773  -6.254  25.662  0.00  0.00    +0.190 C 
BRANCH  37  38
ATOM     38  O   UNL     1       2.965  -7.482  26.369  0.00  0.00    -0.392 OA
ATOM     39  H   UNL     1       2.108  -7.677  26.791  0.00  0.00    +0.210 HD
ENDBRANCH  37  38
ENDBRANCH  27  37
ENDBRANCH  24  25
ENDBRANCH  11  24
BRANCH   7  40
ATOM     40  O   UNL     1       9.944   3.181  22.873  0.00  0.00    -0.461 OA
BRANCH  40  41
ATOM     41  C   UNL     1      10.269   3.846  24.116  0.00  0.00    +0.339 C 
ATOM     42  O   UNL     1       9.143   4.614  24.601  0.00  0.00    -0.331 OA
ATOM     43  C   UNL     1       8.949   5.800  23.806  0.00  0.00    +0.179 C 
ATOM     44  C   UNL     1      10.068   6.748  24.219  0.00  0.00    +0.177 C 
ATOM     45  C   UNL     1      11.380   6.170  23.698  0.00  0.00    +0.180 C 
ATOM     46  C   UNL     1      11.573   4.700  24.108  0.00  0.00    +0.214 C 
BRANCH  46  47
ATOM     47  O   UNL     1      12.614   4.074  23.350  0.00  0.00    -0.383 OA
ATOM     48  H   UNL     1      13.349   3.884  23.963  0.00  0.00    +0.210 HD
ENDBRANCH  46  47
BRANCH  45  49
ATOM     49  O   UNL     1      12.466   6.946  24.234  0.00  0.00    -0.386 OA
ATOM     50  H   UNL     1      12.042   7.700  24.701  0.00  0.00    +0.210 HD
ENDBRANCH  45  49
BRANCH  44  51
ATOM     51  O   UNL     1      10.151   6.819  25.660  0.00  0.00    -0.386 OA
ATOM     52  H   UNL     1      10.585   5.994  25.966  0.00  0.00    +0.210 HD
ENDBRANCH  44  51
BRANCH  43  53
ATOM     53  C   UNL     1       7.573   6.418  24.070  0.00  0.00    +0.197 C 
BRANCH  53  54
ATOM     54  O   UNL     1       6.551   5.472  24.411  0.00  0.00    -0.346 OA
BRANCH  54  55
ATOM     55  C   UNL     1       5.503   5.263  23.454  0.00  0.00    +0.282 C 
ATOM     56  O   UNL     1       4.231   5.292  24.129  0.00  0.00    -0.341 OA
ATOM     57  C   UNL     1       4.086   4.249  25.115  0.00  0.00    +0.178 C 
ATOM     58  C   UNL     1       4.188   2.877  24.425  0.00  0.00    +0.177 C 
ATOM     59  C   UNL     1       5.512   2.780  23.653  0.00  0.00    +0.179 C 
ATOM     60  C   UNL     1       5.630   3.946  22.664  0.00  0.00    +0.201 C 
BRANCH  60  61
ATOM     61  O   UNL     1       6.846   3.881  21.915  0.00  0.00    -0.384 OA
ATOM     62  H   UNL     1       6.614   4.077  20.986  0.00  0.00    +0.210 HD
ENDBRANCH  60  61
BRANCH  59  63
ATOM     63  O   UNL     1       5.595   1.546  22.930  0.00  0.00    -0.386 OA
ATOM     64  H   UNL     1       6.002   1.762  22.066  0.00  0.00    +0.210 HD
ENDBRANCH  59  63
BRANCH  58  65
ATOM     65  O   UNL     1       3.113   2.683  23.487  0.00  0.00    -0.386 OA
ATOM     66  H   UNL     1       3.273   3.266  22.717  0.00  0.00    +0.210 HD
ENDBRANCH  58  65
BRANCH  57  67
ATOM     67  C   UNL     1       2.731   4.426  25.823  0.00  0.00    +0.190 C 
BRANCH  67  68
ATOM     68  O   UNL     1       2.152   3.174  26.192  0.00  0.00    -0.392 OA
ATOM     69  H   UNL     1       2.276   3.046  27.148  0.00  0.00    +0.210 HD
ENDBRANCH  67  68
ENDBRANCH  57  67
ENDBRANCH  54  55
ENDBRANCH  53  54
ENDBRANCH  43  53
ENDBRANCH  40  41
ENDBRANCH   7  40
TORSDOF 24
ENDMDL
MODEL 3
REMARK VINA RESULT:      -6.9      1.843      8.793
REMARK  Name = 
REMARK  24 active torsions:
REMARK  status: ('A' for Active; 'I' for Inactive)
REMARK    1  A    between atoms: C_3  and  O_55
REMARK    2  A    between atoms: C_4  and  O_54
REMARK    3  A    between atoms: C_6  and  C_7
REMARK    4  A    between atoms: C_8  and  O_42
REMARK    5  A    between atoms: C_12  and  O_41
REMARK    6  A    between atoms: C_14  and  O_18
REMARK    7  A    between atoms: O_18  and  C_19
REMARK    8  A    between atoms: C_20  and  O_40
REMARK    9  A    between atoms: C_21  and  O_39
REMARK   10  A    between atoms: C_22  and  O_38
REMARK   11  A    between atoms: C_23  and  C_25
REMARK   12  A    between atoms: C_25  and  O_26
REMARK   13  A    between atoms: O_26  and  C_27
REMARK   14  A    between atoms: C_28  and  O_37
REMARK   15  A    between atoms: C_29  and  O_36
REMARK   16  A    between atoms: C_30  and  O_35
REMARK   17  A    between atoms: C_31  and  C_33
REMARK   18  A    between atoms: C_33  and  O_34
REMARK   19  A    between atoms: O_42  and  C_43
REMARK   20  A    between atoms: C_44  and  O_53
REMARK   21  A    between atoms: C_45  and  O_52
REMARK   22  A    between atoms: C_46  and  O_51
REMARK   23  A    between atoms: C_47  and  C_49
REMARK   24  A    between atoms: C_49  and  O_50
REMARK                            x       y       z     vdW  Elec       q    Type
REMARK                         _______ _______ _______ _____ _____    ______ ____
ROOT
ATOM      1  C   UNL     1       3.439  -2.337  26.426  0.00  0.00    +0.181 A 
ATOM      2  O   UNL     1       4.011  -1.186  25.943  0.00  0.00    -0.451 OA
ATOM      3  C   UNL     1       4.626  -0.306  26.794  0.00  0.00    +0.147 A 
ATOM      4  C   UNL     1       4.614  -0.442  28.173  0.00  0.00    +0.109 A 
ATOM      5  C   UNL     1       5.246   0.541  28.950  0.00  0.00    +0.135 A 
ATOM      6  C   UNL     1       5.978   1.581  28.345  0.00  0.00    +0.092 A 
ATOM      7  C   UNL     1       6.074   1.653  26.953  0.00  0.00    +0.131 A 
ATOM      8  C   UNL     1       3.959  -1.650  28.716  0.00  0.00    +0.238 A 
ATOM      9  O   UNL     1       3.916  -1.845  29.927  0.00  0.00    -0.283 OA
ATOM     10  C   UNL     1       5.322   0.750  26.193  0.00  0.00    +0.093 A 
ATOM     11  C   UNL     1       3.400  -2.659  27.746  0.00  0.00    +0.214 A 
ENDROOT
BRANCH   1  13
ATOM     12  C   UNL     1       1.671  -3.639  25.160  0.00  0.00    +0.015 A 
ATOM     13  C   UNL     1       2.999  -3.237  25.330  0.00  0.00    +0.025 A 
ATOM     14  C   UNL     1       3.959  -3.826  24.489  0.00  0.00    +0.060 A 
ATOM     15  C   UNL     1       3.611  -4.912  23.699  0.00  0.00    +0.159 A 
ATOM     16  C   UNL     1       2.327  -5.437  23.735  0.00  0.00    +0.158 A 
ATOM     17  C   UNL     1       1.332  -4.776  24.425  0.00  0.00    +0.050 A 
BRANCH  16  18
ATOM     18  O   UNL     1       2.090  -6.617  23.092  0.00  0.00    -0.503 OA
ATOM     19  H   UNL     1       2.617  -7.305  23.539  0.00  0.00    +0.292 HD
ENDBRANCH  16  18
BRANCH  15  20
ATOM     20  O   UNL     1       4.566  -5.504  22.926  0.00  0.00    -0.503 OA
ATOM     21  H   UNL     1       4.757  -6.349  23.382  0.00  0.00    +0.292 HD
ENDBRANCH  15  20
ENDBRANCH   1  13
BRANCH   5  22
ATOM     22  O   UNL     1       5.217   0.538  30.319  0.00  0.00    -0.506 OA
ATOM     23  H   UNL     1       4.385   0.958  30.623  0.00  0.00    +0.292 HD
ENDBRANCH   5  22
BRANCH  11  24
ATOM     24  O   UNL     1       2.669  -3.735  28.210  0.00  0.00    -0.453 OA
BRANCH  24  25
ATOM     25  C   UNL     1       3.203  -4.643  29.195  0.00  0.00    +0.340 C 
ATOM     26  O   UNL     1       4.650  -4.684  29.168  0.00  0.00    -0.331 OA
ATOM     27  C   UNL     1       5.303  -5.282  28.016  0.00  0.00    +0.179 C 
ATOM     28  C   UNL     1       4.512  -6.315  27.179  0.00  0.00    +0.177 C 
ATOM     29  C   UNL     1       2.992  -6.293  27.388  0.00  0.00    +0.180 C 
ATOM     30  C   UNL     1       2.713  -6.064  28.884  0.00  0.00    +0.214 C 
BRANCH  30  31
ATOM     31  O   UNL     1       1.361  -6.293  29.260  0.00  0.00    -0.383 OA
ATOM     32  H   UNL     1       1.262  -7.197  29.623  0.00  0.00    +0.210 HD
ENDBRANCH  30  31
BRANCH  29  33
ATOM     33  O   UNL     1       2.442  -7.534  26.935  0.00  0.00    -0.386 OA
ATOM     34  H   UNL     1       2.708  -7.652  26.004  0.00  0.00    +0.210 HD
ENDBRANCH  29  33
BRANCH  28  35
ATOM     35  O   UNL     1       4.993  -7.652  27.415  0.00  0.00    -0.386 OA
ATOM     36  H   UNL     1       4.311  -8.280  27.102  0.00  0.00    +0.210 HD
ENDBRANCH  28  35
BRANCH  27  37
ATOM     37  C   UNL     1       6.646  -5.869  28.513  0.00  0.00    +0.190 C 
BRANCH  37  38
ATOM     38  O   UNL     1       6.462  -6.525  29.771  0.00  0.00    -0.392 OA
ATOM     39  H   UNL     1       6.436  -5.811  30.435  0.00  0.00    +0.210 HD
ENDBRANCH  37  38
ENDBRANCH  27  37
ENDBRANCH  24  25
ENDBRANCH  11  24
BRANCH   7  40
ATOM     40  O   UNL     1       6.949   2.578  26.409  0.00  0.00    -0.461 OA
BRANCH  40  41
ATOM     41  C   UNL     1       7.065   2.489  24.969  0.00  0.00    +0.339 C 
ATOM     42  O   UNL     1       7.795   1.301  24.582  0.00  0.00    -0.331 OA
ATOM     43  C   UNL     1       9.200   1.447  24.869  0.00  0.00    +0.179 C 
ATOM     44  C   UNL     1       9.730   2.399  23.805  0.00  0.00    +0.177 C 
ATOM     45  C   UNL     1       9.155   3.782  24.093  0.00  0.00    +0.180 C 
ATOM     46  C   UNL     1       7.625   3.755  24.254  0.00  0.00    +0.214 C 
BRANCH  46  47
ATOM     47  O   UNL     1       7.136   4.963  24.848  0.00  0.00    -0.383 OA
ATOM     48  H   UNL     1       7.509   5.018  25.748  0.00  0.00    +0.210 HD
ENDBRANCH  46  47
BRANCH  45  49
ATOM     49  O   UNL     1       9.490   4.654  22.998  0.00  0.00    -0.386 OA
ATOM     50  H   UNL     1       8.735   5.280  22.925  0.00  0.00    +0.210 HD
ENDBRANCH  45  49
BRANCH  44  51
ATOM     51  O   UNL     1       9.272   1.988  22.497  0.00  0.00    -0.386 OA
ATOM     52  H   UNL     1       8.619   1.268  22.633  0.00  0.00    +0.210 HD
ENDBRANCH  44  51
BRANCH  43  53
ATOM     53  C   UNL     1       9.915   0.094  24.807  0.00  0.00    +0.197 C 
BRANCH  53  54
ATOM     54  O   UNL     1       9.206  -0.921  24.084  0.00  0.00    -0.346 OA
BRANCH  54  55
ATOM     55  C   UNL     1       8.161  -1.616  24.779  0.00  0.00    +0.282 C 
ATOM     56  O   UNL     1       8.714  -2.775  25.430  0.00  0.00    -0.341 OA
ATOM     57  C   UNL     1       9.282  -3.729  24.508  0.00  0.00    +0.178 C 
ATOM     58  C   UNL     1       8.183  -4.237  23.558  0.00  0.00    +0.177 C 
ATOM     59  C   UNL     1       7.521  -3.048  22.845  0.00  0.00    +0.179 C 
ATOM     60  C   UNL     1       6.989  -2.047  23.877  0.00  0.00    +0.201 C 
BRANCH  60  61
ATOM     61  O   UNL     1       6.350  -0.932  23.250  0.00  0.00    -0.384 OA
ATOM     62  H   UNL     1       5.730  -0.559  23.906  0.00  0.00    +0.210 HD
ENDBRANCH  60  61
BRANCH  59  63
ATOM     63  O   UNL     1       6.436  -3.486  22.017  0.00  0.00    -0.386 OA
ATOM     64  H   UNL     1       5.627  -3.404  22.563  0.00  0.00    +0.210 HD
ENDBRANCH  59  63
BRANCH  58  65
ATOM     65  O   UNL     1       7.159  -4.949  24.276  0.00  0.00    -0.386 OA
ATOM     66  H   UNL     1       6.911  -4.416  25.059  0.00  0.00    +0.210 HD
ENDBRANCH  58  65
BRANCH  57  67
ATOM     67  C   UNL     1       9.909  -4.880  25.315  0.00  0.00    +0.190 C 
BRANCH  67  68
ATOM     68  O   UNL     1       9.115  -5.235  26.447  0.00  0.00    -0.392 OA
ATOM     69  H   UNL     1       8.370  -5.781  26.144  0.00  0.00    +0.210 HD
ENDBRANCH  67  68
ENDBRANCH  57  67
ENDBRANCH  54  55
ENDBRANCH  53  54
ENDBRANCH  43  53
ENDBRANCH  40  41
ENDBRANCH   7  40
TORSDOF 24
ENDMDL
MODEL 4
REMARK VINA RESULT:      -6.9      2.067      3.483
REMARK  Name = 
REMARK  24 active torsions:
REMARK  status: ('A' for Active; 'I' for Inactive)
REMARK    1  A    between atoms: C_3  and  O_55
REMARK    2  A    between atoms: C_4  and  O_54
REMARK    3  A    between atoms: C_6  and  C_7
REMARK    4  A    between atoms: C_8  and  O_42
REMARK    5  A    between atoms: C_12  and  O_41
REMARK    6  A    between atoms: C_14  and  O_18
REMARK    7  A    between atoms: O_18  and  C_19
REMARK    8  A    between atoms: C_20  and  O_40
REMARK    9  A    between atoms: C_21  and  O_39
REMARK   10  A    between atoms: C_22  and  O_38
REMARK   11  A    between atoms: C_23  and  C_25
REMARK   12  A    between atoms: C_25  and  O_26
REMARK   13  A    between atoms: O_26  and  C_27
REMARK   14  A    between atoms: C_28  and  O_37
REMARK   15  A    between atoms: C_29  and  O_36
REMARK   16  A    between atoms: C_30  and  O_35
REMARK   17  A    between atoms: C_31  and  C_33
REMARK   18  A    between atoms: C_33  and  O_34
REMARK   19  A    between atoms: O_42  and  C_43
REMARK   20  A    between atoms: C_44  and  O_53
REMARK   21  A    between atoms: C_45  and  O_52
REMARK   22  A    between atoms: C_46  and  O_51
REMARK   23  A    between atoms: C_47  and  C_49
REMARK   24  A    between atoms: C_49  and  O_50
REMARK                            x       y       z     vdW  Elec       q    Type
REMARK                         _______ _______ _______ _____ _____    ______ ____
ROOT
ATOM      1  C   UNL     1       5.090   2.250  24.803  0.00  0.00    +0.181 A 
ATOM      2  O   UNL     1       4.448   1.077  25.112  0.00  0.00    -0.451 OA
ATOM      3  C   UNL     1       5.090   0.102  25.830  0.00  0.00    +0.147 A 
ATOM      4  C   UNL     1       6.427   0.171  26.185  0.00  0.00    +0.109 A 
ATOM      5  C   UNL     1       6.991  -0.904  26.892  0.00  0.00    +0.135 A 
ATOM      6  C   UNL     1       6.192  -1.976  27.335  0.00  0.00    +0.092 A 
ATOM      7  C   UNL     1       4.821  -1.987  27.063  0.00  0.00    +0.131 A 
ATOM      8  C   UNL     1       7.150   1.406  25.818  0.00  0.00    +0.238 A 
ATOM      9  O   UNL     1       8.336   1.544  26.106  0.00  0.00    -0.283 OA
ATOM     10  C   UNL     1       4.304  -0.982  26.239  0.00  0.00    +0.093 A 
ATOM     11  C   UNL     1       6.383   2.509  25.136  0.00  0.00    +0.214 A 
ENDROOT
BRANCH   1  13
ATOM     12  C   UNL     1       3.300   4.039  24.942  0.00  0.00    +0.015 A 
ATOM     13  C   UNL     1       4.168   3.240  24.191  0.00  0.00    +0.025 A 
ATOM     14  C   UNL     1       4.052   3.306  22.793  0.00  0.00    +0.060 A 
ATOM     15  C   UNL     1       2.972   3.964  22.221  0.00  0.00    +0.159 A 
ATOM     16  C   UNL     1       1.993   4.550  23.012  0.00  0.00    +0.158 A 
ATOM     17  C   UNL     1       2.173   4.637  24.377  0.00  0.00    +0.050 A 
BRANCH  16  18
ATOM     18  O   UNL     1       0.859   5.010  22.408  0.00  0.00    -0.503 OA
ATOM     19  H   UNL     1       0.179   4.317  22.496  0.00  0.00    +0.292 HD
ENDBRANCH  16  18
BRANCH  15  20
ATOM     20  O   UNL     1       2.846   3.977  20.863  0.00  0.00    -0.503 OA
ATOM     21  H   UNL     1       1.939   3.648  20.701  0.00  0.00    +0.292 HD
ENDBRANCH  15  20
ENDBRANCH   1  13
BRANCH   5  22
ATOM     22  O   UNL     1       8.320  -0.966  27.214  0.00  0.00    -0.506 OA
ATOM     23  H   UNL     1       8.431  -1.530  28.008  0.00  0.00    +0.292 HD
ENDBRANCH   5  22
BRANCH  11  24
ATOM     24  O   UNL     1       7.047   3.623  24.661  0.00  0.00    -0.453 OA
BRANCH  24  25
ATOM     25  C   UNL     1       7.330   3.794  23.258  0.00  0.00    +0.340 C 
ATOM     26  O   UNL     1       7.968   2.626  22.687  0.00  0.00    -0.331 OA
ATOM     27  C   UNL     1       9.327   2.312  23.095  0.00  0.00    +0.179 C 
ATOM     28  C   UNL     1      10.214   3.459  23.633  0.00  0.00    +0.177 C 
ATOM     29  C   UNL     1       9.453   4.715  24.079  0.00  0.00    +0.180 C 
ATOM     30  C   UNL     1       8.307   4.964  23.081  0.00  0.00    +0.214 C 
BRANCH  30  31
ATOM     31  O   UNL     1       7.694   6.239  23.215  0.00  0.00    -0.383 OA
ATOM     32  H   UNL     1       7.991   6.832  22.494  0.00  0.00    +0.210 HD
ENDBRANCH  30  31
BRANCH  29  33
ATOM     33  O   UNL     1      10.362   5.820  24.120  0.00  0.00    -0.386 OA
ATOM     34  H   UNL     1      10.405   6.200  23.223  0.00  0.00    +0.210 HD
ENDBRANCH  29  33
BRANCH  28  35
ATOM     35  O   UNL     1      11.213   3.840  22.668  0.00  0.00    -0.386 OA
ATOM     36  H   UNL     1      11.310   3.109  22.025  0.00  0.00    +0.210 HD
ENDBRANCH  28  35
BRANCH  27  37
ATOM     37  C   UNL     1      10.000   1.589  21.905  0.00  0.00    +0.190 C 
BRANCH  37  38
ATOM     38  O   UNL     1       9.007   1.030  21.041  0.00  0.00    -0.392 OA
ATOM     39  H   UNL     1       8.198   0.963  21.583  0.00  0.00    +0.210 HD
ENDBRANCH  37  38
ENDBRANCH  27  37
ENDBRANCH  24  25
ENDBRANCH  11  24
BRANCH   7  40
ATOM     40  O   UNL     1       4.047  -2.962  27.671  0.00  0.00    -0.461 OA
BRANCH  40  41
ATOM     41  C   UNL     1       4.807  -4.112  28.111  0.00  0.00    +0.339 C 
ATOM     42  O   UNL     1       5.500  -4.729  27.001  0.00  0.00    -0.331 OA
ATOM     43  C   UNL     1       4.577  -5.436  26.150  0.00  0.00    +0.179 C 
ATOM     44  C   UNL     1       4.207  -6.698  26.918  0.00  0.00    +0.177 C 
ATOM     45  C   UNL     1       3.354  -6.279  28.111  0.00  0.00    +0.180 C 
ATOM     46  C   UNL     1       4.020  -5.169  28.943  0.00  0.00    +0.214 C 
BRANCH  46  47
ATOM     47  O   UNL     1       3.089  -4.554  29.841  0.00  0.00    -0.383 OA
ATOM     48  H   UNL     1       2.223  -4.529  29.393  0.00  0.00    +0.210 HD
ENDBRANCH  46  47
BRANCH  45  49
ATOM     49  O   UNL     1       3.150  -7.428  28.953  0.00  0.00    -0.386 OA
ATOM     50  H   UNL     1       2.177  -7.493  29.073  0.00  0.00    +0.210 HD
ENDBRANCH  45  49
BRANCH  44  51
ATOM     51  O   UNL     1       5.400  -7.340  27.424  0.00  0.00    -0.386 OA
ATOM     52  H   UNL     1       6.151  -7.022  26.880  0.00  0.00    +0.210 HD
ENDBRANCH  44  51
BRANCH  43  53
ATOM     53  C   UNL     1       5.224  -5.777  24.803  0.00  0.00    +0.197 C 
BRANCH  53  54
ATOM     54  O   UNL     1       5.768  -4.650  24.102  0.00  0.00    -0.346 OA
BRANCH  54  55
ATOM     55  C   UNL     1       6.961  -4.866  23.336  0.00  0.00    +0.282 C 
ATOM     56  O   UNL     1       8.037  -5.221  24.224  0.00  0.00    -0.341 OA
ATOM     57  C   UNL     1       8.356  -4.184  25.175  0.00  0.00    +0.178 C 
ATOM     58  C   UNL     1       8.804  -2.919  24.420  0.00  0.00    +0.177 C 
ATOM     59  C   UNL     1       7.714  -2.494  23.424  0.00  0.00    +0.179 C 
ATOM     60  C   UNL     1       7.383  -3.656  22.481  0.00  0.00    +0.201 C 
BRANCH  60  61
ATOM     61  O   UNL     1       6.381  -3.292  21.528  0.00  0.00    -0.384 OA
ATOM     62  H   UNL     1       6.716  -3.563  20.651  0.00  0.00    +0.210 HD
ENDBRANCH  60  61
BRANCH  59  63
ATOM     63  O   UNL     1       8.141  -1.369  22.647  0.00  0.00    -0.386 OA
ATOM     64  H   UNL     1       9.098  -1.261  22.826  0.00  0.00    +0.210 HD
ENDBRANCH  59  63
BRANCH  58  65
ATOM     65  O   UNL     1      10.014  -3.155  23.678  0.00  0.00    -0.386 OA
ATOM     66  H   UNL     1      10.741  -3.297  24.318  0.00  0.00    +0.210 HD
ENDBRANCH  58  65
BRANCH  57  67
ATOM     67  C   UNL     1       9.458  -4.700  26.117  0.00  0.00    +0.190 C 
BRANCH  67  68
ATOM     68  O   UNL     1      10.350  -5.598  25.455  0.00  0.00    -0.392 OA
ATOM     69  H   UNL     1      10.933  -5.082  24.873  0.00  0.00    +0.210 HD
ENDBRANCH  67  68
ENDBRANCH  57  67
ENDBRANCH  54  55
ENDBRANCH  53  54
ENDBRANCH  43  53
ENDBRANCH  40  41
ENDBRANCH   7  40
TORSDOF 24
ENDMDL
MODEL 5
REMARK VINA RESULT:      -6.8      1.720      9.056
REMARK  Name = 
REMARK  24 active torsions:
REMARK  status: ('A' for Active; 'I' for Inactive)
REMARK    1  A    between atoms: C_3  and  O_55
REMARK    2  A    between atoms: C_4  and  O_54
REMARK    3  A    between atoms: C_6  and  C_7
REMARK    4  A    between atoms: C_8  and  O_42
REMARK    5  A    between atoms: C_12  and  O_41
REMARK    6  A    between atoms: C_14  and  O_18
REMARK    7  A    between atoms: O_18  and  C_19
REMARK    8  A    between atoms: C_20  and  O_40
REMARK    9  A    between atoms: C_21  and  O_39
REMARK   10  A    between atoms: C_22  and  O_38
REMARK   11  A    between atoms: C_23  and  C_25
REMARK   12  A    between atoms: C_25  and  O_26
REMARK   13  A    between atoms: O_26  and  C_27
REMARK   14  A    between atoms: C_28  and  O_37
REMARK   15  A    between atoms: C_29  and  O_36
REMARK   16  A    between atoms: C_30  and  O_35
REMARK   17  A    between atoms: C_31  and  C_33
REMARK   18  A    between atoms: C_33  and  O_34
REMARK   19  A    between atoms: O_42  and  C_43
REMARK   20  A    between atoms: C_44  and  O_53
REMARK   21  A    between atoms: C_45  and  O_52
REMARK   22  A    between atoms: C_46  and  O_51
REMARK   23  A    between atoms: C_47  and  C_49
REMARK   24  A    between atoms: C_49  and  O_50
REMARK                            x       y       z     vdW  Elec       q    Type
REMARK                         _______ _______ _______ _____ _____    ______ ____
ROOT
ATOM      1  C   UNL     1       4.314  -2.601  26.741  0.00  0.00    +0.181 A 
ATOM      2  O   UNL     1       5.037  -1.612  26.120  0.00  0.00    -0.451 OA
ATOM      3  C   UNL     1       5.278  -0.424  26.756  0.00  0.00    +0.147 A 
ATOM      4  C   UNL     1       4.730  -0.090  27.984  0.00  0.00    +0.109 A 
ATOM      5  C   UNL     1       5.017   1.173  28.527  0.00  0.00    +0.135 A 
ATOM      6  C   UNL     1       5.934   2.038  27.899  0.00  0.00    +0.092 A 
ATOM      7  C   UNL     1       6.564   1.651  26.714  0.00  0.00    +0.131 A 
ATOM      8  C   UNL     1       3.907  -1.122  28.648  0.00  0.00    +0.238 A 
ATOM      9  O   UNL     1       3.395  -0.903  29.742  0.00  0.00    -0.283 OA
ATOM     10  C   UNL     1       6.161   0.453  26.114  0.00  0.00    +0.093 A 
ATOM     11  C   UNL     1       3.762  -2.463  27.976  0.00  0.00    +0.214 A 
ENDROOT
BRANCH   1  13
ATOM     12  C   UNL     1       5.300  -4.857  26.140  0.00  0.00    +0.015 A 
ATOM     13  C   UNL     1       4.329  -3.867  25.966  0.00  0.00    +0.025 A 
ATOM     14  C   UNL     1       3.411  -4.046  24.916  0.00  0.00    +0.060 A 
ATOM     15  C   UNL     1       3.624  -5.046  23.978  0.00  0.00    +0.159 A 
ATOM     16  C   UNL     1       4.741  -5.868  24.052  0.00  0.00    +0.158 A 
ATOM     17  C   UNL     1       5.562  -5.815  25.159  0.00  0.00    +0.050 A 
BRANCH  16  18
ATOM     18  O   UNL     1       5.005  -6.700  23.003  0.00  0.00    -0.503 OA
ATOM     19  H   UNL     1       5.911  -7.041  23.121  0.00  0.00    +0.292 HD
ENDBRANCH  16  18
BRANCH  15  20
ATOM     20  O   UNL     1       2.752  -5.176  22.937  0.00  0.00    -0.503 OA
ATOM     21  H   UNL     1       2.971  -6.046  22.546  0.00  0.00    +0.292 HD
ENDBRANCH  15  20
ENDBRANCH   1  13
BRANCH   5  22
ATOM     22  O   UNL     1       4.458   1.625  29.692  0.00  0.00    -0.506 OA
ATOM     23  H   UNL     1       3.487   1.697  29.575  0.00  0.00    +0.292 HD
ENDBRANCH   5  22
BRANCH  11  24
ATOM     24  O   UNL     1       2.900  -3.409  28.496  0.00  0.00    -0.453 OA
BRANCH  24  25
ATOM     25  C   UNL     1       3.084  -3.953  29.819  0.00  0.00    +0.340 C 
ATOM     26  O   UNL     1       4.426  -4.461  30.016  0.00  0.00    -0.331 OA
ATOM     27  C   UNL     1       4.828  -5.651  29.287  0.00  0.00    +0.179 C 
ATOM     28  C   UNL     1       3.727  -6.625  28.807  0.00  0.00    +0.177 C 
ATOM     29  C   UNL     1       2.309  -6.035  28.772  0.00  0.00    +0.180 C 
ATOM     30  C   UNL     1       2.129  -5.139  30.011  0.00  0.00    +0.214 C 
BRANCH  30  31
ATOM     31  O   UNL     1       0.783  -4.750  30.249  0.00  0.00    -0.383 OA
ATOM     32  H   UNL     1       0.660  -3.807  30.016  0.00  0.00    +0.210 HD
ENDBRANCH  30  31
BRANCH  29  33
ATOM     33  O   UNL     1       1.361  -7.106  28.757  0.00  0.00    -0.386 OA
ATOM     34  H   UNL     1       1.549  -7.678  29.524  0.00  0.00    +0.210 HD
ENDBRANCH  29  33
BRANCH  28  35
ATOM     35  O   UNL     1       3.710  -7.825  29.602  0.00  0.00    -0.386 OA
ATOM     36  H   UNL     1       2.804  -7.947  29.951  0.00  0.00    +0.210 HD
ENDBRANCH  28  35
BRANCH  27  37
ATOM     37  C   UNL     1       5.882  -6.378  30.156  0.00  0.00    +0.190 C 
BRANCH  37  38
ATOM     38  O   UNL     1       6.578  -7.353  29.375  0.00  0.00    -0.392 OA
ATOM     39  H   UNL     1       6.213  -8.215  29.650  0.00  0.00    +0.210 HD
ENDBRANCH  37  38
ENDBRANCH  27  37
ENDBRANCH  24  25
ENDBRANCH  11  24
BRANCH   7  40
ATOM     40  O   UNL     1       7.588   2.449  26.232  0.00  0.00    -0.461 OA
BRANCH  40  41
ATOM     41  C   UNL     1       7.178   3.337  25.165  0.00  0.00    +0.339 C 
ATOM     42  O   UNL     1       6.943   2.599  23.942  0.00  0.00    -0.331 OA
ATOM     43  C   UNL     1       8.188   2.173  23.354  0.00  0.00    +0.179 C 
ATOM     44  C   UNL     1       8.799   3.430  22.751  0.00  0.00    +0.177 C 
ATOM     45  C   UNL     1       9.232   4.332  23.901  0.00  0.00    +0.180 C 
ATOM     46  C   UNL     1       8.098   4.569  24.915  0.00  0.00    +0.214 C 
BRANCH  46  47
ATOM     47  O   UNL     1       8.593   5.121  26.139  0.00  0.00    -0.383 OA
ATOM     48  H   UNL     1       9.508   5.419  25.977  0.00  0.00    +0.210 HD
ENDBRANCH  46  47
BRANCH  45  49
ATOM     49  O   UNL     1       9.639   5.602  23.359  0.00  0.00    -0.386 OA
ATOM     50  H   UNL     1       9.628   6.224  24.119  0.00  0.00    +0.210 HD
ENDBRANCH  45  49
BRANCH  44  51
ATOM     51  O   UNL     1       7.809   4.140  21.973  0.00  0.00    -0.386 OA
ATOM     52  H   UNL     1       7.135   3.483  21.695  0.00  0.00    +0.210 HD
ENDBRANCH  44  51
BRANCH  43  53
ATOM     53  C   UNL     1       7.949   1.103  22.284  0.00  0.00    +0.197 C 
BRANCH  53  54
ATOM     54  O   UNL     1       7.742  -0.219  22.799  0.00  0.00    -0.346 OA
BRANCH  54  55
ATOM     55  C   UNL     1       8.866  -1.110  22.795  0.00  0.00    +0.282 C 
ATOM     56  O   UNL     1       8.520  -2.305  22.070  0.00  0.00    -0.341 OA
ATOM     57  C   UNL     1       7.431  -3.039  22.667  0.00  0.00    +0.178 C 
ATOM     58  C   UNL     1       7.833  -3.483  24.085  0.00  0.00    +0.177 C 
ATOM     59  C   UNL     1       8.248  -2.259  24.916  0.00  0.00    +0.179 C 
ATOM     60  C   UNL     1       9.367  -1.493  24.201  0.00  0.00    +0.201 C 
BRANCH  60  61
ATOM     61  O   UNL     1       9.790  -0.354  24.952  0.00  0.00    -0.384 OA
ATOM     62  H   UNL     1       9.266  -0.351  25.777  0.00  0.00    +0.210 HD
ENDBRANCH  60  61
BRANCH  59  63
ATOM     63  O   UNL     1       8.708  -2.653  26.215  0.00  0.00    -0.386 OA
ATOM     64  H   UNL     1       9.570  -2.206  26.345  0.00  0.00    +0.210 HD
ENDBRANCH  59  63
BRANCH  58  65
ATOM     65  O   UNL     1       8.948  -4.394  24.052  0.00  0.00    -0.386 OA
ATOM     66  H   UNL     1       9.399  -4.289  23.190  0.00  0.00    +0.210 HD
ENDBRANCH  58  65
BRANCH  57  67
ATOM     67  C   UNL     1       7.099  -4.245  21.771  0.00  0.00    +0.190 C 
BRANCH  67  68
ATOM     68  O   UNL     1       5.771  -4.176  21.251  0.00  0.00    -0.392 OA
ATOM     69  H   UNL     1       5.369  -3.340  21.540  0.00  0.00    +0.210 HD
ENDBRANCH  67  68
ENDBRANCH  57  67
ENDBRANCH  54  55
ENDBRANCH  53  54
ENDBRANCH  43  53
ENDBRANCH  40  41
ENDBRANCH   7  40
TORSDOF 24
ENDMDL
MODEL 6
REMARK VINA RESULT:      -6.7      1.812      8.898
REMARK  Name = 
REMARK  24 active torsions:
REMARK  status: ('A' for Active; 'I' for Inactive)
REMARK    1  A    between atoms: C_3  and  O_55
REMARK    2  A    between atoms: C_4  and  O_54
REMARK    3  A    between atoms: C_6  and  C_7
REMARK    4  A    between atoms: C_8  and  O_42
REMARK    5  A    between atoms: C_12  and  O_41
REMARK    6  A    between atoms: C_14  and  O_18
REMARK    7  A    between atoms: O_18  and  C_19
REMARK    8  A    between atoms: C_20  and  O_40
REMARK    9  A    between atoms: C_21  and  O_39
REMARK   10  A    between atoms: C_22  and  O_38
REMARK   11  A    between atoms: C_23  and  C_25
REMARK   12  A    between atoms: C_25  and  O_26
REMARK   13  A    between atoms: O_26  and  C_27
REMARK   14  A    between atoms: C_28  and  O_37
REMARK   15  A    between atoms: C_29  and  O_36
REMARK   16  A    between atoms: C_30  and  O_35
REMARK   17  A    between atoms: C_31  and  C_33
REMARK   18  A    between atoms: C_33  and  O_34
REMARK   19  A    between atoms: O_42  and  C_43
REMARK   20  A    between atoms: C_44  and  O_53
REMARK   21  A    between atoms: C_45  and  O_52
REMARK   22  A    between atoms: C_46  and  O_51
REMARK   23  A    between atoms: C_47  and  C_49
REMARK   24  A    between atoms: C_49  and  O_50
REMARK                            x       y       z     vdW  Elec       q    Type
REMARK                         _______ _______ _______ _____ _____    ______ ____
ROOT
ATOM      1  C   UNL     1       4.212  -2.011  26.004  0.00  0.00    +0.181 A 
ATOM      2  O   UNL     1       4.682  -0.812  25.527  0.00  0.00    -0.451 OA
ATOM      3  C   UNL     1       4.740   0.286  26.345  0.00  0.00    +0.147 A 
ATOM      4  C   UNL     1       4.236   0.304  27.635  0.00  0.00    +0.109 A 
ATOM      5  C   UNL     1       4.318   1.497  28.371  0.00  0.00    +0.135 A 
ATOM      6  C   UNL     1       5.000   2.617  27.859  0.00  0.00    +0.092 A 
ATOM      7  C   UNL     1       5.598   2.557  26.597  0.00  0.00    +0.131 A 
ATOM      8  C   UNL     1       3.681  -0.964  28.150  0.00  0.00    +0.238 A 
ATOM      9  O   UNL     1       3.223  -1.029  29.288  0.00  0.00    -0.283 OA
ATOM     10  C   UNL     1       5.386   1.412  25.821  0.00  0.00    +0.093 A 
ATOM     11  C   UNL     1       3.743  -2.184  27.267  0.00  0.00    +0.214 A 
ENDROOT
BRANCH   1  13
ATOM     12  C   UNL     1       3.348  -3.832  24.466  0.00  0.00    +0.015 A 
ATOM     13  C   UNL     1       4.408  -3.109  25.024  0.00  0.00    +0.025 A 
ATOM     14  C   UNL     1       5.709  -3.545  24.723  0.00  0.00    +0.060 A 
ATOM     15  C   UNL     1       5.899  -4.766  24.092  0.00  0.00    +0.159 A 
ATOM     16  C   UNL     1       4.819  -5.574  23.762  0.00  0.00    +0.158 A 
ATOM     17  C   UNL     1       3.533  -5.093  23.899  0.00  0.00    +0.050 A 
BRANCH  16  18
ATOM     18  O   UNL     1       5.067  -6.842  23.324  0.00  0.00    -0.503 OA
ATOM     19  H   UNL     1       4.402  -7.428  23.732  0.00  0.00    +0.292 HD
ENDBRANCH  16  18
BRANCH  15  20
ATOM     20  O   UNL     1       7.170  -5.199  23.851  0.00  0.00    -0.503 OA
ATOM     21  H   UNL     1       7.614  -4.427  23.445  0.00  0.00    +0.292 HD
ENDBRANCH  15  20
ENDBRANCH   1  13
BRANCH   5  22
ATOM     22  O   UNL     1       3.775   1.638  29.621  0.00  0.00    -0.506 OA
ATOM     23  H   UNL     1       4.256   2.344  30.101  0.00  0.00    +0.292 HD
ENDBRANCH   5  22
BRANCH  11  24
ATOM     24  O   UNL     1       3.121  -3.354  27.658  0.00  0.00    -0.453 OA
BRANCH  24  25
ATOM     25  C   UNL     1       3.545  -4.081  28.828  0.00  0.00    +0.340 C 
ATOM     26  O   UNL     1       4.979  -4.282  28.853  0.00  0.00    -0.331 OA
ATOM     27  C   UNL     1       5.568  -5.179  27.875  0.00  0.00    +0.179 C 
ATOM     28  C   UNL     1       4.674  -6.277  27.254  0.00  0.00    +0.177 C 
ATOM     29  C   UNL     1       3.163  -6.048  27.408  0.00  0.00    +0.180 C 
ATOM     30  C   UNL     1       2.903  -5.475  28.813  0.00  0.00    +0.214 C 
BRANCH  30  31
ATOM     31  O   UNL     1       1.532  -5.472  29.189  0.00  0.00    -0.383 OA
ATOM     32  H   UNL     1       0.977  -5.191  28.432  0.00  0.00    +0.210 HD
ENDBRANCH  30  31
BRANCH  29  33
ATOM     33  O   UNL     1       2.482  -7.292  27.214  0.00  0.00    -0.386 OA
ATOM     34  H   UNL     1       3.078  -7.879  26.713  0.00  0.00    +0.210 HD
ENDBRANCH  29  33
BRANCH  28  35
ATOM     35  O   UNL     1       5.002  -7.576  27.783  0.00  0.00    -0.386 OA
ATOM     36  H   UNL     1       5.894  -7.527  28.180  0.00  0.00    +0.210 HD
ENDBRANCH  28  35
BRANCH  27  37
ATOM     37  C   UNL     1       6.835  -5.786  28.525  0.00  0.00    +0.190 C 
BRANCH  37  38
ATOM     38  O   UNL     1       7.818  -6.064  27.524  0.00  0.00    -0.392 OA
ATOM     39  H   UNL     1       7.702  -7.006  27.300  0.00  0.00    +0.210 HD
ENDBRANCH  37  38
ENDBRANCH  27  37
ENDBRANCH  24  25
ENDBRANCH  11  24
BRANCH   7  40
ATOM     40  O   UNL     1       6.410   3.612  26.213  0.00  0.00    -0.461 OA
BRANCH  40  41
ATOM     41  C   UNL     1       5.929   4.315  25.043  0.00  0.00    +0.339 C 
ATOM     42  O   UNL     1       6.072   3.501  23.855  0.00  0.00    -0.331 OA
ATOM     43  C   UNL     1       7.454   3.412  23.458  0.00  0.00    +0.179 C 
ATOM     44  C   UNL     1       7.786   4.768  22.848  0.00  0.00    +0.177 C 
ATOM     45  C   UNL     1       7.797   5.793  23.977  0.00  0.00    +0.180 C 
ATOM     46  C   UNL     1       6.512   5.743  24.823  0.00  0.00    +0.214 C 
BRANCH  46  47
ATOM     47  O   UNL     1       6.666   6.452  26.057  0.00  0.00    -0.383 OA
ATOM     48  H   UNL     1       7.579   6.795  26.086  0.00  0.00    +0.210 HD
ENDBRANCH  46  47
BRANCH  45  49
ATOM     49  O   UNL     1       7.921   7.106  23.402  0.00  0.00    -0.386 OA
ATOM     50  H   UNL     1       8.388   6.972  22.548  0.00  0.00    +0.210 HD
ENDBRANCH  45  49
BRANCH  44  51
ATOM     51  O   UNL     1       6.759   5.152  21.905  0.00  0.00    -0.386 OA
ATOM     52  H   UNL     1       7.137   5.859  21.339  0.00  0.00    +0.210 HD
ENDBRANCH  44  51
BRANCH  43  53
ATOM     53  C   UNL     1       7.662   2.283  22.444  0.00  0.00    +0.197 C 
BRANCH  53  54
ATOM     54  O   UNL     1       8.486   1.206  22.913  0.00  0.00    -0.346 OA
BRANCH  54  55
ATOM     55  C   UNL     1       7.956  -0.122  22.805  0.00  0.00    +0.282 C 
ATOM     56  O   UNL     1       7.577  -0.590  24.113  0.00  0.00    -0.341 OA
ATOM     57  C   UNL     1       8.687  -0.677  25.030  0.00  0.00    +0.178 C 
ATOM     58  C   UNL     1       9.722  -1.678  24.485  0.00  0.00    +0.177 C 
ATOM     59  C   UNL     1      10.155  -1.261  23.071  0.00  0.00    +0.179 C 
ATOM     60  C   UNL     1       8.926  -1.133  22.163  0.00  0.00    +0.201 C 
BRANCH  60  61
ATOM     61  O   UNL     1       9.291  -0.760  20.832  0.00  0.00    -0.384 OA
ATOM     62  H   UNL     1       9.003  -1.489  20.248  0.00  0.00    +0.210 HD
ENDBRANCH  60  61
BRANCH  59  63
ATOM     63  O   UNL     1      11.054  -2.223  22.506  0.00  0.00    -0.386 OA
ATOM     64  H   UNL     1      11.622  -2.530  23.242  0.00  0.00    +0.210 HD
ENDBRANCH  59  63
BRANCH  58  65
ATOM     65  O   UNL     1       9.174  -3.006  24.407  0.00  0.00    -0.386 OA
ATOM     66  H   UNL     1       8.548  -3.032  23.655  0.00  0.00    +0.210 HD
ENDBRANCH  58  65
BRANCH  57  67
ATOM     67  C   UNL     1       8.155  -1.108  26.408  0.00  0.00    +0.190 C 
BRANCH  67  68
ATOM     68  O   UNL     1       8.734  -0.346  27.468  0.00  0.00    -0.392 OA
ATOM     69  H   UNL     1       8.337   0.541  27.463  0.00  0.00    +0.210 HD
ENDBRANCH  67  68
ENDBRANCH  57  67
ENDBRANCH  54  55
ENDBRANCH  53  54
ENDBRANCH  43  53
ENDBRANCH  40  41
ENDBRANCH   7  40
TORSDOF 24
ENDMDL
MODEL 7
REMARK VINA RESULT:      -6.6      1.755      2.109
REMARK  Name = 
REMARK  24 active torsions:
REMARK  status: ('A' for Active; 'I' for Inactive)
REMARK    1  A    between atoms: C_3  and  O_55
REMARK    2  A    between atoms: C_4  and  O_54
REMARK    3  A    between atoms: C_6  and  C_7
REMARK    4  A    between atoms: C_8  and  O_42
REMARK    5  A    between atoms: C_12  and  O_41
REMARK    6  A    between atoms: C_14  and  O_18
REMARK    7  A    between atoms: O_18  and  C_19
REMARK    8  A    between atoms: C_20  and  O_40
REMARK    9  A    between atoms: C_21  and  O_39
REMARK   10  A    between atoms: C_22  and  O_38
REMARK   11  A    between atoms: C_23  and  C_25
REMARK   12  A    between atoms: C_25  and  O_26
REMARK   13  A    between atoms: O_26  and  C_27
REMARK   14  A    between atoms: C_28  and  O_37
REMARK   15  A    between atoms: C_29  and  O_36
REMARK   16  A    between atoms: C_30  and  O_35
REMARK   17  A    between atoms: C_31  and  C_33
REMARK   18  A    between atoms: C_33  and  O_34
REMARK   19  A    between atoms: O_42  and  C_43
REMARK   20  A    between atoms: C_44  and  O_53
REMARK   21  A    between atoms: C_45  and  O_52
REMARK   22  A    between atoms: C_46  and  O_51
REMARK   23  A    between atoms: C_47  and  C_49
REMARK   24  A    between atoms: C_49  and  O_50
REMARK                            x       y       z     vdW  Elec       q    Type
REMARK                         _______ _______ _______ _____ _____    ______ ____
ROOT
ATOM      1  C   UNL     1       6.388   1.067  25.615  0.00  0.00    +0.181 A 
ATOM      2  O   UNL     1       5.887  -0.174  25.307  0.00  0.00    -0.451 OA
ATOM      3  C   UNL     1       4.931  -0.753  26.099  0.00  0.00    +0.147 A 
ATOM      4  C   UNL     1       4.497  -0.206  27.296  0.00  0.00    +0.109 A 
ATOM      5  C   UNL     1       3.538  -0.906  28.045  0.00  0.00    +0.135 A 
ATOM      6  C   UNL     1       2.940  -2.077  27.541  0.00  0.00    +0.092 A 
ATOM      7  C   UNL     1       3.307  -2.566  26.284  0.00  0.00    +0.131 A 
ATOM      8  C   UNL     1       5.061   1.106  27.671  0.00  0.00    +0.238 A 
ATOM      9  O   UNL     1       4.720   1.658  28.713  0.00  0.00    -0.283 OA
ATOM     10  C   UNL     1       4.363  -1.938  25.615  0.00  0.00    +0.093 A 
ATOM     11  C   UNL     1       6.019   1.773  26.717  0.00  0.00    +0.214 A 
ENDROOT
BRANCH   1  13
ATOM     12  C   UNL     1       6.810   1.842  23.239  0.00  0.00    +0.015 A 
ATOM     13  C   UNL     1       7.264   1.592  24.538  0.00  0.00    +0.025 A 
ATOM     14  C   UNL     1       8.642   1.733  24.773  0.00  0.00    +0.060 A 
ATOM     15  C   UNL     1       9.513   1.888  23.703  0.00  0.00    +0.159 A 
ATOM     16  C   UNL     1       9.043   1.895  22.397  0.00  0.00    +0.158 A 
ATOM     17  C   UNL     1       7.685   1.922  22.154  0.00  0.00    +0.050 A 
BRANCH  16  18
ATOM     18  O   UNL     1       9.952   1.853  21.380  0.00  0.00    -0.503 OA
ATOM     19  H   UNL     1       9.806   2.642  20.825  0.00  0.00    +0.292 HD
ENDBRANCH  16  18
BRANCH  15  20
ATOM     20  O   UNL     1      10.852   1.974  23.945  0.00  0.00    -0.503 OA
ATOM     21  H   UNL     1      11.025   1.268  24.599  0.00  0.00    +0.292 HD
ENDBRANCH  15  20
ENDBRANCH   1  13
BRANCH   5  22
ATOM     22  O   UNL     1       3.109  -0.490  29.277  0.00  0.00    -0.506 OA
ATOM     23  H   UNL     1       3.837  -0.010  29.725  0.00  0.00    +0.292 HD
ENDBRANCH   5  22
BRANCH  11  24
ATOM     24  O   UNL     1       6.667   2.935  27.086  0.00  0.00    -0.453 OA
BRANCH  24  25
ATOM     25  C   UNL     1       5.968   4.192  27.184  0.00  0.00    +0.340 C 
ATOM     26  O   UNL     1       5.188   4.474  25.996  0.00  0.00    -0.331 OA
ATOM     27  C   UNL     1       5.894   4.770  24.761  0.00  0.00    +0.179 C 
ATOM     28  C   UNL     1       7.336   5.321  24.854  0.00  0.00    +0.177 C 
ATOM     29  C   UNL     1       8.029   5.102  26.206  0.00  0.00    +0.180 C 
ATOM     30  C   UNL     1       6.992   5.328  27.322  0.00  0.00    +0.214 C 
BRANCH  30  31
ATOM     31  O   UNL     1       7.557   5.426  28.622  0.00  0.00    -0.383 OA
ATOM     32  H   UNL     1       8.511   5.636  28.558  0.00  0.00    +0.210 HD
ENDBRANCH  30  31
BRANCH  29  33
ATOM     33  O   UNL     1       9.127   6.013  26.318  0.00  0.00    -0.386 OA
ATOM     34  H   UNL     1       8.764   6.918  26.288  0.00  0.00    +0.210 HD
ENDBRANCH  29  33
BRANCH  28  35
ATOM     35  O   UNL     1       7.378   6.724  24.532  0.00  0.00    -0.386 OA
ATOM     36  H   UNL     1       7.891   6.831  23.706  0.00  0.00    +0.210 HD
ENDBRANCH  28  35
BRANCH  27  37
ATOM     37  C   UNL     1       4.983   5.710  23.936  0.00  0.00    +0.190 C 
BRANCH  37  38
ATOM     38  O   UNL     1       5.321   5.633  22.549  0.00  0.00    -0.392 OA
ATOM     39  H   UNL     1       4.953   4.784  22.238  0.00  0.00    +0.210 HD
ENDBRANCH  37  38
ENDBRANCH  27  37
ENDBRANCH  24  25
ENDBRANCH  11  24
BRANCH   7  40
ATOM     40  O   UNL     1       2.567  -3.609  25.752  0.00  0.00    -0.461 OA
BRANCH  40  41
ATOM     41  C   UNL     1       3.086  -4.917  26.088  0.00  0.00    +0.339 C 
ATOM     42  O   UNL     1       4.155  -5.296  25.188  0.00  0.00    -0.331 OA
ATOM     43  C   UNL     1       3.634  -5.636  23.888  0.00  0.00    +0.179 C 
ATOM     44  C   UNL     1       2.984  -7.002  24.060  0.00  0.00    +0.177 C 
ATOM     45  C   UNL     1       1.735  -6.816  24.915  0.00  0.00    +0.180 C 
ATOM     46  C   UNL     1       2.029  -6.054  26.219  0.00  0.00    +0.214 C 
BRANCH  46  47
ATOM     47  O   UNL     1       0.825  -5.592  26.842  0.00  0.00    -0.383 OA
ATOM     48  H   UNL     1       1.045  -4.784  27.342  0.00  0.00    +0.210 HD
ENDBRANCH  46  47
BRANCH  45  49
ATOM     49  O   UNL     1       1.210  -8.114  25.247  0.00  0.00    -0.386 OA
ATOM     50  H   UNL     1       0.830  -8.463  24.410  0.00  0.00    +0.210 HD
ENDBRANCH  45  49
BRANCH  44  51
ATOM     51  O   UNL     1       3.879  -7.893  24.764  0.00  0.00    -0.386 OA
ATOM     52  H   UNL     1       4.093  -7.469  25.623  0.00  0.00    +0.210 HD
ENDBRANCH  44  51
BRANCH  43  53
ATOM     53  C   UNL     1       4.754  -5.682  22.844  0.00  0.00    +0.197 C 
BRANCH  53  54
ATOM     54  O   UNL     1       6.047  -6.007  23.373  0.00  0.00    -0.346 OA
BRANCH  54  55
ATOM     55  C   UNL     1       7.190  -5.475  22.688  0.00  0.00    +0.282 C 
ATOM     56  O   UNL     1       8.329  -5.510  23.568  0.00  0.00    -0.341 OA
ATOM     57  C   UNL     1       8.160  -4.700  24.750  0.00  0.00    +0.178 C 
ATOM     58  C   UNL     1       7.964  -3.229  24.337  0.00  0.00    +0.177 C 
ATOM     59  C   UNL     1       6.779  -3.115  23.367  0.00  0.00    +0.179 C 
ATOM     60  C   UNL     1       6.993  -4.040  22.163  0.00  0.00    +0.201 C 
BRANCH  60  61
ATOM     61  O   UNL     1       5.915  -3.949  21.229  0.00  0.00    -0.384 OA
ATOM     62  H   UNL     1       6.077  -3.150  20.691  0.00  0.00    +0.210 HD
ENDBRANCH  60  61
BRANCH  59  63
ATOM     63  O   UNL     1       6.627  -1.769  22.900  0.00  0.00    -0.386 OA
ATOM     64  H   UNL     1       6.664  -1.199  23.695  0.00  0.00    +0.210 HD
ENDBRANCH  59  63
BRANCH  58  65
ATOM     65  O   UNL     1       9.132  -2.714  23.672  0.00  0.00    -0.386 OA
ATOM     66  H   UNL     1       9.902  -2.849  24.261  0.00  0.00    +0.210 HD
ENDBRANCH  58  65
BRANCH  57  67
ATOM     67  C   UNL     1       9.397  -4.874  25.648  0.00  0.00    +0.190 C 
BRANCH  67  68
ATOM     68  O   UNL     1      10.559  -5.230  24.898  0.00  0.00    -0.392 OA
ATOM     69  H   UNL     1      10.953  -6.024  25.296  0.00  0.00    +0.210 HD
ENDBRANCH  67  68
ENDBRANCH  57  67
ENDBRANCH  54  55
ENDBRANCH  53  54
ENDBRANCH  43  53
ENDBRANCH  40  41
ENDBRANCH   7  40
TORSDOF 24
ENDMDL
MODEL 8
REMARK VINA RESULT:      -6.5      2.460      9.257
REMARK  Name = 
REMARK  24 active torsions:
REMARK  status: ('A' for Active; 'I' for Inactive)
REMARK    1  A    between atoms: C_3  and  O_55
REMARK    2  A    between atoms: C_4  and  O_54
REMARK    3  A    between atoms: C_6  and  C_7
REMARK    4  A    between atoms: C_8  and  O_42
REMARK    5  A    between atoms: C_12  and  O_41
REMARK    6  A    between atoms: C_14  and  O_18
REMARK    7  A    between atoms: O_18  and  C_19
REMARK    8  A    between atoms: C_20  and  O_40
REMARK    9  A    between atoms: C_21  and  O_39
REMARK   10  A    between atoms: C_22  and  O_38
REMARK   11  A    between atoms: C_23  and  C_25
REMARK   12  A    between atoms: C_25  and  O_26
REMARK   13  A    between atoms: O_26  and  C_27
REMARK   14  A    between atoms: C_28  and  O_37
REMARK   15  A    between atoms: C_29  and  O_36
REMARK   16  A    between atoms: C_30  and  O_35
REMARK   17  A    between atoms: C_31  and  C_33
REMARK   18  A    between atoms: C_33  and  O_34
REMARK   19  A    between atoms: O_42  and  C_43
REMARK   20  A    between atoms: C_44  and  O_53
REMARK   21  A    between atoms: C_45  and  O_52
REMARK   22  A    between atoms: C_46  and  O_51
REMARK   23  A    between atoms: C_47  and  C_49
REMARK   24  A    between atoms: C_49  and  O_50
REMARK                            x       y       z     vdW  Elec       q    Type
REMARK                         _______ _______ _______ _____ _____    ______ ____
ROOT
ATOM      1  C   UNL     1       3.877  -1.971  26.926  0.00  0.00    +0.181 A 
ATOM      2  O   UNL     1       3.437  -0.671  26.881  0.00  0.00    -0.451 OA
ATOM      3  C   UNL     1       4.332   0.364  26.810  0.00  0.00    +0.147 A 
ATOM      4  C   UNL     1       5.705   0.193  26.895  0.00  0.00    +0.109 A 
ATOM      5  C   UNL     1       6.527   1.330  26.846  0.00  0.00    +0.135 A 
ATOM      6  C   UNL     1       5.983   2.606  26.597  0.00  0.00    +0.092 A 
ATOM      7  C   UNL     1       4.607   2.756  26.407  0.00  0.00    +0.131 A 
ATOM      8  C   UNL     1       6.197  -1.196  26.994  0.00  0.00    +0.238 A 
ATOM      9  O   UNL     1       7.401  -1.428  27.066  0.00  0.00    -0.283 OA
ATOM     10  C   UNL     1       3.789   1.637  26.599  0.00  0.00    +0.093 A 
ATOM     11  C   UNL     1       5.192  -2.318  26.948  0.00  0.00    +0.214 A 
ENDROOT
BRANCH   1  13
ATOM     12  C   UNL     1       2.354  -3.768  27.860  0.00  0.00    +0.015 A 
ATOM     13  C   UNL     1       2.756  -2.938  26.810  0.00  0.00    +0.025 A 
ATOM     14  C   UNL     1       2.140  -3.136  25.563  0.00  0.00    +0.060 A 
ATOM     15  C   UNL     1       1.345  -4.255  25.357  0.00  0.00    +0.159 A 
ATOM     16  C   UNL     1       1.157  -5.191  26.365  0.00  0.00    +0.158 A 
ATOM     17  C   UNL     1       1.617  -4.933  27.640  0.00  0.00    +0.050 A 
BRANCH  16  18
ATOM     18  O   UNL     1       0.531  -6.363  26.053  0.00  0.00    -0.503 OA
ATOM     19  H   UNL     1      -0.408  -6.268  26.297  0.00  0.00    +0.292 HD
ENDBRANCH  16  18
BRANCH  15  20
ATOM     20  O   UNL     1       0.793  -4.460  24.127  0.00  0.00    -0.503 OA
ATOM     21  H   UNL     1       0.797  -3.575  23.710  0.00  0.00    +0.292 HD
ENDBRANCH  15  20
ENDBRANCH   1  13
BRANCH   5  22
ATOM     22  O   UNL     1       7.886   1.272  27.006  0.00  0.00    -0.506 OA
ATOM     23  H   UNL     1       8.183   2.060  27.506  0.00  0.00    +0.292 HD
ENDBRANCH   5  22
BRANCH  11  24
ATOM     24  O   UNL     1       5.596  -3.620  27.167  0.00  0.00    -0.453 OA
BRANCH  24  25
ATOM     25  C   UNL     1       6.493  -4.295  26.262  0.00  0.00    +0.340 C 
ATOM     26  O   UNL     1       6.012  -4.265  24.897  0.00  0.00    -0.331 OA
ATOM     27  C   UNL     1       4.827  -5.037  24.565  0.00  0.00    +0.179 C 
ATOM     28  C   UNL     1       4.469  -6.251  25.455  0.00  0.00    +0.177 C 
ATOM     29  C   UNL     1       5.147  -6.268  26.833  0.00  0.00    +0.180 C 
ATOM     30  C   UNL     1       6.595  -5.772  26.664  0.00  0.00    +0.214 C 
BRANCH  30  31
ATOM     31  O   UNL     1       7.415  -5.995  27.803  0.00  0.00    -0.383 OA
ATOM     32  H   UNL     1       7.134  -6.811  28.266  0.00  0.00    +0.210 HD
ENDBRANCH  30  31
BRANCH  29  33
ATOM     33  O   UNL     1       5.104  -7.599  27.355  0.00  0.00    -0.386 OA
ATOM     34  H   UNL     1       4.312  -7.670  27.919  0.00  0.00    +0.210 HD
ENDBRANCH  29  33
BRANCH  28  35
ATOM     35  O   UNL     1       4.755  -7.491  24.783  0.00  0.00    -0.386 OA
ATOM     36  H   UNL     1       5.719  -7.535  24.620  0.00  0.00    +0.210 HD
ENDBRANCH  28  35
BRANCH  27  37
ATOM     37  C   UNL     1       4.957  -5.448  23.079  0.00  0.00    +0.190 C 
BRANCH  37  38
ATOM     38  O   UNL     1       3.724  -5.999  22.609  0.00  0.00    -0.392 OA
ATOM     39  H   UNL     1       3.469  -6.669  23.271  0.00  0.00    +0.210 HD
ENDBRANCH  37  38
ENDBRANCH  27  37
ENDBRANCH  24  25
ENDBRANCH  11  24
BRANCH   7  40
ATOM     40  O   UNL     1       4.141   3.990  25.986  0.00  0.00    -0.461 OA
BRANCH  40  41
ATOM     41  C   UNL     1       3.468   3.948  24.705  0.00  0.00    +0.339 C 
ATOM     42  O   UNL     1       4.393   3.602  23.647  0.00  0.00    -0.331 OA
ATOM     43  C   UNL     1       5.272   4.705  23.353  0.00  0.00    +0.179 C 
ATOM     44  C   UNL     1       4.418   5.709  22.592  0.00  0.00    +0.177 C 
ATOM     45  C   UNL     1       3.411   6.299  23.574  0.00  0.00    +0.180 C 
ATOM     46  C   UNL     1       2.633   5.210  24.335  0.00  0.00    +0.214 C 
BRANCH  46  47
ATOM     47  O   UNL     1       1.950   5.749  25.472  0.00  0.00    -0.383 OA
ATOM     48  H   UNL     1       1.875   5.036  26.134  0.00  0.00    +0.210 HD
ENDBRANCH  46  47
BRANCH  45  49
ATOM     49  O   UNL     1       2.474   7.107  22.839  0.00  0.00    -0.386 OA
ATOM     50  H   UNL     1       1.825   7.423  23.505  0.00  0.00    +0.210 HD
ENDBRANCH  45  49
BRANCH  44  51
ATOM     51  O   UNL     1       3.681   5.040  21.543  0.00  0.00    -0.386 OA
ATOM     52  H   UNL     1       3.171   4.316  21.965  0.00  0.00    +0.210 HD
ENDBRANCH  44  51
BRANCH  43  53
ATOM     53  C   UNL     1       6.468   4.244  22.513  0.00  0.00    +0.197 C 
BRANCH  53  54
ATOM     54  O   UNL     1       7.255   3.208  23.116  0.00  0.00    -0.346 OA
BRANCH  54  55
ATOM     55  C   UNL     1       8.020   2.369  22.240  0.00  0.00    +0.282 C 
ATOM     56  O   UNL     1       7.404   1.070  22.170  0.00  0.00    -0.341 OA
ATOM     57  C   UNL     1       7.365   0.389  23.441  0.00  0.00    +0.178 C 
ATOM     58  C   UNL     1       8.802   0.170  23.947  0.00  0.00    +0.177 C 
ATOM     59  C   UNL     1       9.540   1.516  24.019  0.00  0.00    +0.179 C 
ATOM     60  C   UNL     1       9.496   2.212  22.654  0.00  0.00    +0.201 C 
BRANCH  60  61
ATOM     61  O   UNL     1      10.186   3.464  22.678  0.00  0.00    -0.384 OA
ATOM     62  H   UNL     1       9.513   4.153  22.842  0.00  0.00    +0.210 HD
ENDBRANCH  60  61
BRANCH  59  63
ATOM     63  O   UNL     1      10.907   1.331  24.405  0.00  0.00    -0.386 OA
ATOM     64  H   UNL     1      11.416   2.031  23.947  0.00  0.00    +0.210 HD
ENDBRANCH  59  63
BRANCH  58  65
ATOM     65  O   UNL     1       9.542  -0.693  23.063  0.00  0.00    -0.386 OA
ATOM     66  H   UNL     1      10.394  -0.909  23.492  0.00  0.00    +0.210 HD
ENDBRANCH  58  65
BRANCH  57  67
ATOM     67  C   UNL     1       6.619  -0.945  23.263  0.00  0.00    +0.190 C 
BRANCH  67  68
ATOM     68  O   UNL     1       7.319  -2.035  23.865  0.00  0.00    -0.392 OA
ATOM     69  H   UNL     1       6.697  -2.771  23.990  0.00  0.00    +0.210 HD
ENDBRANCH  67  68
ENDBRANCH  57  67
ENDBRANCH  54  55
ENDBRANCH  53  54
ENDBRANCH  43  53
ENDBRANCH  40  41
ENDBRANCH   7  40
TORSDOF 24
ENDMDL
MODEL 9
REMARK VINA RESULT:      -6.5      2.078      9.236
REMARK  Name = 
REMARK  24 active torsions:
REMARK  status: ('A' for Active; 'I' for Inactive)
REMARK    1  A    between atoms: C_3  and  O_55
REMARK    2  A    between atoms: C_4  and  O_54
REMARK    3  A    between atoms: C_6  and  C_7
REMARK    4  A    between atoms: C_8  and  O_42
REMARK    5  A    between atoms: C_12  and  O_41
REMARK    6  A    between atoms: C_14  and  O_18
REMARK    7  A    between atoms: O_18  and  C_19
REMARK    8  A    between atoms: C_20  and  O_40
REMARK    9  A    between atoms: C_21  and  O_39
REMARK   10  A    between atoms: C_22  and  O_38
REMARK   11  A    between atoms: C_23  and  C_25
REMARK   12  A    between atoms: C_25  and  O_26
REMARK   13  A    between atoms: O_26  and  C_27
REMARK   14  A    between atoms: C_28  and  O_37
REMARK   15  A    between atoms: C_29  and  O_36
REMARK   16  A    between atoms: C_30  and  O_35
REMARK   17  A    between atoms: C_31  and  C_33
REMARK   18  A    between atoms: C_33  and  O_34
REMARK   19  A    between atoms: O_42  and  C_43
REMARK   20  A    between atoms: C_44  and  O_53
REMARK   21  A    between atoms: C_45  and  O_52
REMARK   22  A    between atoms: C_46  and  O_51
REMARK   23  A    between atoms: C_47  and  C_49
REMARK   24  A    between atoms: C_49  and  O_50
REMARK                            x       y       z     vdW  Elec       q    Type
REMARK                         _______ _______ _______ _____ _____    ______ ____
ROOT
ATOM      1  C   UNL     1       5.278  -2.895  26.094  0.00  0.00    +0.181 A 
ATOM      2  O   UNL     1       5.695  -1.604  25.884  0.00  0.00    -0.451 OA
ATOM      3  C   UNL     1       4.910  -0.549  26.269  0.00  0.00    +0.147 A 
ATOM      4  C   UNL     1       3.628  -0.696  26.773  0.00  0.00    +0.109 A 
ATOM      5  C   UNL     1       2.900   0.459  27.103  0.00  0.00    +0.135 A 
ATOM      6  C   UNL     1       3.495   1.733  27.035  0.00  0.00    +0.092 A 
ATOM      7  C   UNL     1       4.825   1.864  26.625  0.00  0.00    +0.131 A 
ATOM      8  C   UNL     1       3.141  -2.078  26.961  0.00  0.00    +0.238 A 
ATOM      9  O   UNL     1       2.018  -2.289  27.411  0.00  0.00    -0.283 OA
ATOM     10  C   UNL     1       5.489   0.721  26.167  0.00  0.00    +0.093 A 
ATOM     11  C   UNL     1       4.076  -3.216  26.641  0.00  0.00    +0.214 A 
ENDROOT
BRANCH   1  13
ATOM     12  C   UNL     1       7.094  -4.531  26.766  0.00  0.00    +0.015 A 
ATOM     13  C   UNL     1       6.346  -3.878  25.782  0.00  0.00    +0.025 A 
ATOM     14  C   UNL     1       6.729  -4.084  24.445  0.00  0.00    +0.060 A 
ATOM     15  C   UNL     1       7.928  -4.722  24.161  0.00  0.00    +0.159 A 
ATOM     16  C   UNL     1       8.766  -5.152  25.181  0.00  0.00    +0.158 A 
ATOM     17  C   UNL     1       8.335  -5.107  26.491  0.00  0.00    +0.050 A 
BRANCH  16  18
ATOM     18  O   UNL     1      10.014  -5.594  24.852  0.00  0.00    -0.503 OA
ATOM     19  H   UNL     1      10.364  -4.997  24.165  0.00  0.00    +0.292 HD
ENDBRANCH  16  18
BRANCH  15  20
ATOM     20  O   UNL     1       8.309  -4.870  22.860  0.00  0.00    -0.503 OA
ATOM     21  H   UNL     1       9.062  -4.253  22.757  0.00  0.00    +0.292 HD
ENDBRANCH  15  20
ENDBRANCH   1  13
BRANCH   5  22
ATOM     22  O   UNL     1       1.599   0.420  27.528  0.00  0.00    -0.506 OA
ATOM     23  H   UNL     1       1.357   1.294  27.900  0.00  0.00    +0.292 HD
ENDBRANCH   5  22
BRANCH  11  24
ATOM     24  O   UNL     1       3.619  -4.519  26.679  0.00  0.00    -0.453 OA
BRANCH  24  25
ATOM     25  C   UNL     1       2.472  -4.940  25.914  0.00  0.00    +0.340 C 
ATOM     26  O   UNL     1       1.676  -5.920  26.623  0.00  0.00    -0.331 OA
ATOM     27  C   UNL     1       2.235  -7.245  26.831  0.00  0.00    +0.179 C 
ATOM     28  C   UNL     1       3.333  -7.739  25.860  0.00  0.00    +0.177 C 
ATOM     29  C   UNL     1       4.020  -6.636  25.042  0.00  0.00    +0.180 C 
ATOM     30  C   UNL     1       2.952  -5.612  24.619  0.00  0.00    +0.214 C 
BRANCH  30  31
ATOM     31  O   UNL     1       3.396  -4.690  23.634  0.00  0.00    -0.383 OA
ATOM     32  H   UNL     1       4.143  -4.160  23.982  0.00  0.00    +0.210 HD
ENDBRANCH  30  31
BRANCH  29  33
ATOM     33  O   UNL     1       4.658  -7.229  23.907  0.00  0.00    -0.386 OA
ATOM     34  H   UNL     1       4.397  -6.715  23.121  0.00  0.00    +0.210 HD
ENDBRANCH  29  33
BRANCH  28  35
ATOM     35  O   UNL     1       2.818  -8.734  24.956  0.00  0.00    -0.386 OA
ATOM     36  H   UNL     1       1.901  -8.944  25.224  0.00  0.00    +0.210 HD
ENDBRANCH  28  35
BRANCH  27  37
ATOM     37  C   UNL     1       1.045  -8.233  26.886  0.00  0.00    +0.190 C 
BRANCH  37  38
ATOM     38  O   UNL     1       1.146  -9.063  28.047  0.00  0.00    -0.392 OA
ATOM     39  H   UNL     1       0.380  -8.827  28.603  0.00  0.00    +0.210 HD
ENDBRANCH  37  38
ENDBRANCH  27  37
ENDBRANCH  24  25
ENDBRANCH  11  24
BRANCH   7  40
ATOM     40  O   UNL     1       5.422   3.108  26.749  0.00  0.00    -0.461 OA
BRANCH  40  41
ATOM     41  C   UNL     1       4.804   4.130  25.933  0.00  0.00    +0.339 C 
ATOM     42  O   UNL     1       4.588   3.654  24.583  0.00  0.00    -0.331 OA
ATOM     43  C   UNL     1       5.834   3.576  23.863  0.00  0.00    +0.179 C 
ATOM     44  C   UNL     1       6.204   5.017  23.541  0.00  0.00    +0.177 C 
ATOM     45  C   UNL     1       6.584   5.701  24.850  0.00  0.00    +0.180 C 
ATOM     46  C   UNL     1       5.508   5.520  25.936  0.00  0.00    +0.214 C 
BRANCH  46  47
ATOM     47  O   UNL     1       6.008   5.861  27.234  0.00  0.00    -0.383 OA
ATOM     48  H   UNL     1       5.239   5.968  27.825  0.00  0.00    +0.210 HD
ENDBRANCH  46  47
BRANCH  45  49
ATOM     49  O   UNL     1       6.755   7.108  24.599  0.00  0.00    -0.386 OA
ATOM     50  H   UNL     1       7.709   7.220  24.390  0.00  0.00    +0.210 HD
ENDBRANCH  45  49
BRANCH  44  51
ATOM     51  O   UNL     1       5.062   5.712  22.989  0.00  0.00    -0.386 OA
ATOM     52  H   UNL     1       5.313   6.008  22.087  0.00  0.00    +0.210 HD
ENDBRANCH  44  51
BRANCH  43  53
ATOM     53  C   UNL     1       5.676   2.745  22.585  0.00  0.00    +0.197 C 
BRANCH  53  54
ATOM     54  O   UNL     1       6.760   1.842  22.325  0.00  0.00    -0.346 OA
BRANCH  54  55
ATOM     55  C   UNL     1       7.345   1.176  23.453  0.00  0.00    +0.282 C 
ATOM     56  O   UNL     1       8.592   1.813  23.786  0.00  0.00    -0.341 OA
ATOM     57  C   UNL     1       9.569   1.739  22.727  0.00  0.00    +0.178 C 
ATOM     58  C   UNL     1       9.892   0.263  22.433  0.00  0.00    +0.177 C 
ATOM     59  C   UNL     1       8.599  -0.496  22.098  0.00  0.00    +0.179 C 
ATOM     60  C   UNL     1       7.584  -0.331  23.235  0.00  0.00    +0.201 C 
BRANCH  60  61
ATOM     61  O   UNL     1       6.370  -1.037  22.965  0.00  0.00    -0.384 OA
ATOM     62  H   UNL     1       6.488  -1.941  23.316  0.00  0.00    +0.210 HD
ENDBRANCH  60  61
BRANCH  59  63
ATOM     63  O   UNL     1       8.859  -1.891  21.903  0.00  0.00    -0.386 OA
ATOM     64  H   UNL     1       9.769  -1.951  21.546  0.00  0.00    +0.210 HD
ENDBRANCH  59  63
BRANCH  58  65
ATOM     65  O   UNL     1      10.498  -0.376  23.571  0.00  0.00    -0.386 OA
ATOM     66  H   UNL     1      11.280   0.150  23.835  0.00  0.00    +0.210 HD
ENDBRANCH  58  65
BRANCH  57  67
ATOM     67  C   UNL     1      10.825   2.517  23.160  0.00  0.00    +0.190 C 
BRANCH  67  68
ATOM     68  O   UNL     1      10.624   3.929  23.113  0.00  0.00    -0.392 OA
ATOM     69  H   UNL     1      11.260   4.311  22.485  0.00  0.00    +0.210 HD
ENDBRANCH  67  68
ENDBRANCH  57  67
ENDBRANCH  54  55
ENDBRANCH  53  54
ENDBRANCH  43  53
ENDBRANCH  40  41
ENDBRANCH   7  40
TORSDOF 24
ENDMDL
