MODEL 1
REMARK VINA RESULT:      -7.7      0.000      0.000
REMARK  Name = 
REMARK  21 active torsions:
REMARK  status: ('A' for Active; 'I' for Inactive)
REMARK    1  A    between atoms: C_1  and  C_2
REMARK    2  A    between atoms: C_3  and  O_60
REMARK    3  A    between atoms: C_5  and  O_59
REMARK    4  A    between atoms: C_6  and  O_33
REMARK    5  A    between atoms: C_8  and  O_11
REMARK    6  A    between atoms: O_11  and  C_12
REMARK    7  A    between atoms: C_13  and  C_25
REMARK    8  A    between atoms: C_17  and  O_24
REMARK    9  A    between atoms: C_19  and  O_23
REMARK   10  A    between atoms: C_27  and  O_32
REMARK   11  A    between atoms: C_28  and  O_31
REMARK   12  A    between atoms: O_33  and  C_34
REMARK   13  A    between atoms: C_36  and  O_58
REMARK   14  A    between atoms: C_38  and  O_57
REMARK   15  A    between atoms: C_39  and  O_56
REMARK   16  A    between atoms: C_41  and  C_43
REMARK   17  A    between atoms: C_43  and  O_44
REMARK   18  A    between atoms: O_44  and  C_45
REMARK   19  A    between atoms: C_45  and  C_47
REMARK   20  A    between atoms: C_48  and  C_49
REMARK   21  A    between atoms: C_52  and  O_55
REMARK                            x       y       z     vdW  Elec       q    Type
REMARK                         _______ _______ _______ _____ _____    ______ ____
ROOT
ATOM      1  C   UNL     1      10.204  -0.986  22.954  0.00  0.00    +0.041 C 
ATOM      2  C   UNL     1       9.366  -0.241  23.988  0.00  0.00    +0.150 C 
ATOM      3  O   UNL     1       8.034  -0.729  24.211  0.00  0.00    -0.334 OA
ATOM      4  C   UNL     1       6.879  -0.200  23.494  0.00  0.00    +0.340 C 
ATOM      5  C   UNL     1       6.970   1.295  22.855  0.00  0.00    +0.221 C 
ATOM      6  C   UNL     1       8.439   1.459  22.479  0.00  0.00    +0.180 C 
ATOM      7  C   UNL     1       9.334   1.241  23.735  0.00  0.00    +0.174 C 
ENDROOT
BRANCH   6   8
ATOM      8  O   UNL     1       8.795   2.596  21.705  0.00  0.00    -0.386 OA
ATOM      9  H   UNL     1       9.743   2.572  21.469  0.00  0.00    +0.210 HD
ENDBRANCH   6   8
BRANCH   7  10
ATOM     10  O   UNL     1       8.839   1.715  25.009  0.00  0.00    -0.387 OA
ATOM     11  H   UNL     1       7.862   1.780  24.960  0.00  0.00    +0.210 HD
ENDBRANCH   7  10
BRANCH   5  12
ATOM     12  O   UNL     1       6.519   2.347  23.759  0.00  0.00    -0.337 OA
BRANCH  12  13
ATOM     13  C   UNL     1       6.062   3.601  23.168  0.00  0.00    +0.282 C 
ATOM     14  O   UNL     1       5.845   4.657  24.147  0.00  0.00    -0.339 OA
ATOM     15  C   UNL     1       4.927   4.257  25.191  0.00  0.00    +0.190 C 
ATOM     16  C   UNL     1       3.544   3.876  24.664  0.00  0.00    +0.178 C 
ATOM     17  C   UNL     1       3.683   2.901  23.473  0.00  0.00    +0.179 C 
ATOM     18  C   UNL     1       4.710   3.393  22.439  0.00  0.00    +0.201 C 
BRANCH  17  19
ATOM     19  O   UNL     1       2.396   2.713  22.873  0.00  0.00    -0.386 OA
ATOM     20  H   UNL     1       2.255   3.501  22.314  0.00  0.00    +0.210 HD
ENDBRANCH  17  19
BRANCH  16  21
ATOM     21  O   UNL     1       2.813   5.027  24.234  0.00  0.00    -0.386 OA
ATOM     22  H   UNL     1       2.034   5.066  24.829  0.00  0.00    +0.210 HD
ENDBRANCH  16  21
BRANCH  18  23
ATOM     23  O   UNL     1       4.250   4.610  21.816  0.00  0.00    -0.384 OA
ATOM     24  H   UNL     1       3.889   4.368  20.936  0.00  0.00    +0.210 HD
ENDBRANCH  18  23
BRANCH  15  25
ATOM     25  C   UNL     1       5.073   5.096  26.486  0.00  0.00    +0.266 C 
BRANCH  25  26
ATOM     26  O   UNL     1       6.345   4.889  27.175  0.00  0.00    -0.459 OA
BRANCH  26  27
ATOM     27  C   UNL     1       7.217   5.914  27.089  0.00  0.00    +0.332 C 
ATOM     28  O   UNL     1       7.069   6.997  27.641  0.00  0.00    -0.246 OA
BRANCH  27  29
ATOM     29  C   UNL     1       8.436   5.671  26.278  0.00  0.00    +0.092 C 
ATOM     30  C   UNL     1       8.826   6.151  25.079  0.00  0.00    +0.015 C 
BRANCH  30  31
ATOM     31  C   UNL     1      10.181   5.859  24.554  0.00  0.00    -0.025 A 
ATOM     32  C   UNL     1      11.269   6.698  24.874  0.00  0.00    +0.011 A 
ATOM     33  C   UNL     1      12.560   6.419  24.414  0.00  0.00    +0.046 A 
ATOM     34  C   UNL     1      12.769   5.316  23.600  0.00  0.00    +0.117 A 
ATOM     35  C   UNL     1      11.707   4.504  23.222  0.00  0.00    +0.046 A 
ATOM     36  C   UNL     1      10.410   4.773  23.697  0.00  0.00    +0.011 A 
BRANCH  34  37
ATOM     37  O   UNL     1      14.051   5.075  23.194  0.00  0.00    -0.507 OA
ATOM     38  H   UNL     1      14.518   5.922  23.108  0.00  0.00    +0.292 HD
ENDBRANCH  34  37
ENDBRANCH  30  31
ENDBRANCH  27  29
ENDBRANCH  26  27
ENDBRANCH  25  26
ENDBRANCH  15  25
ENDBRANCH  12  13
ENDBRANCH   5  12
BRANCH   4  39
ATOM     39  O   UNL     1       5.754  -0.305  24.429  0.00  0.00    -0.453 OA
BRANCH  39  40
ATOM     40  C   UNL     1       5.656  -1.436  25.242  0.00  0.00    +0.214 A 
ATOM     41  C   UNL     1       5.369  -2.766  24.571  0.00  0.00    +0.238 A 
ATOM     42  O   UNL     1       5.077  -2.816  23.380  0.00  0.00    -0.283 OA
ATOM     43  C   UNL     1       5.383  -3.991  25.384  0.00  0.00    +0.109 A 
ATOM     44  C   UNL     1       5.441  -3.828  26.755  0.00  0.00    +0.147 A 
ATOM     45  C   UNL     1       5.393  -4.935  27.613  0.00  0.00    +0.092 A 
ATOM     46  C   UNL     1       5.311  -6.216  27.077  0.00  0.00    +0.124 A 
ATOM     47  C   UNL     1       5.263  -6.402  25.702  0.00  0.00    +0.091 A 
ATOM     48  O   UNL     1       5.532  -2.605  27.347  0.00  0.00    -0.451 OA
ATOM     49  C   UNL     1       5.294  -5.290  24.856  0.00  0.00    +0.135 A 
ATOM     50  C   UNL     1       5.659  -1.418  26.607  0.00  0.00    +0.181 A 
BRANCH  50  51
ATOM     51  C   UNL     1       5.733  -0.252  27.602  0.00  0.00    +0.025 A 
ATOM     52  C   UNL     1       4.659  -0.126  28.544  0.00  0.00    +0.015 A 
ATOM     53  C   UNL     1       4.555   0.908  29.483  0.00  0.00    +0.050 A 
ATOM     54  C   UNL     1       5.542   1.863  29.527  0.00  0.00    +0.158 A 
ATOM     55  C   UNL     1       6.622   1.765  28.663  0.00  0.00    +0.159 A 
ATOM     56  C   UNL     1       6.736   0.729  27.705  0.00  0.00    +0.060 A 
BRANCH  55  57
ATOM     57  O   UNL     1       7.590   2.739  28.810  0.00  0.00    -0.503 OA
ATOM     58  H   UNL     1       8.454   2.356  28.603  0.00  0.00    +0.292 HD
ENDBRANCH  55  57
BRANCH  54  59
ATOM     59  O   UNL     1       5.433   2.864  30.440  0.00  0.00    -0.503 OA
ATOM     60  H   UNL     1       4.874   2.498  31.168  0.00  0.00    +0.292 HD
ENDBRANCH  54  59
ENDBRANCH  50  51
BRANCH  49  61
ATOM     61  O   UNL     1       5.256  -5.504  23.507  0.00  0.00    -0.506 OA
ATOM     62  H   UNL     1       5.745  -4.801  23.046  0.00  0.00    +0.292 HD
ENDBRANCH  49  61
BRANCH  46  63
ATOM     63  O   UNL     1       5.281  -7.328  27.862  0.00  0.00    -0.507 OA
ATOM     64  H   UNL     1       5.427  -7.077  28.790  0.00  0.00    +0.292 HD
ENDBRANCH  46  63
ENDBRANCH  39  40
ENDBRANCH   4  39
TORSDOF 20
ENDMDL
MODEL 2
REMARK VINA RESULT:      -7.3      2.417      5.882
REMARK  Name = 
REMARK  21 active torsions:
REMARK  status: ('A' for Active; 'I' for Inactive)
REMARK    1  A    between atoms: C_1  and  C_2
REMARK    2  A    between atoms: C_3  and  O_60
REMARK    3  A    between atoms: C_5  and  O_59
REMARK    4  A    between atoms: C_6  and  O_33
REMARK    5  A    between atoms: C_8  and  O_11
REMARK    6  A    between atoms: O_11  and  C_12
REMARK    7  A    between atoms: C_13  and  C_25
REMARK    8  A    between atoms: C_17  and  O_24
REMARK    9  A    between atoms: C_19  and  O_23
REMARK   10  A    between atoms: C_27  and  O_32
REMARK   11  A    between atoms: C_28  and  O_31
REMARK   12  A    between atoms: O_33  and  C_34
REMARK   13  A    between atoms: C_36  and  O_58
REMARK   14  A    between atoms: C_38  and  O_57
REMARK   15  A    between atoms: C_39  and  O_56
REMARK   16  A    between atoms: C_41  and  C_43
REMARK   17  A    between atoms: C_43  and  O_44
REMARK   18  A    between atoms: O_44  and  C_45
REMARK   19  A    between atoms: C_45  and  C_47
REMARK   20  A    between atoms: C_48  and  C_49
REMARK   21  A    between atoms: C_52  and  O_55
REMARK                            x       y       z     vdW  Elec       q    Type
REMARK                         _______ _______ _______ _____ _____    ______ ____
ROOT
ATOM      1  C   UNL     1       7.339   0.919  29.662  0.00  0.00    +0.041 C 
ATOM      2  C   UNL     1       6.103   1.250  28.833  0.00  0.00    +0.150 C 
ATOM      3  O   UNL     1       5.690   0.267  27.871  0.00  0.00    -0.334 OA
ATOM      4  C   UNL     1       6.129   0.301  26.481  0.00  0.00    +0.340 C 
ATOM      5  C   UNL     1       6.627   1.718  25.852  0.00  0.00    +0.221 C 
ATOM      6  C   UNL     1       7.245   2.462  27.030  0.00  0.00    +0.180 C 
ATOM      7  C   UNL     1       6.201   2.599  28.176  0.00  0.00    +0.174 C 
ENDROOT
BRANCH   6   8
ATOM      8  O   UNL     1       7.957   3.659  26.749  0.00  0.00    -0.386 OA
ATOM      9  H   UNL     1       8.884   3.592  27.052  0.00  0.00    +0.210 HD
ENDBRANCH   6   8
BRANCH   7  10
ATOM     10  O   UNL     1       4.819   2.815  27.810  0.00  0.00    -0.387 OA
ATOM     11  H   UNL     1       4.305   3.000  28.623  0.00  0.00    +0.210 HD
ENDBRANCH   7  10
BRANCH   5  12
ATOM     12  O   UNL     1       5.557   2.487  25.224  0.00  0.00    -0.337 OA
BRANCH  12  13
ATOM     13  C   UNL     1       5.473   2.467  23.766  0.00  0.00    +0.282 C 
ATOM     14  O   UNL     1       6.770   2.340  23.114  0.00  0.00    -0.339 OA
ATOM     15  C   UNL     1       7.695   3.371  23.528  0.00  0.00    +0.190 C 
ATOM     16  C   UNL     1       7.202   4.784  23.218  0.00  0.00    +0.178 C 
ATOM     17  C   UNL     1       5.743   4.951  23.699  0.00  0.00    +0.179 C 
ATOM     18  C   UNL     1       4.847   3.786  23.244  0.00  0.00    +0.201 C 
BRANCH  17  19
ATOM     19  O   UNL     1       5.237   6.204  23.226  0.00  0.00    -0.386 OA
ATOM     20  H   UNL     1       5.396   6.200  22.263  0.00  0.00    +0.210 HD
ENDBRANCH  17  19
BRANCH  16  21
ATOM     21  O   UNL     1       7.260   5.063  21.816  0.00  0.00    -0.386 OA
ATOM     22  H   UNL     1       6.441   5.569  21.628  0.00  0.00    +0.210 HD
ENDBRANCH  16  21
BRANCH  18  23
ATOM     23  O   UNL     1       4.722   3.782  21.807  0.00  0.00    -0.384 OA
ATOM     24  H   UNL     1       5.625   3.688  21.436  0.00  0.00    +0.210 HD
ENDBRANCH  18  23
BRANCH  15  25
ATOM     25  C   UNL     1       9.179   2.987  23.296  0.00  0.00    +0.266 C 
BRANCH  25  26
ATOM     26  O   UNL     1       9.613   1.835  24.084  0.00  0.00    -0.459 OA
BRANCH  26  27
ATOM     27  C   UNL     1       9.784   0.695  23.385  0.00  0.00    +0.332 C 
ATOM     28  O   UNL     1      10.280   0.637  22.266  0.00  0.00    -0.246 OA
BRANCH  27  29
ATOM     29  C   UNL     1       9.350  -0.556  24.054  0.00  0.00    +0.092 C 
ATOM     30  C   UNL     1       9.860  -1.805  24.040  0.00  0.00    +0.015 C 
BRANCH  30  31
ATOM     31  C   UNL     1       9.310  -2.855  24.930  0.00  0.00    -0.025 A 
ATOM     32  C   UNL     1       9.549  -4.219  24.661  0.00  0.00    +0.011 A 
ATOM     33  C   UNL     1       9.066  -5.220  25.508  0.00  0.00    +0.046 A 
ATOM     34  C   UNL     1       8.306  -4.869  26.614  0.00  0.00    +0.117 A 
ATOM     35  C   UNL     1       8.007  -3.537  26.872  0.00  0.00    +0.046 A 
ATOM     36  C   UNL     1       8.507  -2.527  26.030  0.00  0.00    +0.011 A 
BRANCH  34  37
ATOM     37  O   UNL     1       7.874  -5.883  27.421  0.00  0.00    -0.507 OA
ATOM     38  H   UNL     1       8.497  -5.984  28.159  0.00  0.00    +0.292 HD
ENDBRANCH  34  37
ENDBRANCH  30  31
ENDBRANCH  27  29
ENDBRANCH  26  27
ENDBRANCH  25  26
ENDBRANCH  15  25
ENDBRANCH  12  13
ENDBRANCH   5  12
BRANCH   4  39
ATOM     39  O   UNL     1       5.020  -0.260  25.703  0.00  0.00    -0.453 OA
BRANCH  39  40
ATOM     40  C   UNL     1       5.117  -1.574  25.243  0.00  0.00    +0.214 A 
ATOM     41  C   UNL     1       5.828  -1.810  23.924  0.00  0.00    +0.238 A 
ATOM     42  O   UNL     1       6.164  -0.865  23.215  0.00  0.00    -0.283 OA
ATOM     43  C   UNL     1       6.055  -3.192  23.474  0.00  0.00    +0.109 A 
ATOM     44  C   UNL     1       5.408  -4.190  24.178  0.00  0.00    +0.147 A 
ATOM     45  C   UNL     1       5.511  -5.531  23.783  0.00  0.00    +0.092 A 
ATOM     46  C   UNL     1       6.295  -5.863  22.683  0.00  0.00    +0.124 A 
ATOM     47  C   UNL     1       6.962  -4.877  21.969  0.00  0.00    +0.091 A 
ATOM     48  O   UNL     1       4.634  -3.937  25.269  0.00  0.00    -0.451 OA
ATOM     49  C   UNL     1       6.838  -3.542  22.361  0.00  0.00    +0.135 A 
ATOM     50  C   UNL     1       4.500  -2.650  25.815  0.00  0.00    +0.181 A 
BRANCH  50  51
ATOM     51  C   UNL     1       3.559  -2.749  27.023  0.00  0.00    +0.025 A 
ATOM     52  C   UNL     1       3.544  -3.989  27.742  0.00  0.00    +0.015 A 
ATOM     53  C   UNL     1       2.709  -4.254  28.835  0.00  0.00    +0.050 A 
ATOM     54  C   UNL     1       1.853  -3.270  29.266  0.00  0.00    +0.158 A 
ATOM     55  C   UNL     1       1.856  -2.039  28.629  0.00  0.00    +0.159 A 
ATOM     56  C   UNL     1       2.690  -1.760  27.520  0.00  0.00    +0.060 A 
BRANCH  55  57
ATOM     57  O   UNL     1       0.999  -1.094  29.159  0.00  0.00    -0.503 OA
ATOM     58  H   UNL     1       1.372  -0.214  29.008  0.00  0.00    +0.292 HD
ENDBRANCH  55  57
BRANCH  54  59
ATOM     59  O   UNL     1       1.044  -3.535  30.327  0.00  0.00    -0.503 OA
ATOM     60  H   UNL     1       1.505  -3.153  31.112  0.00  0.00    +0.292 HD
ENDBRANCH  54  59
ENDBRANCH  50  51
BRANCH  49  61
ATOM     61  O   UNL     1       7.514  -2.594  21.646  0.00  0.00    -0.506 OA
ATOM     62  H   UNL     1       8.051  -2.047  22.245  0.00  0.00    +0.292 HD
ENDBRANCH  49  61
BRANCH  46  63
ATOM     63  O   UNL     1       6.447  -7.151  22.267  0.00  0.00    -0.507 OA
ATOM     64  H   UNL     1       7.236  -7.220  21.702  0.00  0.00    +0.292 HD
ENDBRANCH  46  63
ENDBRANCH  39  40
ENDBRANCH   4  39
TORSDOF 20
ENDMDL
MODEL 3
REMARK VINA RESULT:      -6.7      2.094      5.451
REMARK  Name = 
REMARK  21 active torsions:
REMARK  status: ('A' for Active; 'I' for Inactive)
REMARK    1  A    between atoms: C_1  and  C_2
REMARK    2  A    between atoms: C_3  and  O_60
REMARK    3  A    between atoms: C_5  and  O_59
REMARK    4  A    between atoms: C_6  and  O_33
REMARK    5  A    between atoms: C_8  and  O_11
REMARK    6  A    between atoms: O_11  and  C_12
REMARK    7  A    between atoms: C_13  and  C_25
REMARK    8  A    between atoms: C_17  and  O_24
REMARK    9  A    between atoms: C_19  and  O_23
REMARK   10  A    between atoms: C_27  and  O_32
REMARK   11  A    between atoms: C_28  and  O_31
REMARK   12  A    between atoms: O_33  and  C_34
REMARK   13  A    between atoms: C_36  and  O_58
REMARK   14  A    between atoms: C_38  and  O_57
REMARK   15  A    between atoms: C_39  and  O_56
REMARK   16  A    between atoms: C_41  and  C_43
REMARK   17  A    between atoms: C_43  and  O_44
REMARK   18  A    between atoms: O_44  and  C_45
REMARK   19  A    between atoms: C_45  and  C_47
REMARK   20  A    between atoms: C_48  and  C_49
REMARK   21  A    between atoms: C_52  and  O_55
REMARK                            x       y       z     vdW  Elec       q    Type
REMARK                         _______ _______ _______ _____ _____    ______ ____
ROOT
ATOM      1  C   UNL     1       7.018   1.132  29.653  0.00  0.00    +0.041 C 
ATOM      2  C   UNL     1       5.765   1.423  28.834  0.00  0.00    +0.150 C 
ATOM      3  O   UNL     1       5.384   0.435  27.864  0.00  0.00    -0.334 OA
ATOM      4  C   UNL     1       5.814   0.501  26.472  0.00  0.00    +0.340 C 
ATOM      5  C   UNL     1       6.252   1.943  25.855  0.00  0.00    +0.221 C 
ATOM      6  C   UNL     1       6.849   2.697  27.038  0.00  0.00    +0.180 C 
ATOM      7  C   UNL     1       5.807   2.782  28.192  0.00  0.00    +0.174 C 
ENDROOT
BRANCH   6   8
ATOM      8  O   UNL     1       7.512   3.924  26.766  0.00  0.00    -0.386 OA
ATOM      9  H   UNL     1       8.028   4.220  27.542  0.00  0.00    +0.210 HD
ENDBRANCH   6   8
BRANCH   7  10
ATOM     10  O   UNL     1       4.415   2.948  27.836  0.00  0.00    -0.387 OA
ATOM     11  H   UNL     1       4.214   3.907  27.799  0.00  0.00    +0.210 HD
ENDBRANCH   7  10
BRANCH   5  12
ATOM     12  O   UNL     1       5.150   2.676  25.242  0.00  0.00    -0.337 OA
BRANCH  12  13
ATOM     13  C   UNL     1       5.079   2.700  23.784  0.00  0.00    +0.282 C 
ATOM     14  O   UNL     1       6.330   3.098  23.151  0.00  0.00    -0.339 OA
ATOM     15  C   UNL     1       6.804   4.377  23.630  0.00  0.00    +0.190 C 
ATOM     16  C   UNL     1       5.820   5.518  23.377  0.00  0.00    +0.178 C 
ATOM     17  C   UNL     1       4.404   5.105  23.837  0.00  0.00    +0.179 C 
ATOM     18  C   UNL     1       4.007   3.715  23.312  0.00  0.00    +0.201 C 
BRANCH  17  19
ATOM     19  O   UNL     1       3.467   6.103  23.414  0.00  0.00    -0.386 OA
ATOM     20  H   UNL     1       2.588   5.739  23.632  0.00  0.00    +0.210 HD
ENDBRANCH  17  19
BRANCH  16  21
ATOM     21  O   UNL     1       5.770   5.869  21.991  0.00  0.00    -0.386 OA
ATOM     22  H   UNL     1       4.821   6.044  21.812  0.00  0.00    +0.210 HD
ENDBRANCH  16  21
BRANCH  18  23
ATOM     23  O   UNL     1       3.892   3.737  21.874  0.00  0.00    -0.384 OA
ATOM     24  H   UNL     1       4.408   4.508  21.552  0.00  0.00    +0.210 HD
ENDBRANCH  18  23
BRANCH  15  25
ATOM     25  C   UNL     1       8.325   4.586  23.409  0.00  0.00    +0.266 C 
BRANCH  25  26
ATOM     26  O   UNL     1       9.150   4.046  24.488  0.00  0.00    -0.459 OA
BRANCH  26  27
ATOM     27  C   UNL     1      10.011   3.076  24.121  0.00  0.00    +0.332 C 
ATOM     28  O   UNL     1      11.058   3.272  23.516  0.00  0.00    -0.246 OA
BRANCH  27  29
ATOM     29  C   UNL     1       9.643   1.692  24.509  0.00  0.00    +0.092 C 
ATOM     30  C   UNL     1      10.380   0.567  24.627  0.00  0.00    +0.015 C 
BRANCH  30  31
ATOM     31  C   UNL     1       9.783  -0.670  25.185  0.00  0.00    -0.025 A 
ATOM     32  C   UNL     1       8.946  -0.613  26.319  0.00  0.00    +0.011 A 
ATOM     33  C   UNL     1       8.349  -1.765  26.838  0.00  0.00    +0.046 A 
ATOM     34  C   UNL     1       8.613  -2.993  26.250  0.00  0.00    +0.117 A 
ATOM     35  C   UNL     1       9.479  -3.087  25.167  0.00  0.00    +0.046 A 
ATOM     36  C   UNL     1      10.068  -1.926  24.633  0.00  0.00    +0.011 A 
BRANCH  34  37
ATOM     37  O   UNL     1       7.991  -4.086  26.782  0.00  0.00    -0.507 OA
ATOM     38  H   UNL     1       7.633  -4.627  26.059  0.00  0.00    +0.292 HD
ENDBRANCH  34  37
ENDBRANCH  30  31
ENDBRANCH  27  29
ENDBRANCH  26  27
ENDBRANCH  25  26
ENDBRANCH  15  25
ENDBRANCH  12  13
ENDBRANCH   5  12
BRANCH   4  39
ATOM     39  O   UNL     1       4.722  -0.095  25.695  0.00  0.00    -0.453 OA
BRANCH  39  40
ATOM     40  C   UNL     1       4.705  -1.478  25.506  0.00  0.00    +0.214 A 
ATOM     41  C   UNL     1       3.942  -2.318  26.513  0.00  0.00    +0.238 A 
ATOM     42  O   UNL     1       3.494  -1.814  27.539  0.00  0.00    -0.283 OA
ATOM     43  C   UNL     1       3.802  -3.763  26.274  0.00  0.00    +0.109 A 
ATOM     44  C   UNL     1       4.565  -4.302  25.255  0.00  0.00    +0.147 A 
ATOM     45  C   UNL     1       4.547  -5.680  24.996  0.00  0.00    +0.092 A 
ATOM     46  C   UNL     1       3.733  -6.510  25.758  0.00  0.00    +0.124 A 
ATOM     47  C   UNL     1       2.951  -5.987  26.779  0.00  0.00    +0.091 A 
ATOM     48  O   UNL     1       5.375  -3.546  24.464  0.00  0.00    -0.451 OA
ATOM     49  C   UNL     1       2.989  -4.615  27.040  0.00  0.00    +0.135 A 
ATOM     50  C   UNL     1       5.436  -2.147  24.567  0.00  0.00    +0.181 A 
BRANCH  50  51
ATOM     51  C   UNL     1       6.447  -1.644  23.528  0.00  0.00    +0.025 A 
ATOM     52  C   UNL     1       7.226  -2.632  22.841  0.00  0.00    +0.015 A 
ATOM     53  C   UNL     1       8.221  -2.334  21.901  0.00  0.00    +0.050 A 
ATOM     54  C   UNL     1       8.470  -1.017  21.598  0.00  0.00    +0.158 A 
ATOM     55  C   UNL     1       7.718  -0.025  22.207  0.00  0.00    +0.159 A 
ATOM     56  C   UNL     1       6.714  -0.312  23.163  0.00  0.00    +0.060 A 
BRANCH  55  57
ATOM     57  O   UNL     1       8.003   1.266  21.806  0.00  0.00    -0.503 OA
ATOM     58  H   UNL     1       7.899   1.859  22.564  0.00  0.00    +0.292 HD
ENDBRANCH  55  57
BRANCH  54  59
ATOM     59  O   UNL     1       9.439  -0.736  20.686  0.00  0.00    -0.503 OA
ATOM     60  H   UNL     1       9.722  -1.610  20.323  0.00  0.00    +0.292 HD
ENDBRANCH  54  59
ENDBRANCH  50  51
BRANCH  49  61
ATOM     61  O   UNL     1       2.202  -4.126  28.044  0.00  0.00    -0.506 OA
ATOM     62  H   UNL     1       2.440  -4.549  28.887  0.00  0.00    +0.292 HD
ENDBRANCH  49  61
BRANCH  46  63
ATOM     63  O   UNL     1       3.661  -7.852  25.538  0.00  0.00    -0.507 OA
ATOM     64  H   UNL     1       4.429  -8.291  25.941  0.00  0.00    +0.292 HD
ENDBRANCH  46  63
ENDBRANCH  39  40
ENDBRANCH   4  39
TORSDOF 20
ENDMDL
MODEL 4
REMARK VINA RESULT:      -6.6      2.612      6.824
REMARK  Name = 
REMARK  21 active torsions:
REMARK  status: ('A' for Active; 'I' for Inactive)
REMARK    1  A    between atoms: C_1  and  C_2
REMARK    2  A    between atoms: C_3  and  O_60
REMARK    3  A    between atoms: C_5  and  O_59
REMARK    4  A    between atoms: C_6  and  O_33
REMARK    5  A    between atoms: C_8  and  O_11
REMARK    6  A    between atoms: O_11  and  C_12
REMARK    7  A    between atoms: C_13  and  C_25
REMARK    8  A    between atoms: C_17  and  O_24
REMARK    9  A    between atoms: C_19  and  O_23
REMARK   10  A    between atoms: C_27  and  O_32
REMARK   11  A    between atoms: C_28  and  O_31
REMARK   12  A    between atoms: O_33  and  C_34
REMARK   13  A    between atoms: C_36  and  O_58
REMARK   14  A    between atoms: C_38  and  O_57
REMARK   15  A    between atoms: C_39  and  O_56
REMARK   16  A    between atoms: C_41  and  C_43
REMARK   17  A    between atoms: C_43  and  O_44
REMARK   18  A    between atoms: O_44  and  C_45
REMARK   19  A    between atoms: C_45  and  C_47
REMARK   20  A    between atoms: C_48  and  C_49
REMARK   21  A    between atoms: C_52  and  O_55
REMARK                            x       y       z     vdW  Elec       q    Type
REMARK                         _______ _______ _______ _____ _____    ______ ____
ROOT
ATOM      1  C   UNL     1       7.735   1.108  29.634  0.00  0.00    +0.041 C 
ATOM      2  C   UNL     1       6.421   1.178  28.863  0.00  0.00    +0.150 C 
ATOM      3  O   UNL     1       6.187   0.148  27.891  0.00  0.00    -0.334 OA
ATOM      4  C   UNL     1       6.547   0.304  26.486  0.00  0.00    +0.340 C 
ATOM      5  C   UNL     1       6.698   1.807  25.878  0.00  0.00    +0.221 C 
ATOM      6  C   UNL     1       7.193   2.644  27.052  0.00  0.00    +0.180 C 
ATOM      7  C   UNL     1       6.196   2.530  28.242  0.00  0.00    +0.174 C 
ENDROOT
BRANCH   6   8
ATOM      8  O   UNL     1       7.617   3.972  26.778  0.00  0.00    -0.386 OA
ATOM      9  H   UNL     1       7.124   4.614  27.326  0.00  0.00    +0.210 HD
ENDBRANCH   6   8
BRANCH   7  10
ATOM     10  O   UNL     1       4.785   2.447  27.937  0.00  0.00    -0.387 OA
ATOM     11  H   UNL     1       4.682   2.140  27.012  0.00  0.00    +0.210 HD
ENDBRANCH   7  10
BRANCH   5  12
ATOM     12  O   UNL     1       5.461   2.337  25.315  0.00  0.00    -0.337 OA
BRANCH  12  13
ATOM     13  C   UNL     1       5.281   2.248  23.869  0.00  0.00    +0.282 C 
ATOM     14  O   UNL     1       6.478   1.812  23.163  0.00  0.00    -0.339 OA
ATOM     15  C   UNL     1       7.621   2.649  23.454  0.00  0.00    +0.190 C 
ATOM     16  C   UNL     1       7.411   4.112  23.068  0.00  0.00    +0.178 C 
ATOM     17  C   UNL     1       6.052   4.611  23.608  0.00  0.00    +0.179 C 
ATOM     18  C   UNL     1       4.908   3.635  23.285  0.00  0.00    +0.201 C 
BRANCH  17  19
ATOM     19  O   UNL     1       5.786   5.912  23.072  0.00  0.00    -0.386 OA
ATOM     20  H   UNL     1       6.635   6.390  23.124  0.00  0.00    +0.210 HD
ENDBRANCH  17  19
BRANCH  16  21
ATOM     21  O   UNL     1       7.434   4.288  21.649  0.00  0.00    -0.386 OA
ATOM     22  H   UNL     1       6.969   3.501  21.291  0.00  0.00    +0.210 HD
ENDBRANCH  16  21
BRANCH  18  23
ATOM     23  O   UNL     1       4.692   3.570  21.860  0.00  0.00    -0.384 OA
ATOM     24  H   UNL     1       3.993   4.224  21.642  0.00  0.00    +0.210 HD
ENDBRANCH  18  23
BRANCH  15  25
ATOM     25  C   UNL     1       8.976   1.949  23.176  0.00  0.00    +0.266 C 
BRANCH  25  26
ATOM     26  O   UNL     1       8.946   0.507  23.414  0.00  0.00    -0.459 OA
BRANCH  26  27
ATOM     27  C   UNL     1       8.828  -0.254  22.307  0.00  0.00    +0.332 C 
ATOM     28  O   UNL     1       9.443  -0.061  21.265  0.00  0.00    -0.246 OA
BRANCH  27  29
ATOM     29  C   UNL     1       7.897  -1.406  22.399  0.00  0.00    +0.092 C 
ATOM     30  C   UNL     1       7.943  -2.642  21.860  0.00  0.00    +0.015 C 
BRANCH  30  31
ATOM     31  C   UNL     1       6.941  -3.667  22.238  0.00  0.00    -0.025 A 
ATOM     32  C   UNL     1       7.265  -5.039  22.184  0.00  0.00    +0.011 A 
ATOM     33  C   UNL     1       6.344  -6.017  22.569  0.00  0.00    +0.046 A 
ATOM     34  C   UNL     1       5.075  -5.635  22.976  0.00  0.00    +0.117 A 
ATOM     35  C   UNL     1       4.708  -4.294  22.985  0.00  0.00    +0.046 A 
ATOM     36  C   UNL     1       5.640  -3.307  22.615  0.00  0.00    +0.011 A 
BRANCH  34  37
ATOM     37  O   UNL     1       4.217  -6.626  23.360  0.00  0.00    -0.507 OA
ATOM     38  H   UNL     1       3.397  -6.549  22.846  0.00  0.00    +0.292 HD
ENDBRANCH  34  37
ENDBRANCH  30  31
ENDBRANCH  27  29
ENDBRANCH  26  27
ENDBRANCH  25  26
ENDBRANCH  15  25
ENDBRANCH  12  13
ENDBRANCH   5  12
BRANCH   4  39
ATOM     39  O   UNL     1       5.551  -0.470  25.737  0.00  0.00    -0.453 OA
BRANCH  39  40
ATOM     40  C   UNL     1       4.868  -1.499  26.388  0.00  0.00    +0.214 A 
ATOM     41  C   UNL     1       3.581  -1.147  27.110  0.00  0.00    +0.238 A 
ATOM     42  O   UNL     1       3.242   0.024  27.250  0.00  0.00    -0.283 OA
ATOM     43  C   UNL     1       2.777  -2.228  27.698  0.00  0.00    +0.109 A 
ATOM     44  C   UNL     1       3.357  -3.481  27.747  0.00  0.00    +0.147 A 
ATOM     45  C   UNL     1       2.692  -4.559  28.348  0.00  0.00    +0.092 A 
ATOM     46  C   UNL     1       1.422  -4.370  28.881  0.00  0.00    +0.124 A 
ATOM     47  C   UNL     1       0.816  -3.121  28.834  0.00  0.00    +0.091 A 
ATOM     48  O   UNL     1       4.592  -3.740  27.235  0.00  0.00    -0.451 OA
ATOM     49  C   UNL     1       1.495  -2.050  28.247  0.00  0.00    +0.135 A 
ATOM     50  C   UNL     1       5.338  -2.772  26.544  0.00  0.00    +0.181 A 
BRANCH  50  51
ATOM     51  C   UNL     1       6.665  -3.416  26.121  0.00  0.00    +0.025 A 
ATOM     52  C   UNL     1       6.800  -4.830  26.321  0.00  0.00    +0.015 A 
ATOM     53  C   UNL     1       7.961  -5.557  26.032  0.00  0.00    +0.050 A 
ATOM     54  C   UNL     1       9.045  -4.892  25.512  0.00  0.00    +0.158 A 
ATOM     55  C   UNL     1       8.953  -3.531  25.263  0.00  0.00    +0.159 A 
ATOM     56  C   UNL     1       7.788  -2.783  25.557  0.00  0.00    +0.060 A 
BRANCH  55  57
ATOM     57  O   UNL     1      10.072  -2.955  24.695  0.00  0.00    -0.503 OA
ATOM     58  H   UNL     1      10.025  -3.061  23.734  0.00  0.00    +0.292 HD
ENDBRANCH  55  57
BRANCH  54  59
ATOM     59  O   UNL     1      10.170  -5.605  25.235  0.00  0.00    -0.503 OA
ATOM     60  H   UNL     1       9.861  -6.406  24.746  0.00  0.00    +0.292 HD
ENDBRANCH  54  59
ENDBRANCH  50  51
BRANCH  49  61
ATOM     61  O   UNL     1       0.870  -0.835  28.205  0.00  0.00    -0.506 OA
ATOM     62  H   UNL     1       0.918  -0.408  29.077  0.00  0.00    +0.292 HD
ENDBRANCH  49  61
BRANCH  46  63
ATOM     63  O   UNL     1       0.722  -5.385  29.459  0.00  0.00    -0.507 OA
ATOM     64  H   UNL     1      -0.115  -5.518  28.982  0.00  0.00    +0.292 HD
ENDBRANCH  46  63
ENDBRANCH  39  40
ENDBRANCH   4  39
TORSDOF 20
ENDMDL
MODEL 5
REMARK VINA RESULT:      -6.5      2.095      4.663
REMARK  Name = 
REMARK  21 active torsions:
REMARK  status: ('A' for Active; 'I' for Inactive)
REMARK    1  A    between atoms: C_1  and  C_2
REMARK    2  A    between atoms: C_3  and  O_60
REMARK    3  A    between atoms: C_5  and  O_59
REMARK    4  A    between atoms: C_6  and  O_33
REMARK    5  A    between atoms: C_8  and  O_11
REMARK    6  A    between atoms: O_11  and  C_12
REMARK    7  A    between atoms: C_13  and  C_25
REMARK    8  A    between atoms: C_17  and  O_24
REMARK    9  A    between atoms: C_19  and  O_23
REMARK   10  A    between atoms: C_27  and  O_32
REMARK   11  A    between atoms: C_28  and  O_31
REMARK   12  A    between atoms: O_33  and  C_34
REMARK   13  A    between atoms: C_36  and  O_58
REMARK   14  A    between atoms: C_38  and  O_57
REMARK   15  A    between atoms: C_39  and  O_56
REMARK   16  A    between atoms: C_41  and  C_43
REMARK   17  A    between atoms: C_43  and  O_44
REMARK   18  A    between atoms: O_44  and  C_45
REMARK   19  A    between atoms: C_45  and  C_47
REMARK   20  A    between atoms: C_48  and  C_49
REMARK   21  A    between atoms: C_52  and  O_55
REMARK                            x       y       z     vdW  Elec       q    Type
REMARK                         _______ _______ _______ _____ _____    ______ ____
ROOT
ATOM      1  C   UNL     1      10.858  -1.693  22.778  0.00  0.00    +0.041 C 
ATOM      2  C   UNL     1      10.015  -0.873  23.749  0.00  0.00    +0.150 C 
ATOM      3  O   UNL     1       8.606  -1.148  23.770  0.00  0.00    -0.334 OA
ATOM      4  C   UNL     1       7.653  -0.406  22.954  0.00  0.00    +0.340 C 
ATOM      5  C   UNL     1       8.059   1.083  22.435  0.00  0.00    +0.221 C 
ATOM      6  C   UNL     1       9.571   1.026  22.257  0.00  0.00    +0.180 C 
ATOM      7  C   UNL     1      10.246   0.605  23.596  0.00  0.00    +0.174 C 
ENDROOT
BRANCH   6   8
ATOM      8  O   UNL     1      10.199   2.125  21.614  0.00  0.00    -0.386 OA
ATOM      9  H   UNL     1      11.074   2.308  22.010  0.00  0.00    +0.210 HD
ENDBRANCH   6   8
BRANCH   7  10
ATOM     10  O   UNL     1       9.665   1.091  24.828  0.00  0.00    -0.387 OA
ATOM     11  H   UNL     1       9.874   0.456  25.544  0.00  0.00    +0.210 HD
ENDBRANCH   7  10
BRANCH   5  12
ATOM     12  O   UNL     1       7.658   2.150  23.347  0.00  0.00    -0.337 OA
BRANCH  12  13
ATOM     13  C   UNL     1       8.035   3.517  23.000  0.00  0.00    +0.282 C 
ATOM     14  O   UNL     1       8.161   4.394  24.156  0.00  0.00    -0.339 OA
ATOM     15  C   UNL     1       6.960   4.417  24.961  0.00  0.00    +0.190 C 
ATOM     16  C   UNL     1       5.730   4.901  24.194  0.00  0.00    +0.178 C 
ATOM     17  C   UNL     1       5.625   4.161  22.841  0.00  0.00    +0.179 C 
ATOM     18  C   UNL     1       6.962   4.155  22.080  0.00  0.00    +0.201 C 
BRANCH  17  19
ATOM     19  O   UNL     1       4.590   4.764  22.058  0.00  0.00    -0.386 OA
ATOM     20  H   UNL     1       3.846   4.133  22.084  0.00  0.00    +0.210 HD
ENDBRANCH  17  19
BRANCH  16  21
ATOM     21  O   UNL     1       5.789   6.308  23.945  0.00  0.00    -0.386 OA
ATOM     22  H   UNL     1       5.475   6.413  23.022  0.00  0.00    +0.210 HD
ENDBRANCH  16  21
BRANCH  18  23
ATOM     23  O   UNL     1       7.324   5.497  21.694  0.00  0.00    -0.384 OA
ATOM     24  H   UNL     1       7.846   5.431  20.865  0.00  0.00    +0.210 HD
ENDBRANCH  18  23
BRANCH  15  25
ATOM     25  C   UNL     1       7.211   4.879  26.419  0.00  0.00    +0.266 C 
BRANCH  25  26
ATOM     26  O   UNL     1       6.315   5.950  26.853  0.00  0.00    -0.459 OA
BRANCH  26  27
ATOM     27  C   UNL     1       5.791   5.794  28.085  0.00  0.00    +0.332 C 
ATOM     28  O   UNL     1       6.124   6.446  29.067  0.00  0.00    -0.246 OA
BRANCH  27  29
ATOM     29  C   UNL     1       4.729   4.767  28.221  0.00  0.00    +0.092 C 
ATOM     30  C   UNL     1       3.875   4.235  27.322  0.00  0.00    +0.015 C 
BRANCH  30  31
ATOM     31  C   UNL     1       2.999   3.098  27.694  0.00  0.00    -0.025 A 
ATOM     32  C   UNL     1       2.417   3.033  28.977  0.00  0.00    +0.011 A 
ATOM     33  C   UNL     1       1.563   1.986  29.333  0.00  0.00    +0.046 A 
ATOM     34  C   UNL     1       1.310   0.972  28.422  0.00  0.00    +0.117 A 
ATOM     35  C   UNL     1       1.914   0.980  27.170  0.00  0.00    +0.046 A 
ATOM     36  C   UNL     1       2.761   2.042  26.803  0.00  0.00    +0.011 A 
BRANCH  34  37
ATOM     37  O   UNL     1       0.454  -0.018  28.810  0.00  0.00    -0.507 OA
ATOM     38  H   UNL     1       0.345  -0.645  28.077  0.00  0.00    +0.292 HD
ENDBRANCH  34  37
ENDBRANCH  30  31
ENDBRANCH  27  29
ENDBRANCH  26  27
ENDBRANCH  25  26
ENDBRANCH  15  25
ENDBRANCH  12  13
ENDBRANCH   5  12
BRANCH   4  39
ATOM     39  O   UNL     1       6.410  -0.372  23.733  0.00  0.00    -0.453 OA
BRANCH  39  40
ATOM     40  C   UNL     1       5.958  -1.548  24.332  0.00  0.00    +0.214 A 
ATOM     41  C   UNL     1       5.606  -2.713  23.426  0.00  0.00    +0.238 A 
ATOM     42  O   UNL     1       5.569  -2.569  22.207  0.00  0.00    -0.283 OA
ATOM     43  C   UNL     1       5.246  -4.004  24.032  0.00  0.00    +0.109 A 
ATOM     44  C   UNL     1       5.037  -4.013  25.398  0.00  0.00    +0.147 A 
ATOM     45  C   UNL     1       4.627  -5.182  26.054  0.00  0.00    +0.092 A 
ATOM     46  C   UNL     1       4.452  -6.353  25.325  0.00  0.00    +0.124 A 
ATOM     47  C   UNL     1       4.667  -6.367  23.953  0.00  0.00    +0.091 A 
ATOM     48  O   UNL     1       5.200  -2.907  26.175  0.00  0.00    -0.451 OA
ATOM     49  C   UNL     1       5.059  -5.193  23.306  0.00  0.00    +0.135 A 
ATOM     50  C   UNL     1       5.675  -1.689  25.660  0.00  0.00    +0.181 A 
BRANCH  50  51
ATOM     51  C   UNL     1       5.725  -0.681  26.816  0.00  0.00    +0.025 A 
ATOM     52  C   UNL     1       6.627   0.426  26.681  0.00  0.00    +0.015 A 
ATOM     53  C   UNL     1       6.823   1.404  27.664  0.00  0.00    +0.050 A 
ATOM     54  C   UNL     1       6.106   1.320  28.833  0.00  0.00    +0.158 A 
ATOM     55  C   UNL     1       5.192   0.290  28.997  0.00  0.00    +0.159 A 
ATOM     56  C   UNL     1       4.988  -0.708  28.014  0.00  0.00    +0.060 A 
BRANCH  55  57
ATOM     57  O   UNL     1       4.481   0.311  30.181  0.00  0.00    -0.503 OA
ATOM     58  H   UNL     1       3.591   0.648  30.005  0.00  0.00    +0.292 HD
ENDBRANCH  55  57
BRANCH  54  59
ATOM     59  O   UNL     1       6.304   2.272  29.783  0.00  0.00    -0.503 OA
ATOM     60  H   UNL     1       7.148   2.025  30.232  0.00  0.00    +0.292 HD
ENDBRANCH  54  59
ENDBRANCH  50  51
BRANCH  49  61
ATOM     61  O   UNL     1       5.273  -5.238  21.958  0.00  0.00    -0.506 OA
ATOM     62  H   UNL     1       4.879  -4.457  21.533  0.00  0.00    +0.292 HD
ENDBRANCH  49  61
BRANCH  46  63
ATOM     63  O   UNL     1       4.075  -7.522  25.913  0.00  0.00    -0.507 OA
ATOM     64  H   UNL     1       3.764  -7.347  26.817  0.00  0.00    +0.292 HD
ENDBRANCH  46  63
ENDBRANCH  39  40
ENDBRANCH   4  39
TORSDOF 20
ENDMDL
MODEL 6
REMARK VINA RESULT:      -6.5      2.316      4.743
REMARK  Name = 
REMARK  21 active torsions:
REMARK  status: ('A' for Active; 'I' for Inactive)
REMARK    1  A    between atoms: C_1  and  C_2
REMARK    2  A    between atoms: C_3  and  O_60
REMARK    3  A    between atoms: C_5  and  O_59
REMARK    4  A    between atoms: C_6  and  O_33
REMARK    5  A    between atoms: C_8  and  O_11
REMARK    6  A    between atoms: O_11  and  C_12
REMARK    7  A    between atoms: C_13  and  C_25
REMARK    8  A    between atoms: C_17  and  O_24
REMARK    9  A    between atoms: C_19  and  O_23
REMARK   10  A    between atoms: C_27  and  O_32
REMARK   11  A    between atoms: C_28  and  O_31
REMARK   12  A    between atoms: O_33  and  C_34
REMARK   13  A    between atoms: C_36  and  O_58
REMARK   14  A    between atoms: C_38  and  O_57
REMARK   15  A    between atoms: C_39  and  O_56
REMARK   16  A    between atoms: C_41  and  C_43
REMARK   17  A    between atoms: C_43  and  O_44
REMARK   18  A    between atoms: O_44  and  C_45
REMARK   19  A    between atoms: C_45  and  C_47
REMARK   20  A    between atoms: C_48  and  C_49
REMARK   21  A    between atoms: C_52  and  O_55
REMARK                            x       y       z     vdW  Elec       q    Type
REMARK                         _______ _______ _______ _____ _____    ______ ____
ROOT
ATOM      1  C   UNL     1       8.448  -0.942  22.485  0.00  0.00    +0.041 C 
ATOM      2  C   UNL     1       8.586  -0.367  23.891  0.00  0.00    +0.150 C 
ATOM      3  O   UNL     1       7.803  -0.988  24.921  0.00  0.00    -0.334 OA
ATOM      4  C   UNL     1       6.478  -0.505  25.295  0.00  0.00    +0.340 C 
ATOM      5  C   UNL     1       6.088   1.042  24.967  0.00  0.00    +0.221 C 
ATOM      6  C   UNL     1       6.860   1.369  23.694  0.00  0.00    +0.180 C 
ATOM      7  C   UNL     1       8.381   1.123  23.919  0.00  0.00    +0.174 C 
ENDROOT
BRANCH   6   8
ATOM      8  O   UNL     1       6.563   2.595  23.041  0.00  0.00    -0.386 OA
ATOM      9  H   UNL     1       5.597   2.718  22.956  0.00  0.00    +0.210 HD
ENDBRANCH   6   8
BRANCH   7  10
ATOM     10  O   UNL     1       8.932   1.440  25.219  0.00  0.00    -0.387 OA
ATOM     11  H   UNL     1       8.890   0.638  25.780  0.00  0.00    +0.210 HD
ENDBRANCH   7  10
BRANCH   5  12
ATOM     12  O   UNL     1       6.407   1.968  26.049  0.00  0.00    -0.337 OA
BRANCH  12  13
ATOM     13  C   UNL     1       5.295   2.545  26.798  0.00  0.00    +0.282 C 
ATOM     14  O   UNL     1       4.610   3.614  26.083  0.00  0.00    -0.339 OA
ATOM     15  C   UNL     1       5.512   4.668  25.675  0.00  0.00    +0.190 C 
ATOM     16  C   UNL     1       6.229   5.335  26.849  0.00  0.00    +0.178 C 
ATOM     17  C   UNL     1       6.824   4.258  27.785  0.00  0.00    +0.179 C 
ATOM     18  C   UNL     1       5.801   3.161  28.127  0.00  0.00    +0.201 C 
BRANCH  17  19
ATOM     19  O   UNL     1       7.315   4.892  28.971  0.00  0.00    -0.386 OA
ATOM     20  H   UNL     1       6.593   4.814  29.623  0.00  0.00    +0.210 HD
ENDBRANCH  17  19
BRANCH  16  21
ATOM     21  O   UNL     1       5.340   6.162  27.604  0.00  0.00    -0.386 OA
ATOM     22  H   UNL     1       4.626   6.400  26.976  0.00  0.00    +0.210 HD
ENDBRANCH  16  21
BRANCH  18  23
ATOM     23  O   UNL     1       4.717   3.711  28.905  0.00  0.00    -0.384 OA
ATOM     24  H   UNL     1       5.002   4.598  29.215  0.00  0.00    +0.210 HD
ENDBRANCH  18  23
BRANCH  15  25
ATOM     25  C   UNL     1       4.965   5.519  24.501  0.00  0.00    +0.266 C 
BRANCH  25  26
ATOM     26  O   UNL     1       5.564   5.183  23.210  0.00  0.00    -0.459 OA
BRANCH  26  27
ATOM     27  C   UNL     1       6.329   6.150  22.664  0.00  0.00    +0.332 C 
ATOM     28  O   UNL     1       5.892   7.108  22.038  0.00  0.00    -0.246 OA
BRANCH  27  29
ATOM     29  C   UNL     1       7.792   6.024  22.872  0.00  0.00    +0.092 C 
ATOM     30  C   UNL     1       8.515   5.584  23.923  0.00  0.00    +0.015 C 
BRANCH  30  31
ATOM     31  C   UNL     1       9.984   5.419  23.812  0.00  0.00    -0.025 A 
ATOM     32  C   UNL     1      10.535   4.207  23.344  0.00  0.00    +0.011 A 
ATOM     33  C   UNL     1      11.916   4.046  23.202  0.00  0.00    +0.046 A 
ATOM     34  C   UNL     1      12.764   5.083  23.562  0.00  0.00    +0.117 A 
ATOM     35  C   UNL     1      12.253   6.267  24.079  0.00  0.00    +0.046 A 
ATOM     36  C   UNL     1      10.862   6.438  24.207  0.00  0.00    +0.011 A 
BRANCH  34  37
ATOM     37  O   UNL     1      14.103   4.883  23.386  0.00  0.00    -0.507 OA
ATOM     38  H   UNL     1      14.422   5.482  22.691  0.00  0.00    +0.292 HD
ENDBRANCH  34  37
ENDBRANCH  30  31
ENDBRANCH  27  29
ENDBRANCH  26  27
ENDBRANCH  25  26
ENDBRANCH  15  25
ENDBRANCH  12  13
ENDBRANCH   5  12
BRANCH   4  39
ATOM     39  O   UNL     1       6.345  -0.789  26.727  0.00  0.00    -0.453 OA
BRANCH  39  40
ATOM     40  C   UNL     1       5.419  -1.749  27.140  0.00  0.00    +0.214 A 
ATOM     41  C   UNL     1       4.312  -1.306  28.078  0.00  0.00    +0.238 A 
ATOM     42  O   UNL     1       4.326  -0.185  28.578  0.00  0.00    -0.283 OA
ATOM     43  C   UNL     1       3.252  -2.263  28.431  0.00  0.00    +0.109 A 
ATOM     44  C   UNL     1       3.452  -3.578  28.059  0.00  0.00    +0.147 A 
ATOM     45  C   UNL     1       2.528  -4.573  28.410  0.00  0.00    +0.092 A 
ATOM     46  C   UNL     1       1.384  -4.226  29.119  0.00  0.00    +0.124 A 
ATOM     47  C   UNL     1       1.159  -2.908  29.494  0.00  0.00    +0.091 A 
ATOM     48  O   UNL     1       4.544  -3.986  27.354  0.00  0.00    -0.451 OA
ATOM     49  C   UNL     1       2.095  -1.927  29.154  0.00  0.00    +0.135 A 
ATOM     50  C   UNL     1       5.511  -3.086  26.878  0.00  0.00    +0.181 A 
BRANCH  50  51
ATOM     51  C   UNL     1       6.583  -3.899  26.139  0.00  0.00    +0.025 A 
ATOM     52  C   UNL     1       7.778  -4.218  26.864  0.00  0.00    +0.015 A 
ATOM     53  C   UNL     1       8.866  -4.910  26.318  0.00  0.00    +0.050 A 
ATOM     54  C   UNL     1       8.796  -5.329  25.011  0.00  0.00    +0.158 A 
ATOM     55  C   UNL     1       7.645  -5.079  24.279  0.00  0.00    +0.159 A 
ATOM     56  C   UNL     1       6.541  -4.375  24.816  0.00  0.00    +0.060 A 
BRANCH  55  57
ATOM     57  O   UNL     1       7.643  -5.577  22.991  0.00  0.00    -0.503 OA
ATOM     58  H   UNL     1       6.729  -5.751  22.725  0.00  0.00    +0.292 HD
ENDBRANCH  55  57
BRANCH  54  59
ATOM     59  O   UNL     1       9.857  -5.999  24.488  0.00  0.00    -0.503 OA
ATOM     60  H   UNL     1       9.604  -6.954  24.513  0.00  0.00    +0.292 HD
ENDBRANCH  54  59
ENDBRANCH  50  51
BRANCH  49  61
ATOM     61  O   UNL     1       1.843  -0.637  29.527  0.00  0.00    -0.506 OA
ATOM     62  H   UNL     1       0.922  -0.406  29.315  0.00  0.00    +0.292 HD
ENDBRANCH  49  61
BRANCH  46  63
ATOM     63  O   UNL     1       0.443  -5.146  29.470  0.00  0.00    -0.507 OA
ATOM     64  H   UNL     1       0.863  -6.017  29.578  0.00  0.00    +0.292 HD
ENDBRANCH  46  63
ENDBRANCH  39  40
ENDBRANCH   4  39
TORSDOF 20
ENDMDL
MODEL 7
REMARK VINA RESULT:      -6.5      1.898      8.406
REMARK  Name = 
REMARK  21 active torsions:
REMARK  status: ('A' for Active; 'I' for Inactive)
REMARK    1  A    between atoms: C_1  and  C_2
REMARK    2  A    between atoms: C_3  and  O_60
REMARK    3  A    between atoms: C_5  and  O_59
REMARK    4  A    between atoms: C_6  and  O_33
REMARK    5  A    between atoms: C_8  and  O_11
REMARK    6  A    between atoms: O_11  and  C_12
REMARK    7  A    between atoms: C_13  and  C_25
REMARK    8  A    between atoms: C_17  and  O_24
REMARK    9  A    between atoms: C_19  and  O_23
REMARK   10  A    between atoms: C_27  and  O_32
REMARK   11  A    between atoms: C_28  and  O_31
REMARK   12  A    between atoms: O_33  and  C_34
REMARK   13  A    between atoms: C_36  and  O_58
REMARK   14  A    between atoms: C_38  and  O_57
REMARK   15  A    between atoms: C_39  and  O_56
REMARK   16  A    between atoms: C_41  and  C_43
REMARK   17  A    between atoms: C_43  and  O_44
REMARK   18  A    between atoms: O_44  and  C_45
REMARK   19  A    between atoms: C_45  and  C_47
REMARK   20  A    between atoms: C_48  and  C_49
REMARK   21  A    between atoms: C_52  and  O_55
REMARK                            x       y       z     vdW  Elec       q    Type
REMARK                         _______ _______ _______ _____ _____    ______ ____
ROOT
ATOM      1  C   UNL     1       9.507   0.102  21.731  0.00  0.00    +0.041 C 
ATOM      2  C   UNL     1       8.222   0.378  22.504  0.00  0.00    +0.150 C 
ATOM      3  O   UNL     1       8.217   1.534  23.356  0.00  0.00    -0.334 OA
ATOM      4  C   UNL     1       8.570   1.464  24.769  0.00  0.00    +0.340 C 
ATOM      5  C   UNL     1       8.434   0.035  25.540  0.00  0.00    +0.221 C 
ATOM      6  C   UNL     1       8.729  -1.006  24.467  0.00  0.00    +0.180 C 
ATOM      7  C   UNL     1       7.748  -0.826  23.271  0.00  0.00    +0.174 C 
ENDROOT
BRANCH   6   8
ATOM      8  O   UNL     1       8.888  -2.354  24.886  0.00  0.00    -0.386 OA
ATOM      9  H   UNL     1       8.094  -2.666  25.365  0.00  0.00    +0.210 HD
ENDBRANCH   6   8
BRANCH   7  10
ATOM     10  O   UNL     1       6.388  -0.432  23.565  0.00  0.00    -0.387 OA
ATOM     11  H   UNL     1       5.780  -1.102  23.187  0.00  0.00    +0.210 HD
ENDBRANCH   7  10
BRANCH   5  12
ATOM     12  O   UNL     1       7.129  -0.174  26.159  0.00  0.00    -0.337 OA
BRANCH  12  13
ATOM     13  C   UNL     1       7.087  -0.362  27.606  0.00  0.00    +0.282 C 
ATOM     14  O   UNL     1       5.742  -0.584  28.121  0.00  0.00    -0.339 OA
ATOM     15  C   UNL     1       4.830   0.474  27.747  0.00  0.00    +0.190 C 
ATOM     16  C   UNL     1       5.258   1.848  28.260  0.00  0.00    +0.178 C 
ATOM     17  C   UNL     1       6.749   2.093  27.933  0.00  0.00    +0.179 C 
ATOM     18  C   UNL     1       7.631   0.897  28.330  0.00  0.00    +0.201 C 
BRANCH  17  19
ATOM     19  O   UNL     1       7.179   3.290  28.590  0.00  0.00    -0.386 OA
ATOM     20  H   UNL     1       7.794   3.720  27.965  0.00  0.00    +0.210 HD
ENDBRANCH  17  19
BRANCH  16  21
ATOM     21  O   UNL     1       5.071   1.961  29.673  0.00  0.00    -0.386 OA
ATOM     22  H   UNL     1       4.210   1.526  29.847  0.00  0.00    +0.210 HD
ENDBRANCH  16  21
BRANCH  18  23
ATOM     23  O   UNL     1       7.631   0.727  29.762  0.00  0.00    -0.384 OA
ATOM     24  H   UNL     1       6.829   0.211  29.995  0.00  0.00    +0.210 HD
ENDBRANCH  18  23
BRANCH  15  25
ATOM     25  C   UNL     1       3.342   0.043  27.799  0.00  0.00    +0.266 C 
BRANCH  25  26
ATOM     26  O   UNL     1       2.921  -0.741  26.639  0.00  0.00    -0.459 OA
BRANCH  26  27
ATOM     27  C   UNL     1       3.117  -2.071  26.744  0.00  0.00    +0.332 C 
ATOM     28  O   UNL     1       2.686  -2.764  27.657  0.00  0.00    -0.246 OA
BRANCH  27  29
ATOM     29  C   UNL     1       3.896  -2.707  25.653  0.00  0.00    +0.092 C 
ATOM     30  C   UNL     1       5.197  -3.051  25.561  0.00  0.00    +0.015 C 
BRANCH  30  31
ATOM     31  C   UNL     1       5.694  -3.821  24.397  0.00  0.00    -0.025 A 
ATOM     32  C   UNL     1       5.138  -3.620  23.116  0.00  0.00    +0.011 A 
ATOM     33  C   UNL     1       5.617  -4.314  22.001  0.00  0.00    +0.046 A 
ATOM     34  C   UNL     1       6.633  -5.244  22.162  0.00  0.00    +0.117 A 
ATOM     35  C   UNL     1       7.161  -5.504  23.421  0.00  0.00    +0.046 A 
ATOM     36  C   UNL     1       6.692  -4.795  24.542  0.00  0.00    +0.011 A 
BRANCH  34  37
ATOM     37  O   UNL     1       7.079  -5.882  21.039  0.00  0.00    -0.507 OA
ATOM     38  H   UNL     1       7.781  -6.505  21.290  0.00  0.00    +0.292 HD
ENDBRANCH  34  37
ENDBRANCH  30  31
ENDBRANCH  27  29
ENDBRANCH  26  27
ENDBRANCH  25  26
ENDBRANCH  15  25
ENDBRANCH  12  13
ENDBRANCH   5  12
BRANCH   4  39
ATOM     39  O   UNL     1       7.763   2.496  25.428  0.00  0.00    -0.453 OA
BRANCH  39  40
ATOM     40  C   UNL     1       7.107   3.443  24.640  0.00  0.00    +0.214 A 
ATOM     41  C   UNL     1       5.694   3.128  24.186  0.00  0.00    +0.238 A 
ATOM     42  O   UNL     1       5.210   2.015  24.372  0.00  0.00    -0.283 OA
ATOM     43  C   UNL     1       4.933   4.157  23.460  0.00  0.00    +0.109 A 
ATOM     44  C   UNL     1       5.634   5.272  23.044  0.00  0.00    +0.147 A 
ATOM     45  C   UNL     1       5.008   6.274  22.290  0.00  0.00    +0.092 A 
ATOM     46  C   UNL     1       3.659   6.156  21.978  0.00  0.00    +0.124 A 
ATOM     47  C   UNL     1       2.933   5.048  22.395  0.00  0.00    +0.091 A 
ATOM     48  O   UNL     1       6.954   5.458  23.324  0.00  0.00    -0.451 OA
ATOM     49  C   UNL     1       3.571   4.047  23.132  0.00  0.00    +0.135 A 
ATOM     50  C   UNL     1       7.685   4.570  24.129  0.00  0.00    +0.181 A 
BRANCH  50  51
ATOM     51  C   UNL     1       9.124   5.096  24.219  0.00  0.00    +0.025 A 
ATOM     52  C   UNL     1       9.364   6.198  25.103  0.00  0.00    +0.015 A 
ATOM     53  C   UNL     1      10.609   6.820  25.263  0.00  0.00    +0.050 A 
ATOM     54  C   UNL     1      11.680   6.350  24.543  0.00  0.00    +0.158 A 
ATOM     55  C   UNL     1      11.509   5.261  23.702  0.00  0.00    +0.159 A 
ATOM     56  C   UNL     1      10.256   4.627  23.527  0.00  0.00    +0.060 A 
BRANCH  55  57
ATOM     57  O   UNL     1      12.650   4.826  23.056  0.00  0.00    -0.503 OA
ATOM     58  H   UNL     1      12.430   4.046  22.526  0.00  0.00    +0.292 HD
ENDBRANCH  55  57
BRANCH  54  59
ATOM     59  O   UNL     1      12.885   6.961  24.702  0.00  0.00    -0.503 OA
ATOM     60  H   UNL     1      13.559   6.246  24.597  0.00  0.00    +0.292 HD
ENDBRANCH  54  59
ENDBRANCH  50  51
BRANCH  49  61
ATOM     61  O   UNL     1       2.830   2.973  23.539  0.00  0.00    -0.506 OA
ATOM     62  H   UNL     1       3.355   2.417  24.139  0.00  0.00    +0.292 HD
ENDBRANCH  49  61
BRANCH  46  63
ATOM     63  O   UNL     1       2.995   7.108  21.265  0.00  0.00    -0.507 OA
ATOM     64  H   UNL     1       2.384   7.586  21.850  0.00  0.00    +0.292 HD
ENDBRANCH  46  63
ENDBRANCH  39  40
ENDBRANCH   4  39
TORSDOF 20
ENDMDL
MODEL 8
REMARK VINA RESULT:      -6.4      2.041      4.541
REMARK  Name = 
REMARK  21 active torsions:
REMARK  status: ('A' for Active; 'I' for Inactive)
REMARK    1  A    between atoms: C_1  and  C_2
REMARK    2  A    between atoms: C_3  and  O_60
REMARK    3  A    between atoms: C_5  and  O_59
REMARK    4  A    between atoms: C_6  and  O_33
REMARK    5  A    between atoms: C_8  and  O_11
REMARK    6  A    between atoms: O_11  and  C_12
REMARK    7  A    between atoms: C_13  and  C_25
REMARK    8  A    between atoms: C_17  and  O_24
REMARK    9  A    between atoms: C_19  and  O_23
REMARK   10  A    between atoms: C_27  and  O_32
REMARK   11  A    between atoms: C_28  and  O_31
REMARK   12  A    between atoms: O_33  and  C_34
REMARK   13  A    between atoms: C_36  and  O_58
REMARK   14  A    between atoms: C_38  and  O_57
REMARK   15  A    between atoms: C_39  and  O_56
REMARK   16  A    between atoms: C_41  and  C_43
REMARK   17  A    between atoms: C_43  and  O_44
REMARK   18  A    between atoms: O_44  and  C_45
REMARK   19  A    between atoms: C_45  and  C_47
REMARK   20  A    between atoms: C_48  and  C_49
REMARK   21  A    between atoms: C_52  and  O_55
REMARK                            x       y       z     vdW  Elec       q    Type
REMARK                         _______ _______ _______ _____ _____    ______ ____
ROOT
ATOM      1  C   UNL     1      10.873  -1.610  22.627  0.00  0.00    +0.041 C 
ATOM      2  C   UNL     1      10.008  -0.990  23.720  0.00  0.00    +0.150 C 
ATOM      3  O   UNL     1       8.588  -1.143  23.583  0.00  0.00    -0.334 OA
ATOM      4  C   UNL     1       7.755  -0.144  22.924  0.00  0.00    +0.340 C 
ATOM      5  C   UNL     1       8.298   1.389  22.828  0.00  0.00    +0.221 C 
ATOM      6  C   UNL     1       9.813   1.250  22.736  0.00  0.00    +0.180 C 
ATOM      7  C   UNL     1      10.348   0.455  23.963  0.00  0.00    +0.174 C 
ENDROOT
BRANCH   6   8
ATOM      8  O   UNL     1      10.562   2.419  22.434  0.00  0.00    -0.386 OA
ATOM      9  H   UNL     1      10.002   3.087  21.993  0.00  0.00    +0.210 HD
ENDBRANCH   6   8
BRANCH   7  10
ATOM     10  O   UNL     1       9.701   0.666  25.239  0.00  0.00    -0.387 OA
ATOM     11  H   UNL     1      10.359   1.031  25.867  0.00  0.00    +0.210 HD
ENDBRANCH   7  10
BRANCH   5  12
ATOM     12  O   UNL     1       7.895   2.224  23.954  0.00  0.00    -0.337 OA
BRANCH  12  13
ATOM     13  C   UNL     1       8.512   3.541  24.076  0.00  0.00    +0.282 C 
ATOM     14  O   UNL     1       8.133   4.247  25.294  0.00  0.00    -0.339 OA
ATOM     15  C   UNL     1       6.699   4.373  25.431  0.00  0.00    +0.190 C 
ATOM     16  C   UNL     1       6.049   5.138  24.279  0.00  0.00    +0.178 C 
ATOM     17  C   UNL     1       6.554   4.586  22.927  0.00  0.00    +0.179 C 
ATOM     18  C   UNL     1       8.086   4.449  22.894  0.00  0.00    +0.201 C 
BRANCH  17  19
ATOM     19  O   UNL     1       6.090   5.437  21.873  0.00  0.00    -0.386 OA
ATOM     20  H   UNL     1       6.877   5.622  21.325  0.00  0.00    +0.210 HD
ENDBRANCH  17  19
BRANCH  16  21
ATOM     21  O   UNL     1       6.345   6.536  24.345  0.00  0.00    -0.386 OA
ATOM     22  H   UNL     1       7.127   6.653  23.764  0.00  0.00    +0.210 HD
ENDBRANCH  16  21
BRANCH  18  23
ATOM     23  O   UNL     1       8.707   5.749  22.971  0.00  0.00    -0.384 OA
ATOM     24  H   UNL     1       8.525   6.106  23.867  0.00  0.00    +0.210 HD
ENDBRANCH  18  23
BRANCH  15  25
ATOM     25  C   UNL     1       6.246   4.617  26.893  0.00  0.00    +0.266 C 
BRANCH  25  26
ATOM     26  O   UNL     1       4.993   5.362  26.998  0.00  0.00    -0.459 OA
BRANCH  26  27
ATOM     27  C   UNL     1       3.896   4.611  27.226  0.00  0.00    +0.332 C 
ATOM     28  O   UNL     1       3.454   4.352  28.339  0.00  0.00    -0.246 OA
BRANCH  27  29
ATOM     29  C   UNL     1       3.193   4.097  26.025  0.00  0.00    +0.092 C 
ATOM     30  C   UNL     1       2.631   4.729  24.974  0.00  0.00    +0.015 C 
BRANCH  30  31
ATOM     31  C   UNL     1       2.116   3.959  23.818  0.00  0.00    -0.025 A 
ATOM     32  C   UNL     1       2.812   3.958  22.591  0.00  0.00    +0.011 A 
ATOM     33  C   UNL     1       2.357   3.210  21.500  0.00  0.00    +0.046 A 
ATOM     34  C   UNL     1       1.181   2.485  21.614  0.00  0.00    +0.117 A 
ATOM     35  C   UNL     1       0.444   2.512  22.792  0.00  0.00    +0.046 A 
ATOM     36  C   UNL     1       0.909   3.250  23.896  0.00  0.00    +0.011 A 
BRANCH  34  37
ATOM     37  O   UNL     1       0.790   1.756  20.527  0.00  0.00    -0.507 OA
ATOM     38  H   UNL     1       1.568   1.317  20.147  0.00  0.00    +0.292 HD
ENDBRANCH  34  37
ENDBRANCH  30  31
ENDBRANCH  27  29
ENDBRANCH  26  27
ENDBRANCH  25  26
ENDBRANCH  15  25
ENDBRANCH  12  13
ENDBRANCH   5  12
BRANCH   4  39
ATOM     39  O   UNL     1       6.458  -0.200  23.606  0.00  0.00    -0.453 OA
BRANCH  39  40
ATOM     40  C   UNL     1       6.079  -1.387  24.236  0.00  0.00    +0.214 A 
ATOM     41  C   UNL     1       5.761  -2.583  23.358  0.00  0.00    +0.238 A 
ATOM     42  O   UNL     1       5.686  -2.462  22.138  0.00  0.00    -0.283 OA
ATOM     43  C   UNL     1       5.480  -3.879  23.994  0.00  0.00    +0.109 A 
ATOM     44  C   UNL     1       5.307  -3.875  25.365  0.00  0.00    +0.147 A 
ATOM     45  C   UNL     1       4.971  -5.051  26.050  0.00  0.00    +0.092 A 
ATOM     46  C   UNL     1       4.835  -6.241  25.344  0.00  0.00    +0.124 A 
ATOM     47  C   UNL     1       5.015  -6.269  23.967  0.00  0.00    +0.091 A 
ATOM     48  O   UNL     1       5.436  -2.749  26.119  0.00  0.00    -0.451 OA
ATOM     49  C   UNL     1       5.333  -5.087  23.292  0.00  0.00    +0.135 A 
ATOM     50  C   UNL     1       5.837  -1.519  25.573  0.00  0.00    +0.181 A 
BRANCH  50  51
ATOM     51  C   UNL     1       5.868  -0.489  26.711  0.00  0.00    +0.025 A 
ATOM     52  C   UNL     1       4.612   0.060  27.132  0.00  0.00    +0.015 A 
ATOM     53  C   UNL     1       4.476   1.041  28.122  0.00  0.00    +0.050 A 
ATOM     54  C   UNL     1       5.606   1.509  28.749  0.00  0.00    +0.158 A 
ATOM     55  C   UNL     1       6.842   0.982  28.406  0.00  0.00    +0.159 A 
ATOM     56  C   UNL     1       6.994  -0.005  27.403  0.00  0.00    +0.060 A 
BRANCH  55  57
ATOM     57  O   UNL     1       7.916   1.475  29.120  0.00  0.00    -0.503 OA
ATOM     58  H   UNL     1       8.698   1.469  28.551  0.00  0.00    +0.292 HD
ENDBRANCH  55  57
BRANCH  54  59
ATOM     59  O   UNL     1       5.466   2.462  29.708  0.00  0.00    -0.503 OA
ATOM     60  H   UNL     1       5.348   1.969  30.556  0.00  0.00    +0.292 HD
ENDBRANCH  54  59
ENDBRANCH  50  51
BRANCH  49  61
ATOM     61  O   UNL     1       5.514  -5.146  21.939  0.00  0.00    -0.506 OA
ATOM     62  H   UNL     1       6.464  -5.142  21.732  0.00  0.00    +0.292 HD
ENDBRANCH  49  61
BRANCH  46  63
ATOM     63  O   UNL     1       4.530  -7.417  25.960  0.00  0.00    -0.507 OA
ATOM     64  H   UNL     1       4.605  -8.148  25.323  0.00  0.00    +0.292 HD
ENDBRANCH  46  63
ENDBRANCH  39  40
ENDBRANCH   4  39
TORSDOF 20
ENDMDL
MODEL 9
REMARK VINA RESULT:      -6.3      2.335      8.456
REMARK  Name = 
REMARK  21 active torsions:
REMARK  status: ('A' for Active; 'I' for Inactive)
REMARK    1  A    between atoms: C_1  and  C_2
REMARK    2  A    between atoms: C_3  and  O_60
REMARK    3  A    between atoms: C_5  and  O_59
REMARK    4  A    between atoms: C_6  and  O_33
REMARK    5  A    between atoms: C_8  and  O_11
REMARK    6  A    between atoms: O_11  and  C_12
REMARK    7  A    between atoms: C_13  and  C_25
REMARK    8  A    between atoms: C_17  and  O_24
REMARK    9  A    between atoms: C_19  and  O_23
REMARK   10  A    between atoms: C_27  and  O_32
REMARK   11  A    between atoms: C_28  and  O_31
REMARK   12  A    between atoms: O_33  and  C_34
REMARK   13  A    between atoms: C_36  and  O_58
REMARK   14  A    between atoms: C_38  and  O_57
REMARK   15  A    between atoms: C_39  and  O_56
REMARK   16  A    between atoms: C_41  and  C_43
REMARK   17  A    between atoms: C_43  and  O_44
REMARK   18  A    between atoms: O_44  and  C_45
REMARK   19  A    between atoms: C_45  and  C_47
REMARK   20  A    between atoms: C_48  and  C_49
REMARK   21  A    between atoms: C_52  and  O_55
REMARK                            x       y       z     vdW  Elec       q    Type
REMARK                         _______ _______ _______ _____ _____    ______ ____
ROOT
ATOM      1  C   UNL     1       9.126   0.588  22.915  0.00  0.00    +0.041 C 
ATOM      2  C   UNL     1       7.676   0.758  23.356  0.00  0.00    +0.150 C 
ATOM      3  O   UNL     1       7.372   1.921  24.142  0.00  0.00    -0.334 OA
ATOM      4  C   UNL     1       7.385   1.903  25.600  0.00  0.00    +0.340 C 
ATOM      5  C   UNL     1       7.193   0.479  26.367  0.00  0.00    +0.221 C 
ATOM      6  C   UNL     1       7.820  -0.547  25.430  0.00  0.00    +0.180 C 
ATOM      7  C   UNL     1       7.138  -0.473  24.032  0.00  0.00    +0.174 C 
ENDROOT
BRANCH   6   8
ATOM      8  O   UNL     1       7.989  -1.869  25.922  0.00  0.00    -0.386 OA
ATOM      9  H   UNL     1       7.377  -2.486  25.477  0.00  0.00    +0.210 HD
ENDBRANCH   6   8
BRANCH   7  10
ATOM     10  O   UNL     1       5.719  -0.200  23.986  0.00  0.00    -0.387 OA
ATOM     11  H   UNL     1       5.279  -0.916  23.481  0.00  0.00    +0.210 HD
ENDBRANCH   7  10
BRANCH   5  12
ATOM     12  O   UNL     1       5.802   0.161  26.670  0.00  0.00    -0.337 OA
BRANCH  12  13
ATOM     13  C   UNL     1       5.463  -0.149  28.056  0.00  0.00    +0.282 C 
ATOM     14  O   UNL     1       4.497  -1.231  28.186  0.00  0.00    -0.339 OA
ATOM     15  C   UNL     1       3.284  -0.978  27.441  0.00  0.00    +0.190 C 
ATOM     16  C   UNL     1       2.559   0.292  27.884  0.00  0.00    +0.178 C 
ATOM     17  C   UNL     1       3.559   1.468  27.971  0.00  0.00    +0.179 C 
ATOM     18  C   UNL     1       4.832   1.087  28.747  0.00  0.00    +0.201 C 
BRANCH  17  19
ATOM     19  O   UNL     1       2.906   2.591  28.573  0.00  0.00    -0.386 OA
ATOM     20  H   UNL     1       1.998   2.585  28.213  0.00  0.00    +0.210 HD
ENDBRANCH  17  19
BRANCH  16  21
ATOM     21  O   UNL     1       1.936   0.122  29.159  0.00  0.00    -0.386 OA
ATOM     22  H   UNL     1       2.354  -0.681  29.537  0.00  0.00    +0.210 HD
ENDBRANCH  16  21
BRANCH  18  23
ATOM     23  O   UNL     1       4.516   0.820  30.129  0.00  0.00    -0.384 OA
ATOM     24  H   UNL     1       5.239   0.263  30.490  0.00  0.00    +0.210 HD
ENDBRANCH  18  23
BRANCH  15  25
ATOM     25  C   UNL     1       2.486  -2.267  27.116  0.00  0.00    +0.266 C 
BRANCH  25  26
ATOM     26  O   UNL     1       2.220  -2.443  25.690  0.00  0.00    -0.459 OA
BRANCH  26  27
ATOM     27  C   UNL     1       2.636  -3.616  25.170  0.00  0.00    +0.332 C 
ATOM     28  O   UNL     1       1.898  -4.441  24.644  0.00  0.00    -0.246 OA
BRANCH  27  29
ATOM     29  C   UNL     1       4.094  -3.884  25.239  0.00  0.00    +0.092 C 
ATOM     30  C   UNL     1       4.790  -4.937  25.715  0.00  0.00    +0.015 C 
BRANCH  30  31
ATOM     31  C   UNL     1       6.258  -5.018  25.524  0.00  0.00    -0.025 A 
ATOM     32  C   UNL     1       7.116  -5.187  26.631  0.00  0.00    +0.011 A 
ATOM     33  C   UNL     1       8.499  -5.299  26.466  0.00  0.00    +0.046 A 
ATOM     34  C   UNL     1       9.043  -5.205  25.194  0.00  0.00    +0.117 A 
ATOM     35  C   UNL     1       8.229  -4.982  24.091  0.00  0.00    +0.046 A 
ATOM     36  C   UNL     1       6.834  -4.887  24.253  0.00  0.00    +0.011 A 
BRANCH  34  37
ATOM     37  O   UNL     1      10.398  -5.340  25.084  0.00  0.00    -0.507 OA
ATOM     38  H   UNL     1      10.628  -5.445  24.146  0.00  0.00    +0.292 HD
ENDBRANCH  34  37
ENDBRANCH  30  31
ENDBRANCH  27  29
ENDBRANCH  26  27
ENDBRANCH  25  26
ENDBRANCH  15  25
ENDBRANCH  12  13
ENDBRANCH   5  12
BRANCH   4  39
ATOM     39  O   UNL     1       6.361   2.867  26.015  0.00  0.00    -0.453 OA
BRANCH  39  40
ATOM     40  C   UNL     1       5.786   3.696  25.050  0.00  0.00    +0.214 A 
ATOM     41  C   UNL     1       4.501   3.228  24.392  0.00  0.00    +0.238 A 
ATOM     42  O   UNL     1       4.074   2.094  24.587  0.00  0.00    -0.283 OA
ATOM     43  C   UNL     1       3.806   4.134  23.464  0.00  0.00    +0.109 A 
ATOM     44  C   UNL     1       4.486   5.273  23.079  0.00  0.00    +0.147 A 
ATOM     45  C   UNL     1       3.931   6.162  22.148  0.00  0.00    +0.092 A 
ATOM     46  C   UNL     1       2.669   5.905  21.624  0.00  0.00    +0.124 A 
ATOM     47  C   UNL     1       1.964   4.771  22.005  0.00  0.00    +0.091 A 
ATOM     48  O   UNL     1       5.719   5.591  23.561  0.00  0.00    -0.451 OA
ATOM     49  C   UNL     1       2.534   3.883  22.921  0.00  0.00    +0.135 A 
ATOM     50  C   UNL     1       6.361   4.829  24.550  0.00  0.00    +0.181 A 
BRANCH  50  51
ATOM     51  C   UNL     1       7.720   5.482  24.837  0.00  0.00    +0.025 A 
ATOM     52  C   UNL     1       8.613   5.651  23.729  0.00  0.00    +0.015 A 
ATOM     53  C   UNL     1       9.903   6.186  23.834  0.00  0.00    +0.050 A 
ATOM     54  C   UNL     1      10.352   6.591  25.067  0.00  0.00    +0.158 A 
ATOM     55  C   UNL     1       9.513   6.485  26.165  0.00  0.00    +0.159 A 
ATOM     56  C   UNL     1       8.209   5.941  26.074  0.00  0.00    +0.060 A 
BRANCH  55  57
ATOM     57  O   UNL     1      10.029   6.961  27.355  0.00  0.00    -0.503 OA
ATOM     58  H   UNL     1      10.175   6.214  27.953  0.00  0.00    +0.292 HD
ENDBRANCH  55  57
BRANCH  54  59
ATOM     59  O   UNL     1      11.607   7.108  25.161  0.00  0.00    -0.503 OA
ATOM     60  H   UNL     1      11.511   8.071  24.960  0.00  0.00    +0.292 HD
ENDBRANCH  54  59
ENDBRANCH  50  51
BRANCH  49  61
ATOM     61  O   UNL     1       1.814   2.781  23.286  0.00  0.00    -0.506 OA
ATOM     62  H   UNL     1       1.040   2.684  22.706  0.00  0.00    +0.292 HD
ENDBRANCH  49  61
BRANCH  46  63
ATOM     63  O   UNL     1       2.073   6.743  20.731  0.00  0.00    -0.507 OA
ATOM     64  H   UNL     1       1.301   7.165  21.145  0.00  0.00    +0.292 HD
ENDBRANCH  46  63
ENDBRANCH  39  40
ENDBRANCH   4  39
TORSDOF 20
ENDMDL
